# generated using pymatgen
data_PrH10C9S3N3O8
_symmetry_space_group_name_H-M   'P 1'
_cell_length_a   8.72551316
_cell_length_b   13.21573602
_cell_length_c   14.43073451
_cell_angle_alpha   89.99998173
_cell_angle_beta   90.00012253
_cell_angle_gamma   94.30814845
_symmetry_Int_Tables_number   1
_chemical_formula_structural   PrH10C9S3N3O8
_chemical_formula_sum   'Pr4 H40 C36 S12 N12 O32'
_cell_volume   1659.36496591
_cell_formula_units_Z   4
loop_
 _symmetry_equiv_pos_site_id
 _symmetry_equiv_pos_as_xyz
  1  'x, y, z'
loop_
 _atom_site_type_symbol
 _atom_site_label
 _atom_site_symmetry_multiplicity
 _atom_site_fract_x
 _atom_site_fract_y
 _atom_site_fract_z
 _atom_site_occupancy
 _atom_site_hle17_bader_spin_density
 _atom_site_hle17_ddec_charge
 _atom_site_hle17_ddec_spin_density
 _atom_site_hle17_ddec_sum_bond_order
 _atom_site_hle17_magmom
 _atom_site_hse06_10hf_bader_spin_density
 _atom_site_hse06_10hf_ddec_charge
 _atom_site_hse06_10hf_ddec_spin_density
 _atom_site_hse06_10hf_ddec_sum_bond_order
 _atom_site_hse06_10hf_magmom
 _atom_site_hse06_bader_spin_density
 _atom_site_hse06_ddec_charge
 _atom_site_hse06_ddec_spin_density
 _atom_site_hse06_ddec_sum_bond_order
 _atom_site_hse06_magmom
 _atom_site_pbe_bader_spin_density
 _atom_site_pbe_cm5_charge
 _atom_site_pbe_ddec_charge
 _atom_site_pbe_ddec_spin_density
 _atom_site_pbe_ddec_sum_bond_order
 _atom_site_pbe_magmom
Pr  Pr0  1  0.24936902  0.49864626  0.50081659  1  0  2.309939  0  1.568527  0  0  2.143798  0  2.021241  0  0  2.238081  0  1.881109  0  0  1.469816  2.111381  0  2.054104  0
Pr  Pr1  1  0.25063008  0.00135445  0.00081786  1  0  2.309925  0  1.56856  0  0  2.143761  0  2.021319  0  0  2.238063  0  1.881152  0  0  1.469796  2.111341  0  2.054178  0
Pr  Pr2  1  0.75063007  0.50135289  0.49918290  1  0  2.309915  0  1.568565  0  0  2.143761  0  2.021301  0  0  2.238055  0  1.881151  0  0  1.469792  2.111344  0  2.054164  0
Pr  Pr3  1  0.74937155  0.99864697  0.99918302  1  0  2.30994  0  1.568551  0  0  2.143797  0  2.021269  0  0  2.238081  0  1.881138  0  0  1.469812  2.111378  0  2.054129  0
H  H4  1  0.24514206  0.38042398  0.83210328  1  0  0.139298  0  0.923276  0  0  0.154258  0  0.978392  0  0  0.156161  0  0.977691  0  0  0.113552  0.152959  0  0.978872  0
H  H5  1  0.25485902  0.11957364  0.33210521  1  0  0.139302  0  0.923269  0  0  0.154263  0  0.978376  0  0  0.156171  0  0.977671  0  0  0.113553  0.152966  0  0.978857  0
H  H6  1  0.75485916  0.61957365  0.16789552  1  0  0.139311  0  0.92328  0  0  0.154268  0  0.97839  0  0  0.156172  0  0.977687  0  0  0.113566  0.152973  0  0.978877  0
H  H7  1  0.74514253  0.88042703  0.66789498  1  0  0.139292  0  0.923279  0  0  0.154258  0  0.978376  0  0  0.156162  0  0.977675  0  0  0.113543  0.152964  0  0.978854  0
H  H8  1  0.09344157  0.46284954  0.82560592  1  0  0.123875  0  0.950913  0  0  0.130561  0  1.020271  0  0  0.132764  0  1.019097  0  0  0.101517  0.129067  0  1.021019  0
H  H9  1  0.40655843  0.03714884  0.32560738  1  0  0.123869  0  0.950909  0  0  0.130553  0  1.020276  0  0  0.132756  0  1.019102  0  0  0.10152  0.129065  0  1.021013  0
H  H10  1  0.90655966  0.53714809  0.17439357  1  0  0.123878  0  0.95088  0  0  0.130549  0  1.020255  0  0  0.132751  0  1.019079  0  0  0.101533  0.129066  0  1.020997  0
H  H11  1  0.59344197  0.96285183  0.67439280  1  0  0.123869  0  0.950908  0  0  0.130541  0  1.020283  0  0  0.132744  0  1.019109  0  0  0.101528  0.129053  0  1.021027  0
H  H12  1  0.62472691  0.79603912  0.17020645  1  0  0.135988  0  0.943986  0  0  0.145923  0  1.008667  0  0  0.14897  0  1.006718  0  0  0.111603  0.143702  0  1.01032  0
H  H13  1  0.87527454  0.70395928  0.67020474  1  0  0.135994  0  0.944  0  0  0.145918  0  1.008669  0  0  0.148963  0  1.006721  0  0  0.111616  0.143698  0  1.01032  0
H  H14  1  0.37527448  0.20396003  0.82979581  1  0  0.136015  0  0.943963  0  0  0.14593  0  1.008648  0  0  0.148975  0  1.006701  0  0  0.111603  0.143713  0  1.010294  0
H  H15  1  0.12472472  0.29604138  0.32979475  1  0  0.135943  0  0.944029  0  0  0.145898  0  1.008694  0  0  0.148943  0  1.006748  0  0  0.111611  0.14368  0  1.010346  0
H  H16  1  0.58239436  0.71968323  0.07145471  1  0  0.165157  0  0.921765  0  0  0.174018  0  0.984275  0  0  0.177954  0  0.980933  0  0  0.123457  0.17131  0  0.986607  0
H  H17  1  0.91760257  0.78031897  0.57145441  1  0  0.165209  0  0.921637  0  0  0.174038  0  0.98417  0  0  0.177978  0  0.980814  0  0  0.123458  0.171329  0  0.986501  0
H  H18  1  0.41760392  0.28031895  0.92854548  1  0  0.165218  0  0.921619  0  0  0.174034  0  0.98418  0  0  0.177974  0  0.980825  0  0  0.123454  0.171326  0  0.986509  0
H  H19  1  0.08239661  0.21968093  0.42854439  1  0  0.165183  0  0.92167  0  0  0.174047  0  0.98419  0  0  0.177987  0  0.980836  0  0  0.123467  0.171341  0  0.986517  0
H  H20  1  0.85980027  0.26119578  0.04886359  1  0  0.145158  0  0.938064  0  0  0.152199  0  1.004692  0  0  0.155171  0  1.003375  0  0  0.113162  0.150014  0  1.005934  0
H  H21  1  0.64019872  0.23880503  0.54886225  1  0  0.145193  0  0.93805  0  0  0.152209  0  1.004671  0  0  0.155181  0  1.003354  0  0  0.113179  0.150025  0  1.005907  0
H  H22  1  0.14020234  0.73880413  0.95113591  1  0  0.145127  0  0.938028  0  0  0.152148  0  1.004677  0  0  0.15512  0  1.003362  0  0  0.113139  0.149963  0  1.005918  0
H  H23  1  0.35980054  0.76119562  0.45113655  1  0  0.145124  0  0.938115  0  0  0.152157  0  1.004743  0  0  0.15513  0  1.003427  0  0  0.113142  0.149975  0  1.00598  0
H  H24  1  0.00052716  0.33246624  0.97965279  1  0  0.153257  0  0.917006  0  0  0.165022  0  0.971853  0  0  0.168145  0  0.970043  0  0  0.11954  0.162847  0  0.973126  0
H  H25  1  0.49947117  0.16753286  0.47965294  1  0  0.153281  0  0.916993  0  0  0.165021  0  0.971839  0  0  0.168143  0  0.970031  0  0  0.119542  0.162839  0  0.973116  0
H  H26  1  0.99947644  0.66753216  0.02034670  1  0  0.153241  0  0.916984  0  0  0.165003  0  0.971831  0  0  0.168125  0  0.970023  0  0  0.119532  0.162823  0  0.973104  0
H  H27  1  0.50052907  0.83246628  0.52034655  1  0  0.153242  0  0.916977  0  0  0.164975  0  0.971854  0  0  0.168098  0  0.970048  0  0  0.119536  0.162801  0  0.973125  0
H  H28  1  0.23134529  0.64643931  0.32414156  1  0  0.399674  0  0.894984  0  0  0.370322  0  0.962837  0  0  0.378944  0  0.950192  0  0  0.292797  0.364263  0  0.971855  0
H  H29  1  0.26865485  0.85356046  0.82414244  1  0  0.399682  0  0.894976  0  0  0.370331  0  0.962824  0  0  0.378953  0  0.950177  0  0  0.292804  0.36427  0  0.971845  0
H  H30  1  0.76865503  0.35356059  0.67585793  1  0  0.39968  0  0.894966  0  0  0.37033  0  0.962822  0  0  0.378952  0  0.950176  0  0  0.292807  0.364271  0  0.971839  0
H  H31  1  0.73134440  0.14644020  0.17585775  1  0  0.399653  0  0.895015  0  0  0.370301  0  0.962869  0  0  0.378923  0  0.950224  0  0  0.292792  0.364238  0  0.971892  0
H  H32  1  0.06143836  0.61526108  0.35779878  1  0  0.453902  0  0.837081  0  0  0.42409  0  0.897234  0  0  0.435844  0  0.88009  0  0  0.304782  0.415772  0  0.909479  0
H  H33  1  0.43856067  0.88473792  0.85779918  1  0  0.453914  0  0.837059  0  0  0.424104  0  0.897209  0  0  0.435857  0  0.880069  0  0  0.304799  0.41579  0  0.909447  0
H  H34  1  0.93856073  0.38473806  0.64220140  1  0  0.453902  0  0.837077  0  0  0.424088  0  0.897232  0  0  0.435843  0  0.880088  0  0  0.304791  0.415774  0  0.909472  0
H  H35  1  0.56143842  0.11526122  0.14220101  1  0  0.453917  0  0.837055  0  0  0.424106  0  0.897206  0  0  0.43586  0  0.880064  0  0  0.304802  0.415794  0  0.90944  0
H  H36  1  0.29078988  0.46505374  0.28080911  1  0  0.403447  0  0.905874  0  0  0.366255  0  0.981977  0  0  0.37714  0  0.966007  0  0  0.28382  0.358578  0  0.993343  0
H  H37  1  0.20920791  0.03494691  0.78081000  1  0  0.403482  0  0.90583  0  0  0.366293  0  0.981926  0  0  0.37718  0  0.965953  0  0  0.283853  0.358616  0  0.993293  0
H  H38  1  0.70920929  0.53494616  0.71919038  1  0  0.403401  0  0.90593  0  0  0.366241  0  0.981998  0  0  0.377128  0  0.966025  0  0  0.283821  0.358566  0  0.99336  0
H  H39  1  0.79079020  0.96505374  0.21919018  1  0  0.403449  0  0.905875  0  0  0.366262  0  0.981968  0  0  0.377146  0  0.966  0  0  0.28383  0.358583  0  0.993338  0
H  H40  1  0.44853887  0.45368454  0.33055374  1  0  0.447505  0  0.844045  0  0  0.417806  0  0.905351  0  0  0.428778  0  0.889344  0  0  0.303004  0.409982  0  0.916921  0
H  H41  1  0.05145901  0.04631535  0.83055373  1  0  0.447476  0  0.844082  0  0  0.417777  0  0.905387  0  0  0.42875  0  0.889378  0  0  0.302987  0.409952  0  0.916959  0
H  H42  1  0.55146030  0.54631536  0.66944506  1  0  0.447497  0  0.84406  0  0  0.417799  0  0.905363  0  0  0.428772  0  0.889354  0  0  0.302994  0.409978  0  0.916926  0
H  H43  1  0.94854016  0.95368455  0.16944784  1  0  0.447486  0  0.844071  0  0  0.417785  0  0.905382  0  0  0.428758  0  0.889373  0  0  0.302984  0.409963  0  0.916948  0
C  C44  1  0.29545765  0.53249966  0.97561365  1  0  0.388255  0  3.807114  0  0  0.366408  0  4.106706  0  0  0.388419  0  4.114771  0  0  0.251196  0.351746  0  4.100938  0
C  C45  1  0.20454295  0.96749933  0.47561403  1  0  0.388275  0  3.807022  0  0  0.366423  0  4.10662  0  0  0.388434  0  4.114684  0  0  0.251192  0.351767  0  4.100847  0
C  C46  1  0.70454153  0.46750024  0.02438584  1  0  0.388308  0  3.807037  0  0  0.366479  0  4.106603  0  0  0.38849  0  4.114668  0  0  0.251229  0.351815  0  4.100842  0
C  C47  1  0.79545516  0.03250133  0.52438546  1  0  0.388292  0  3.807071  0  0  0.366461  0  4.106622  0  0  0.388471  0  4.114687  0  0  0.251245  0.351811  0  4.10084  0
C  C48  1  0.34265895  0.58372085  0.12254899  1  0  0.393246  0  3.831101  0  0  0.368798  0  4.127533  0  0  0.39059  0  4.135767  0  0  0.250574  0.354304  0  4.121496  0
C  C49  1  0.15734171  0.91627972  0.62254971  1  0  0.393253  0  3.831115  0  0  0.368831  0  4.127511  0  0  0.390616  0  4.135756  0  0  0.250536  0.354331  0  4.121483  0
C  C50  1  0.65734038  0.41628057  0.87745050  1  0  0.393288  0  3.831075  0  0  0.368824  0  4.127539  0  0  0.390612  0  4.135778  0  0  0.250523  0.354315  0  4.121523  0
C  C51  1  0.84265640  0.08372094  0.37744979  1  0  0.393289  0  3.830988  0  0  0.368823  0  4.127439  0  0  0.39061  0  4.13568  0  0  0.250576  0.354324  0  4.121408  0
C  C52  1  0.17925235  0.44586320  0.09397517  1  0  0.405263  0  3.797118  0  0  0.382692  0  4.091022  0  0  0.405668  0  4.097055  0  0  0.254516  0.367303  0  4.086661  0
C  C53  1  0.32074814  0.05413673  0.59397689  1  0  0.405283  0  3.797135  0  0  0.382707  0  4.091057  0  0  0.405683  0  4.097088  0  0  0.254536  0.367313  0  4.086702  0
C  C54  1  0.82074805  0.55413746  0.90602363  1  0  0.405258  0  3.797084  0  0  0.382688  0  4.090996  0  0  0.405664  0  4.097025  0  0  0.254516  0.367302  0  4.08663  0
C  C55  1  0.67924997  0.94586392  0.40602398  1  0  0.405168  0  3.797208  0  0  0.382622  0  4.091081  0  0  0.405591  0  4.097122  0  0  0.254531  0.367244  0  4.086707  0
C  C56  1  0.21359296  0.45459615  0.80705185  1  0  -0.310654  0  3.658749  0  0  -0.343813  0  3.913293  0  0  -0.347502  0  3.918411  0  0  -0.14856  -0.341192  0  3.909427  0
C  C57  1  0.28640713  0.04540374  0.30705246  1  0  -0.310689  0  3.658758  0  0  -0.343851  0  3.913327  0  0  -0.347544  0  3.918435  0  0  -0.148585  -0.341239  0  3.909466  0
C  C58  1  0.78640728  0.54540299  0.19294833  1  0  -0.310707  0  3.658787  0  0  -0.343863  0  3.913391  0  0  -0.347546  0  3.918493  0  0  -0.1486  -0.341269  0  3.909556  0
C  C59  1  0.71359450  0.95459768  0.69294772  1  0  -0.310662  0  3.658759  0  0  -0.343841  0  3.913421  0  0  -0.34753  0  3.918531  0  0  -0.148582  -0.341239  0  3.909573  0
C  C60  1  0.23314691  0.46015853  0.70301004  1  0  0.719663  0  3.866209  0  0  0.671627  0  4.166677  0  0  0.703995  0  4.163403  0  0  0.20557  0.64921  0  4.171251  0
C  C61  1  0.26685167  0.03984138  0.20301132  1  0  0.719749  0  3.866126  0  0  0.671714  0  4.166587  0  0  0.704081  0  4.163314  0  0  0.205602  0.649297  0  4.171167  0
C  C62  1  0.76685333  0.53984061  0.29698946  1  0  0.719752  0  3.866161  0  0  0.671713  0  4.166617  0  0  0.704081  0  4.163341  0  0  0.205566  0.649309  0  4.17119  0
C  C63  1  0.73314767  0.96016004  0.79698956  1  0  0.719703  0  3.8662  0  0  0.671651  0  4.166696  0  0  0.704018  0  4.16342  0  0  0.205545  0.649233  0  4.171279  0
C  C64  1  0.53043400  0.75862675  0.12956536  1  0  -0.316917  0  3.626634  0  0  -0.349535  0  3.877204  0  0  -0.354438  0  3.881296  0  0  -0.144397  -0.346201  0  3.874365  0
C  C65  1  0.96956755  0.74137394  0.62956376  1  0  -0.317024  0  3.626721  0  0  -0.349534  0  3.877176  0  0  -0.354436  0  3.881268  0  0  -0.144387  -0.346201  0  3.874336  0
C  C66  1  0.46956657  0.24137543  0.87043552  1  0  -0.317056  0  3.626655  0  0  -0.349553  0  3.877121  0  0  -0.354454  0  3.881213  0  0  -0.144386  -0.346228  0  3.874289  0
C  C67  1  0.03043146  0.25862444  0.37043504  1  0  -0.316935  0  3.626689  0  0  -0.349541  0  3.877215  0  0  -0.354445  0  3.881313  0  0  -0.144396  -0.346209  0  3.874381  0
C  C68  1  0.43189547  0.83766560  0.08915293  1  0  0.750259  0  3.836842  0  0  0.707503  0  4.129328  0  0  0.740462  0  4.126188  0  0  0.216951  0.684925  0  4.13419  0
C  C69  1  0.06810532  0.66233725  0.58915083  1  0  0.750288  0  3.836973  0  0  0.707456  0  4.129539  0  0  0.740422  0  4.126392  0  0  0.216884  0.68487  0  4.134417  0
C  C70  1  0.56810747  0.16233734  0.91084934  1  0  0.750336  0  3.836918  0  0  0.707504  0  4.129498  0  0  0.74047  0  4.126352  0  0  0.216951  0.684917  0  4.134377  0
C  C71  1  0.93189386  0.33766265  0.41085005  1  0  0.750222  0  3.836976  0  0  0.7074  0  4.12957  0  0  0.740366  0  4.126427  0  0  0.216865  0.684811  0  4.134446  0
C  C72  1  0.98290445  0.28129433  0.03935687  1  0  -0.300094  0  3.579023  0  0  -0.330292  0  3.826169  0  0  -0.334582  0  3.829611  0  0  -0.14246  -0.327301  0  3.823611  0
C  C73  1  0.51709450  0.21870648  0.53935608  1  0  -0.300174  0  3.579097  0  0  -0.330251  0  3.826098  0  0  -0.334543  0  3.829549  0  0  -0.142478  -0.327267  0  3.823541  0
C  C74  1  0.01709817  0.71870558  0.96064331  1  0  -0.299995  0  3.578942  0  0  -0.330154  0  3.826061  0  0  -0.334449  0  3.829513  0  0  -0.142419  -0.327163  0  3.823499  0
C  C75  1  0.48290352  0.78129341  0.46064272  1  0  -0.300018  0  3.579016  0  0  -0.33017  0  3.826125  0  0  -0.334465  0  3.829579  0  0  -0.142436  -0.327188  0  3.823571  0
C  C76  1  0.07055220  0.18761179  0.02347422  1  0  0.74311  0  3.839624  0  0  0.703164  0  4.127623  0  0  0.736219  0  4.124237  0  0  0.216435  0.680529  0  4.132712  0
C  C77  1  0.42944460  0.31238815  0.52347255  1  0  0.743056  0  3.839767  0  0  0.703088  0  4.127755  0  0  0.736139  0  4.124376  0  0  0.216439  0.680463  0  4.132829  0
C  C78  1  0.92945033  0.81238736  0.97652666  1  0  0.743059  0  3.839851  0  0  0.7031  0  4.127856  0  0  0.736158  0  4.124464  0  0  0.21639  0.680461  0  4.132947  0
C  C79  1  0.57055334  0.68761099  0.47652487  1  0  0.743107  0  3.83973  0  0  0.703176  0  4.12769  0  0  0.736229  0  4.124305  0  0  0.216485  0.680543  0  4.132777  0
S  S80  1  0.33654448  0.55468419  0.85957731  1  0  0.086569  0  2.390025  0  0  0.077961  0  2.720568  0  0  0.073548  0  2.717634  0  0  0.072725  0.081209  0  2.72238  0
S  S81  1  0.16345579  0.94531558  0.35957834  1  0  0.086575  0  2.390008  0  0  0.07797  0  2.720553  0  0  0.073555  0  2.717622  0  0  0.072729  0.081218  0  2.722372  0
S  S82  1  0.66345576  0.44531496  0.14042149  1  0  0.086569  0  2.390031  0  0  0.07796  0  2.720562  0  0  0.073544  0  2.717627  0  0  0.07273  0.081218  0  2.72239  0
S  S83  1  0.83654354  0.05468584  0.64042185  1  0  0.08656  0  2.389959  0  0  0.077957  0  2.720497  0  0  0.073542  0  2.717565  0  0  0.07271  0.081205  0  2.72232  0
S  S84  1  0.43264092  0.66579289  0.20396069  1  0  0.036963  0  2.467026  0  0  0.035232  0  2.814869  0  0  0.031601  0  2.80949  0  0  0.063847  0.037936  0  2.818537  0
S  S85  1  0.06735774  0.83420766  0.70396062  1  0  0.036967  0  2.467104  0  0  0.03521  0  2.814891  0  0  0.031579  0  2.809518  0  0  0.063851  0.037922  0  2.818555  0
S  S86  1  0.56735719  0.33420777  0.79604019  1  0  0.036937  0  2.467127  0  0  0.035204  0  2.814927  0  0  0.031571  0  2.809552  0  0  0.063843  0.037922  0  2.818585  0
S  S87  1  0.93264152  0.16579300  0.29603887  1  0  0.036995  0  2.467024  0  0  0.035268  0  2.814879  0  0  0.031643  0  2.809496  0  0  0.063859  0.037974  0  2.81855  0
S  S88  1  0.05083685  0.35180369  0.14020074  1  0  0.053115  0  2.401609  0  0  0.047764  0  2.744122  0  0  0.042639  0  2.739918  0  0  0.06696  0.051601  0  2.746796  0
S  S89  1  0.44916274  0.14819700  0.64020053  1  0  0.053129  0  2.401693  0  0  0.047749  0  2.744153  0  0  0.042625  0  2.73995  0  0  0.066954  0.051588  0  2.746826  0
S  S90  1  0.94916568  0.64819546  0.85979875  1  0  0.053057  0  2.401632  0  0  0.047706  0  2.744133  0  0  0.042584  0  2.739928  0  0  0.06694  0.051545  0  2.7468  0
S  S91  1  0.55083643  0.85180290  0.35979896  1  0  0.053096  0  2.401707  0  0  0.047727  0  2.744195  0  0  0.042608  0  2.739995  0  0  0.066928  0.051563  0  2.746867  0
N  N92  1  0.37071302  0.59971183  0.03284048  1  0  -0.448869  0  3.019623  0  0  -0.415339  0  3.29313  0  0  -0.434227  0  3.301853  0  0  -0.324174  -0.402878  0  3.28713  0
N  N93  1  0.12928831  0.90028724  0.53284185  1  0  -0.448913  0  3.019619  0  0  -0.415371  0  3.293093  0  0  -0.434256  0  3.301819  0  0  -0.324173  -0.402911  0  3.287095  0
N  N94  1  0.62928632  0.40028959  0.96715763  1  0  -0.448886  0  3.019653  0  0  -0.41536  0  3.293168  0  0  -0.434249  0  3.301895  0  0  -0.324151  -0.402897  0  3.287178  0
N  N95  1  0.87070980  0.09971342  0.46715764  1  0  -0.44889  0  3.01966  0  0  -0.415362  0  3.293181  0  0  -0.434251  0  3.301908  0  0  -0.324162  -0.402902  0  3.287176  0
N  N96  1  0.24970938  0.50707877  0.15845910  1  0  -0.504417  0  3.059129  0  0  -0.452826  0  3.314179  0  0  -0.47242  0  3.3196  0  0  -0.324878  -0.439802  0  3.310414  0
N  N97  1  0.25029255  0.99292180  0.65845922  1  0  -0.504448  0  3.059254  0  0  -0.452877  0  3.314311  0  0  -0.472468  0  3.319734  0  0  -0.324876  -0.43985  0  3.310548  0
N  N98  1  0.75028987  0.49292189  0.84154039  1  0  -0.504455  0  3.059092  0  0  -0.452872  0  3.314164  0  0  -0.472464  0  3.319586  0  0  -0.324894  -0.439844  0  3.310401  0
N  N99  1  0.74970679  0.00707962  0.34154027  1  0  -0.504407  0  3.059113  0  0  -0.452828  0  3.314168  0  0  -0.472417  0  3.319593  0  0  -0.324904  -0.439805  0  3.310399  0
N  N100  1  0.19651542  0.45508254  0.00210460  1  0  -0.455848  0  3.023713  0  0  -0.421247  0  3.295109  0  0  -0.440802  0  3.304317  0  0  -0.32333  -0.408344  0  3.288853  0
N  N101  1  0.30348803  0.04491590  0.50210561  1  0  -0.455828  0  3.023542  0  0  -0.421229  0  3.294948  0  0  -0.440782  0  3.304156  0  0  -0.323318  -0.408322  0  3.288691  0
N  N102  1  0.80348597  0.54491661  0.99789490  1  0  -0.455795  0  3.023582  0  0  -0.421199  0  3.294972  0  0  -0.440752  0  3.304177  0  0  -0.323295  -0.408295  0  3.288719  0
N  N103  1  0.69651123  0.95508476  0.49789458  1  0  -0.455816  0  3.023665  0  0  -0.421213  0  3.295029  0  0  -0.440764  0  3.30424  0  0  -0.323345  -0.408316  0  3.288771  0
O  O104  1  0.35669390  0.50060011  0.66777143  1  0  -0.70854  0  2.056797  0  0  -0.65206  0  2.296658  0  0  -0.682064  0  2.288488  0  0  -0.354388  -0.634244  0  2.301892  0
O  O105  1  0.14330364  0.99940196  0.16777242  1  0  -0.708586  0  2.05683  0  0  -0.652094  0  2.296677  0  0  -0.6821  0  2.28851  0  0  -0.354396  -0.634279  0  2.301922  0
O  O106  1  0.64330642  0.49939980  0.33222806  1  0  -0.708593  0  2.056823  0  0  -0.652099  0  2.296663  0  0  -0.682103  0  2.288494  0  0  -0.354373  -0.634288  0  2.301905  0
O  O107  1  0.85669480  0.00060173  0.83222777  1  0  -0.708569  0  2.056843  0  0  -0.652066  0  2.296696  0  0  -0.68207  0  2.288527  0  0  -0.354347  -0.634248  0  2.301936  0
O  O108  1  0.12320376  0.42438145  0.65214700  1  0  -0.681915  0  2.017997  0  0  -0.622416  0  2.243629  0  0  -0.652066  0  2.23407  0  0  -0.346535  -0.604674  0  2.249687  0
O  O109  1  0.37679800  0.07561772  0.15214772  1  0  -0.681936  0  2.017935  0  0  -0.622446  0  2.243581  0  0  -0.652096  0  2.23402  0  0  -0.346532  -0.604698  0  2.249636  0
O  O110  1  0.87679762  0.57561770  0.34785249  1  0  -0.681957  0  2.017971  0  0  -0.622466  0  2.243618  0  0  -0.652116  0  2.234056  0  0  -0.346543  -0.604719  0  2.249669  0
O  O111  1  0.62320216  0.92438067  0.84785247  1  0  -0.681934  0  2.017946  0  0  -0.622437  0  2.243599  0  0  -0.652083  0  2.234038  0  0  -0.346537  -0.604687  0  2.249649  0
O  O112  1  0.50641456  0.91502204  0.05154157  1  0  -0.812995  0  2.08272  0  0  -0.749773  0  2.33823  0  0  -0.786874  0  2.327428  0  0  -0.445414  -0.731139  0  2.344039  0
O  O113  1  0.99359040  0.58498094  0.55154005  1  0  -0.812973  0  2.082785  0  0  -0.749726  0  2.338311  0  0  -0.78683  0  2.327504  0  0  -0.445417  -0.731088  0  2.344125  0
O  O114  1  0.49359059  0.08498015  0.94846069  1  0  -0.81301  0  2.082821  0  0  -0.749766  0  2.338355  0  0  -0.786873  0  2.327553  0  0  -0.445443  -0.731123  0  2.344164  0
O  O115  1  0.00640755  0.41501820  0.44846152  1  0  -0.812966  0  2.082834  0  0  -0.749722  0  2.338362  0  0  -0.786827  0  2.32756  0  0  -0.445405  -0.731081  0  2.344173  0
O  O116  1  0.28795776  0.82901620  0.09086100  1  0  -0.652606  0  1.940877  0  0  -0.609614  0  2.169394  0  0  -0.637261  0  2.162009  0  0  -0.341617  -0.593346  0  2.173369  0
O  O117  1  0.21204688  0.67099045  0.59085770  1  0  -0.652595  0  1.940775  0  0  -0.609604  0  2.169339  0  0  -0.637252  0  2.161953  0  0  -0.341557  -0.593329  0  2.173317  0
O  O118  1  0.71204559  0.17099054  0.90914265  1  0  -0.652614  0  1.940764  0  0  -0.609612  0  2.169317  0  0  -0.637258  0  2.161931  0  0  -0.341583  -0.593339  0  2.1733  0
O  O119  1  0.78795229  0.32900945  0.40914249  1  0  -0.652604  0  1.94082  0  0  -0.6096  0  2.169373  0  0  -0.637249  0  2.161988  0  0  -0.341576  -0.593325  0  2.173348  0
O  O120  1  0.21485596  0.19464655  0.01921881  1  0  -0.655822  0  1.943023  0  0  -0.612717  0  2.174531  0  0  -0.64085  0  2.16604  0  0  -0.347989  -0.596304  0  2.17912  0
O  O121  1  0.28514426  0.30535340  0.51921626  1  0  -0.655784  0  1.943087  0  0  -0.612701  0  2.174624  0  0  -0.640829  0  2.166134  0  0  -0.348022  -0.596297  0  2.179215  0
O  O122  1  0.78514649  0.80535184  0.98078207  1  0  -0.655777  0  1.943117  0  0  -0.61267  0  2.174629  0  0  -0.640811  0  2.166159  0  0  -0.347965  -0.596258  0  2.179221  0
O  O123  1  0.71485368  0.69464574  0.48078185  1  0  -0.655766  0  1.943146  0  0  -0.612688  0  2.174673  0  0  -0.640824  0  2.166194  0  0  -0.347992  -0.596279  0  2.179267  0
O  O124  1  0.99280906  0.10156245  0.01455151  1  0  -0.810279  0  2.090997  0  0  -0.747445  0  2.34583  0  0  -0.783778  0  2.334273  0  0  -0.436794  -0.729399  0  2.352138  0
O  O125  1  0.50718858  0.39843761  0.51455065  1  0  -0.810254  0  2.091089  0  0  -0.747423  0  2.345921  0  0  -0.783756  0  2.334367  0  0  -0.436782  -0.729378  0  2.35222  0
O  O126  1  0.00719233  0.89843670  0.98545006  1  0  -0.810276  0  2.091047  0  0  -0.747468  0  2.345938  0  0  -0.783801  0  2.334378  0  0  -0.436779  -0.729419  0  2.352241  0
O  O127  1  0.49280707  0.60156152  0.48544745  1  0  -0.810327  0  2.091024  0  0  -0.74749  0  2.345827  0  0  -0.78382  0  2.334269  0  0  -0.436811  -0.729442  0  2.352133  0
O  O128  1  0.17022219  0.62777782  0.37903755  1  0  -0.891756  0  1.851214  0  0  -0.843833  0  2.02863  0  0  -0.866504  0  1.994435  0  0  -0.622748  -0.831739  0  2.050113  0
O  O129  1  0.32977815  0.87222195  0.87903781  1  0  -0.891767  0  1.851201  0  0  -0.843838  0  2.028612  0  0  -0.866511  0  1.994416  0  0  -0.622765  -0.83175  0  2.050094  0
O  O130  1  0.82977805  0.37222133  0.62096264  1  0  -0.891776  0  1.851254  0  0  -0.843846  0  2.02867  0  0  -0.866515  0  1.994462  0  0  -0.622755  -0.831757  0  2.050149  0
O  O131  1  0.67022225  0.12777872  0.12096238  1  0  -0.891748  0  1.85122  0  0  -0.84382  0  2.028629  0  0  -0.866493  0  1.994436  0  0  -0.622762  -0.831729  0  2.050111  0
O  O132  1  0.33599468  0.44244223  0.33984217  1  0  -0.902921  0  1.84166  0  0  -0.854463  0  2.02732  0  0  -0.877705  0  1.991101  0  0  -0.632542  -0.842053  0  2.050232  0
O  O133  1  0.16400324  0.05755766  0.83984231  1  0  -0.902925  0  1.841662  0  0  -0.854458  0  2.027316  0  0  -0.877705  0  1.991093  0  0  -0.632557  -0.842045  0  2.050224  0
O  O134  1  0.66400442  0.55755691  0.66015593  1  0  -0.902851  0  1.841726  0  0  -0.854432  0  2.027341  0  0  -0.877678  0  1.991119  0  0  -0.632526  -0.842028  0  2.050246  0
O  O135  1  0.83599479  0.94244224  0.16015857  1  0  -0.902905  0  1.841685  0  0  -0.854444  0  2.027342  0  0  -0.877687  0  1.991124  0  0  -0.632524  -0.842031  0  2.050251  0
