# generated using pymatgen
data_MnH10C6S2(N4O3)2
_symmetry_space_group_name_H-M   'P 1'
_cell_length_a   7.03885059
_cell_length_b   7.60369043
_cell_length_c   27.10400000
_cell_angle_alpha   91.20943112
_cell_angle_beta   90.00000000
_cell_angle_gamma   90.00000000
_symmetry_Int_Tables_number   1
_chemical_formula_structural   MnH10C6S2(N4O3)2
_chemical_formula_sum   'Mn4 H40 C24 S8 N32 O24'
_cell_volume   1450.31654168
_cell_formula_units_Z   4
loop_
 _symmetry_equiv_pos_site_id
 _symmetry_equiv_pos_as_xyz
  1  'x, y, z'
loop_
 _atom_site_type_symbol
 _atom_site_label
 _atom_site_symmetry_multiplicity
 _atom_site_fract_x
 _atom_site_fract_y
 _atom_site_fract_z
 _atom_site_occupancy
 _atom_site_hle17_ddec_charge
 _atom_site_hle17_ddec_spin_density
 _atom_site_hle17_ddec_sum_bond_order
 _atom_site_hle17_magmom
 _atom_site_hse06_10hf_ddec_charge
 _atom_site_hse06_10hf_ddec_spin_density
 _atom_site_hse06_10hf_ddec_sum_bond_order
 _atom_site_hse06_10hf_magmom
 _atom_site_hse06_ddec_charge
 _atom_site_hse06_ddec_spin_density
 _atom_site_hse06_ddec_sum_bond_order
 _atom_site_hse06_magmom
 _atom_site_pbe_bader_charge
 _atom_site_pbe_bader_spin_density
 _atom_site_pbe_cm5_charge
 _atom_site_pbe_ddec_charge
 _atom_site_pbe_ddec_spin_density
 _atom_site_pbe_ddec_sum_bond_order
 _atom_site_pbe_magmom
Mn  Mn0  1  0.76301236  0.74984644  0.75012779  1  1.271122  4.797463  1.68615  4.696  1.119415  4.725137  2.170892  4.563  1.174678  4.76289  2.099185  4.618  1.538686  4.572783  0.59404  1.076545  4.687179  2.223269  4.51
Mn  Mn1  1  0.26299891  0.25014481  0.74987552  1  1.271032  4.797557  1.686456  4.696  1.119338  4.725215  2.171244  4.563  1.174578  4.762978  2.099529  4.618  1.53878  4.572717  0.593966  1.076484  4.687247  2.223623  4.51
Mn  Mn2  1  0.23699892  0.25015402  0.24987557  1  1.271124  4.797547  1.686311  4.696  1.119355  4.725211  2.171091  4.563  1.174603  4.762968  2.099383  4.618  1.538875  4.572732  0.594019  1.076498  4.687249  2.223467  4.51
Mn  Mn3  1  0.73699959  0.74985302  0.25012525  1  1.271087  4.797548  1.686321  4.696  1.119415  4.72521  2.171095  4.563  1.174664  4.762968  2.099377  4.618  1.538757  4.572748  0.593992  1.076552  4.687247  2.22348  4.51
H  H4  1  0.94479772  0.88589886  0.66187938  1  0.409604  0.000339  0.88269  0.002  0.369311  0.001071  0.968032  0.002  0.379527  0.000715  0.953073  0.002  0.646374  0.00248  0.29737  0.361909  0.001414  0.97888  0.003
H  H5  1  0.44479847  0.11409634  0.83811767  1  0.409601  0.000339  0.882781  0.002  0.369262  0.001072  0.968101  0.002  0.379477  0.000716  0.953142  0.002  0.64622  0.002483  0.297373  0.361861  0.001416  0.978946  0.003
H  H6  1  0.05519509  0.11409371  0.33811766  1  0.409598  0.000338  0.882746  0.002  0.369257  0.001072  0.968098  0.002  0.379474  0.000716  0.953138  0.002  0.646162  0.002482  0.297364  0.361856  0.001415  0.978945  0.003
H  H7  1  0.55519292  0.88590543  0.16188016  1  0.409537  0.000339  0.882774  0.002  0.369212  0.001072  0.968174  0.002  0.379428  0.000716  0.953214  0.002  0.646111  0.002483  0.297331  0.361809  0.001416  0.979023  0.003
H  H8  1  0.58061894  0.61197608  0.83865358  1  0.413105  0.000391  0.874892  0.002  0.373304  0.001143  0.960497  0.003  0.383467  0.000776  0.945575  0.002  0.633728  0.002705  0.298499  0.365899  0.001496  0.971381  0.003
H  H9  1  0.08061117  0.38803359  0.66134799  1  0.413061  0.000391  0.87493  0.002  0.373269  0.001143  0.960535  0.003  0.383432  0.000776  0.945612  0.002  0.634264  0.002704  0.298504  0.365864  0.001496  0.971419  0.003
H  H10  1  0.41938239  0.38801649  0.16134604  1  0.413093  0.000391  0.87489  0.002  0.373269  0.001143  0.960543  0.003  0.383429  0.000776  0.945623  0.002  0.634187  0.002704  0.298487  0.365864  0.001496  0.971425  0.003
H  H11  1  0.91938164  0.61197213  0.33865319  1  0.413138  0.000391  0.874852  0.002  0.373318  0.001142  0.960468  0.003  0.38348  0.000776  0.945546  0.002  0.634278  0.002703  0.298548  0.365915  0.001495  0.971348  0.003
H  H12  1  0.71850083  0.50048300  0.50574760  1  0.285648  5e-06  0.941761  0.0  0.260595  1.2e-05  1.020396  0.0  0.270341  1e-05  1.012756  0.0  0.535978  1.4e-05  0.28897  0.253781  1.6e-05  1.025752  0.0
H  H13  1  0.21851153  0.49953062  0.99425399  1  0.285755  5e-06  0.941669  0.0  0.260693  1.2e-05  1.02035  0.0  0.270447  1e-05  1.012695  0.0  0.536032  1.4e-05  0.289042  0.253883  1.6e-05  1.025722  0.0
H  H14  1  0.28147920  0.49953851  0.49425625  1  0.285835  5e-06  0.941537  0.0  0.260756  1.2e-05  1.020266  0.0  0.2705  1e-05  1.012612  0.0  0.535464  1.4e-05  0.289013  0.253932  1.6e-05  1.025642  0.0
H  H15  1  0.78149407  0.50048037  0.00574648  1  0.28572  5e-06  0.941653  0.0  0.26068  1.2e-05  1.020294  0.0  0.270426  1e-05  1.012653  0.0  0.535943  1.4e-05  0.289026  0.253874  1.6e-05  1.025662  0.0
H  H16  1  0.79008638  0.00205867  0.99336520  1  0.282176  4e-06  0.947481  0.0  0.257545  1.2e-05  1.024645  0.0  0.267435  1e-05  1.017041  0.0  0.54186  1.4e-05  0.285159  0.250677  1.6e-05  1.029889  0.0
H  H17  1  0.29008571  0.99795231  0.50663638  1  0.282169  5e-06  0.94753  0.0  0.257547  1.2e-05  1.024675  0.0  0.267433  1e-05  1.017073  0.0  0.541821  1.4e-05  0.285164  0.250683  1.6e-05  1.029916  0.0
H  H18  1  0.20991211  0.99795626  0.00663456  1  0.282164  4e-06  0.947496  0.0  0.257569  1.1e-05  1.024632  0.0  0.26744  1e-05  1.017047  0.0  0.541771  1.4e-05  0.285218  0.250709  1.6e-05  1.029869  0.0
H  H19  1  0.70991136  0.00205867  0.49336594  1  0.282141  4e-06  0.947578  0.0  0.257524  1.2e-05  1.024713  0.0  0.267407  1e-05  1.017116  0.0  0.541956  1.4e-05  0.285149  0.25066  1.6e-05  1.029954  0.0
H  H20  1  0.70191005  0.14853993  0.66441224  1  0.136787  -0.000289  0.940062  0.0  0.146144  5e-06  1.004127  0.0  0.149459  -0.000185  1.001594  0.0  0.176382  0.001288  0.123828  0.143621  0.000227  1.006118  0.001
H  H21  1  0.20191081  0.85148027  0.83558755  1  0.136742  -0.000288  0.940038  0.0  0.146084  4e-06  1.004117  0.0  0.149394  -0.000185  1.001596  0.0  0.176314  0.001288  0.123802  0.14356  0.000227  1.006104  0.001
H  H22  1  0.29809128  0.85146843  0.33558785  1  0.13678  -0.00029  0.940067  0.0  0.146175  4e-06  1.004115  0.0  0.149493  -0.000185  1.001578  0.0  0.176303  0.001288  0.12383  0.14365  0.000227  1.006102  0.001
H  H23  1  0.79809337  0.14852283  0.16440845  1  0.136721  -0.000291  0.940102  0.0  0.146076  5e-06  1.004162  0.0  0.149386  -0.000184  1.00164  0.0  0.176135  0.001288  0.123818  0.143555  0.000227  1.00615  0.001
H  H24  1  0.47744443  0.24023031  0.64883061  1  0.12997  0.000199  0.945945  0.0  0.136741  0.000612  1.016659  0.001  0.140072  0.000397  1.014711  0.0  0.163395  0.001398  0.121934  0.134243  0.00084  1.018247  0.001
H  H25  1  0.97746357  0.75977146  0.85116907  1  0.130069  0.000199  0.945958  0.0  0.136766  0.000612  1.016753  0.001  0.140105  0.000397  1.014789  0.0  0.163448  0.001398  0.121926  0.134256  0.000841  1.018364  0.001
H  H26  1  0.52254980  0.75977278  0.35117166  1  0.129976  0.000198  0.945887  0.0  0.136729  0.000612  1.016688  0.001  0.14007  0.000397  1.014719  0.0  0.163442  0.001398  0.121909  0.134221  0.000841  1.018302  0.001
H  H27  1  0.02254203  0.24021716  0.14882795  1  0.129958  0.000199  0.945961  0.0  0.136693  0.000612  1.016744  0.001  0.140031  0.000397  1.014783  0.0  0.163465  0.001399  0.121901  0.134195  0.000841  1.018357  0.001
H  H28  1  0.04768960  0.25860575  0.85134607  1  0.130644  0.000181  0.943852  0.0  0.137466  0.000584  1.014702  0.001  0.140785  0.000372  1.012764  0.0  0.138059  0.001393  0.122358  0.135013  0.00081  1.01623  0.001
H  H29  1  0.54769596  0.74138156  0.64864983  1  0.130624  0.000182  0.943775  0.0  0.137425  0.000584  1.014666  0.001  0.140744  0.000372  1.012727  0.0  0.137946  0.001393  0.122344  0.134978  0.00081  1.016178  0.001
H  H30  1  0.95231457  0.74139340  0.14865249  1  0.130744  0.000176  0.94378  0.0  0.137514  0.000584  1.014648  0.001  0.140841  0.000373  1.012704  0.0  0.138052  0.001393  0.122362  0.135064  0.00081  1.016172  0.001
H  H31  1  0.45231391  0.25862153  0.35135022  1  0.130656  0.00018  0.943734  0.0  0.137462  0.000584  1.01462  0.001  0.140783  0.000373  1.012679  0.0  0.137883  0.001393  0.122377  0.135017  0.00081  1.016132  0.001
H  H32  1  0.82603828  0.35385178  0.83457423  1  0.136958  -0.000314  0.941558  0.0  0.146501  -3.8e-05  1.00559  0.0  0.149849  -0.00022  1.003052  0.0  0.172605  0.00125  0.123758  0.143931  0.000176  1.007606  0.001
H  H33  1  0.32605181  0.64612763  0.66541978  1  0.136925  -0.000315  0.941743  0.0  0.146521  -3.8e-05  1.005698  0.0  0.149875  -0.000219  1.003148  0.0  0.172561  0.00125  0.123722  0.143944  0.000176  1.007721  0.001
H  H34  1  0.17395880  0.64613421  0.16542203  1  0.136956  -0.000316  0.941589  0.0  0.146515  -3.8e-05  1.005569  0.0  0.149879  -0.00022  1.003015  0.0  0.172557  0.001249  0.123722  0.143941  0.000176  1.007587  0.001
H  H35  1  0.67395805  0.35385704  0.33457685  1  0.13693  -0.000315  0.941754  0.0  0.146497  -3.8e-05  1.005734  0.0  0.149853  -0.000219  1.003189  0.0  0.172407  0.00125  0.123724  0.143923  0.000177  1.007752  0.001
H  H36  1  0.59067598  0.48864663  0.78987800  1  0.42081  -0.000619  0.881599  0.0  0.387541  0.000135  0.952503  0.001  0.398973  -0.00014  0.935847  0.001  0.642898  0.000807  0.298067  0.379457  0.000397  0.96423  0.001
H  H37  1  0.09066963  0.51135777  0.71012501  1  0.420803  -0.000618  0.88159  0.0  0.387582  0.000135  0.952458  0.001  0.399016  -0.00014  0.935801  0.001  0.642907  0.000807  0.298088  0.379496  0.000398  0.96419  0.001
H  H38  1  0.40933388  0.51134857  0.21012090  1  0.42088  -0.000619  0.88153  0.0  0.38766  0.000135  0.952344  0.001  0.399093  -0.00014  0.935688  0.001  0.642958  0.000808  0.298126  0.379576  0.000397  0.964074  0.001
H  H39  1  0.90934307  0.48864137  0.28987760  1  0.420759  -0.000619  0.881635  0.0  0.38751  0.000135  0.952556  0.001  0.398942  -0.00014  0.935902  0.001  0.642762  0.000807  0.298066  0.379426  0.000397  0.964285  0.001
H  H40  1  0.93297619  0.01139832  0.71023057  1  0.418546  -0.00061  0.884679  0.0  0.385393  0.000148  0.955598  0.001  0.396863  -0.000129  0.938916  0.001  0.647901  0.000819  0.297132  0.377298  0.000411  0.967322  0.001
H  H41  1  0.43297978  0.98858899  0.78976607  1  0.418582  -0.00061  0.884679  0.0  0.385394  0.000147  0.955588  0.001  0.396874  -0.00013  0.938892  0.001  0.647684  0.00082  0.29712  0.377295  0.00041  0.967316  0.001
H  H42  1  0.06701520  0.98859688  0.28976464  1  0.418558  -0.00061  0.884722  0.0  0.385379  0.000147  0.95562  0.001  0.396851  -0.00013  0.938934  0.001  0.6477  0.00082  0.297112  0.377283  0.000411  0.967344  0.001
H  H43  1  0.56701587  0.01140358  0.21023244  1  0.418465  -0.00061  0.88469  0.0  0.385318  0.000147  0.955666  0.001  0.396791  -0.00013  0.938979  0.001  0.647688  0.00082  0.2971  0.377223  0.000411  0.967388  0.001
C  C44  1  0.63841247  0.39585522  0.70133785  1  0.729972  0.00844  3.792877  0.009  0.67496  0.015284  4.097284  0.015  0.710459  0.011331  4.089224  0.011  1.630216  0.020348  0.237587  0.650022  0.019551  4.102146  0.018
C  C45  1  0.13843169  0.60415182  0.79866370  1  0.730035  0.008433  3.792838  0.009  0.675135  0.015278  4.097109  0.015  0.710638  0.011326  4.089038  0.011  1.631088  0.020335  0.237644  0.650199  0.019543  4.101967  0.018
C  C46  1  0.36157892  0.60413998  0.29866326  1  0.73014  0.008435  3.792741  0.009  0.675271  0.015279  4.097018  0.015  0.710772  0.011327  4.088951  0.011  1.630391  0.020341  0.237685  0.65033  0.019546  4.101882  0.018
C  C47  1  0.86158385  0.39583812  0.20133702  1  0.730159  0.008438  3.792593  0.009  0.675164  0.015284  4.096971  0.015  0.710651  0.011332  4.088924  0.011  1.630614  0.020347  0.237631  0.65023  0.019552  4.10183  0.018
C  C48  1  0.62705977  0.27198644  0.65647179  1  -0.197163  0.001078  3.630854  0.001  -0.25782  0.001874  3.875821  0.002  -0.259986  0.001254  3.881676  0.001  0.203291  0.003561  -0.053491  -0.256065  0.002499  3.872113  0.002
C  C49  1  0.12707330  0.72802586  0.84352869  1  -0.197232  0.001079  3.630918  0.001  -0.257983  0.001875  3.87594  0.002  -0.260146  0.001255  3.881795  0.001  0.2031  0.003562  -0.053445  -0.256214  0.0025  3.872206  0.002
C  C50  1  0.37293305  0.72801928  0.34352828  1  -0.197091  0.001083  3.630773  0.001  -0.257978  0.001874  3.875946  0.002  -0.260144  0.001255  3.881802  0.001  0.20332  0.003562  -0.053472  -0.256213  0.0025  3.872207  0.002
C  C51  1  0.87293087  0.27197329  0.15646987  1  -0.197022  0.001083  3.63084  0.001  -0.257776  0.001874  3.875944  0.002  -0.25994  0.001253  3.881809  0.001  0.203357  0.003562  -0.053396  -0.256037  0.0025  3.872214  0.002
C  C52  1  0.59930808  0.39814278  0.57199522  1  0.30448  4.9e-05  3.827744  0.0  0.257641  0.000153  4.132939  0.0  0.280478  0.0001  4.143011  0.0  0.696003  0.00028  0.2256  0.242547  0.000227  4.125449  0.0
C  C53  1  0.09932161  0.60187742  0.92800568  1  0.304235  5.1e-05  3.827799  0.0  0.257438  0.000154  4.13282  0.0  0.280278  9.8e-05  4.14289  0.0  0.696334  0.00028  0.225607  0.242357  0.000227  4.125338  0.0
C  C54  1  0.40067763  0.60187215  0.42800675  1  0.304052  5e-05  3.828238  0.0  0.257319  0.000154  4.133208  0.0  0.280156  9.9e-05  4.14329  0.0  0.695908  0.00028  0.225514  0.242228  0.000227  4.12571  0.0
C  C55  1  0.90068541  0.39813357  0.07199258  1  0.304343  4.7e-05  3.827994  0.0  0.257639  0.000155  4.132955  0.0  0.280478  9.8e-05  4.143024  0.0  0.695991  0.00028  0.225694  0.24257  0.000227  4.125462  0.0
C  C56  1  0.88746592  0.10462383  0.79837962  1  0.73093  0.00843  3.79383  0.009  0.675524  0.015277  4.099147  0.015  0.711028  0.011325  4.09103  0.011  1.600549  0.020399  0.237912  0.650575  0.019544  4.104041  0.018
C  C57  1  0.38748940  0.89533585  0.70162350  1  0.730725  0.008435  3.794209  0.009  0.675395  0.015281  4.099426  0.015  0.710929  0.011327  4.091286  0.011  1.60124  0.020404  0.237753  0.65043  0.019548  4.104327  0.018
C  C58  1  0.11253542  0.89537137  0.20161781  1  0.730983  0.008421  3.793762  0.009  0.675588  0.015271  4.099048  0.015  0.711108  0.011318  4.090918  0.011  1.601325  0.020394  0.237895  0.650641  0.019536  4.103938  0.018
C  C59  1  0.61250767  0.10463830  0.29837823  1  0.731059  0.008429  3.793736  0.009  0.675567  0.015278  4.099174  0.015  0.71109  0.011325  4.091039  0.011  1.600247  0.0204  0.23784  0.650615  0.019544  4.104067  0.018
C  C60  1  0.89799605  0.22942394  0.84302983  1  -0.196915  0.001089  3.632089  0.001  -0.257948  0.00187  3.878873  0.002  -0.26022  0.001249  3.884855  0.001  0.25901  0.003492  -0.053161  -0.256088  0.002496  3.87498  0.002
C  C61  1  0.39800106  0.77056073  0.65696864  1  -0.196921  0.001088  3.632127  0.001  -0.258009  0.00187  3.878864  0.002  -0.260275  0.00125  3.884824  0.001  0.258194  0.003492  -0.05312  -0.256147  0.002496  3.874986  0.002
C  C62  1  0.10200671  0.77056863  0.15696647  1  -0.19726  0.001105  3.632234  0.001  -0.258195  0.00187  3.878914  0.002  -0.26049  0.00125  3.88488  0.001  0.257801  0.003493  -0.053126  -0.256335  0.002496  3.875031  0.002
C  C63  1  0.60200738  0.22943578  0.34302953  1  -0.19706  0.001094  3.63192  0.001  -0.258125  0.00187  3.87881  0.002  -0.2604  0.001249  3.884769  0.001  0.259555  0.003492  -0.053199  -0.256262  0.002496  3.874922  0.002
C  C64  1  0.91711280  0.10309923  0.92759543  1  0.3042  4.4e-05  3.827729  0.0  0.257984  0.000153  4.132815  0.0  0.280871  9.5e-05  4.142762  0.0  0.693154  0.000279  0.225942  0.242863  0.000225  4.12542  0.0
C  C65  1  0.41711356  0.89691307  0.57240468  1  0.304382  5e-05  3.827384  0.0  0.258081  0.000152  4.132601  0.0  0.280969  9.7e-05  4.142548  0.0  0.693149  0.000279  0.226027  0.242965  0.000225  4.125201  0.0
C  C66  1  0.08288711  0.89690254  0.07240314  1  0.304186  4.7e-05  3.827362  0.0  0.257912  0.000152  4.132556  0.0  0.280775  9.7e-05  4.142525  0.0  0.693127  0.000279  0.225965  0.242799  0.000225  4.125154  0.0
C  C67  1  0.58288210  0.10309792  0.42759727  1  0.30427  4.6e-05  3.827455  0.0  0.257971  0.000152  4.132662  0.0  0.280853  9.6e-05  4.142618  0.0  0.693054  0.000279  0.225966  0.242855  0.000225  4.125258  0.0
S  S68  1  0.36365312  0.39951479  0.56591494  1  -0.398547  -3.6e-05  1.954963  0.0  -0.416215  6.8e-05  2.286021  0.0  -0.432211  -2.2e-05  2.281802  0.0  -0.068132  0.00053  -0.190027  -0.405173  0.000173  2.289137  0.0
S  S69  1  0.86366516  0.60049751  0.93408701  1  -0.398445  -3.7e-05  1.954894  0.0  -0.416177  6.7e-05  2.285898  0.0  -0.432163  -2.2e-05  2.281671  0.0  -0.068199  0.00053  -0.190059  -0.405131  0.000173  2.289008  0.0
S  S70  1  0.63632690  0.60049225  0.43409067  1  -0.398349  -3.5e-05  1.955106  0.0  -0.416088  6.7e-05  2.286089  0.0  -0.432063  -2.4e-05  2.281846  0.0  -0.068122  0.000531  -0.190048  -0.405062  0.000173  2.289225  0.0
S  S71  1  0.13634044  0.39951347  0.06591383  1  -0.398513  -3.3e-05  1.954998  0.0  -0.41626  6.5e-05  2.285986  0.0  -0.432245  -2e-05  2.28175  0.0  -0.068104  0.000531  -0.190097  -0.405218  0.000173  2.289096  0.0
S  S72  1  0.15237147  0.09799005  0.93469770  1  -0.393608  -2.2e-05  1.95802  0.0  -0.411257  7.8e-05  2.287156  0.0  -0.427336  -1.7e-05  2.28285  0.0  -0.0506  0.000523  -0.18674  -0.400218  0.000182  2.290349  0.0
S  S73  1  0.65237498  0.90202357  0.56530205  1  -0.393575  -2.4e-05  1.957831  0.0  -0.411189  7.9e-05  2.287006  0.0  -0.427264  -1.8e-05  2.282686  0.0  -0.050695  0.000523  -0.186734  -0.40015  0.000182  2.290199  0.0
S  S74  1  0.84762845  0.90201041  0.06530123  1  -0.393619  -2.6e-05  1.957941  0.0  -0.411218  7.9e-05  2.287074  0.0  -0.427291  -1.9e-05  2.282764  0.0  -0.050588  0.000523  -0.186744  -0.400178  0.000183  2.290264  0.0
S  S75  1  0.34762920  0.09798347  0.43469914  1  -0.393561  -2.5e-05  1.958052  0.0  -0.411171  7.8e-05  2.287239  0.0  -0.427244  -1.8e-05  2.282922  0.0  -0.050565  0.000523  -0.186693  -0.400131  0.000182  2.29043  0.0
N  N76  1  0.70280509  0.34490808  0.61194675  1  0.001584  -0.000164  3.514167  0.0  0.0843  6e-05  3.743264  0.0  0.069424  -3.7e-05  3.767111  0.0  -0.780237  0.000798  -0.124976  0.094026  0.000208  3.727143  0.0
N  N77  1  0.20281863  0.65512132  0.88805605  1  0.00191  -0.000166  3.514128  0.0  0.084899  6e-05  3.742775  0.0  0.070022  -3.8e-05  3.766623  0.0  -0.780315  0.000799  -0.124901  0.094628  0.000208  3.726639  0.0
N  N78  1  0.29718346  0.65510554  0.38805448  1  0.001683  -0.000169  3.514387  0.0  0.084543  6e-05  3.74327  0.0  0.069666  -3.9e-05  3.767123  0.0  -0.78024  0.000799  -0.124924  0.094269  0.000208  3.727141  0.0
N  N79  1  0.79718839  0.34489098  0.11194369  1  0.001806  -0.000172  3.51431  0.0  0.084612  6.2e-05  3.743189  0.0  0.069733  -4e-05  3.76704  0.0  -0.780225  0.000799  -0.124919  0.094344  0.000208  3.727055  0.0
N  N80  1  0.89231330  0.36451477  0.60386000  1  -0.081345  -3.4e-05  2.90225  0.0  -0.078327  0.000373  3.192388  0.0  -0.074473  0.000125  3.19713  0.0  -0.079356  0.001449  -0.049729  -0.081051  0.000687  3.190168  0.001
N  N81  1  0.39232826  0.63550805  0.89614387  1  -0.081808  -2.8e-05  2.902537  0.0  -0.078901  0.000372  3.192701  0.0  -0.075052  0.000127  3.197438  0.0  -0.079377  0.001449  -0.049885  -0.081618  0.000688  3.190472  0.001
N  N82  1  0.10767241  0.63549753  0.39614233  1  -0.08155  -3.1e-05  2.902333  0.0  -0.078576  0.000372  3.192455  0.0  -0.074725  0.000125  3.197195  0.0  -0.079415  0.00145  -0.049841  -0.081295  0.000688  3.190232  0.001
N  N83  1  0.60767876  0.36449635  0.10385620  1  -0.081742  -3.4e-05  2.902576  0.0  -0.078786  0.000372  3.19275  0.0  -0.074935  0.000127  3.197494  0.0  -0.079345  0.00145  -0.049888  -0.081503  0.000688  3.190518  0.001
N  N84  1  0.91413931  0.42690627  0.56046246  1  0.009685  0.000274  2.886959  0.0  0.000275  0.000462  3.180487  0.0  0.006806  0.000287  3.186234  0.0  -0.029969  0.00097  -0.056941  -0.00406  0.000753  3.177352  0.001
N  N85  1  0.41415285  0.57310734  0.93954097  1  0.009953  0.000272  2.88674  0.0  0.000544  0.000462  3.180274  0.0  0.00709  0.000288  3.186009  0.0  -0.03028  0.00097  -0.056939  -0.003775  0.000753  3.177147  0.001
N  N86  1  0.08584356  0.57310997  0.43954062  1  0.009882  0.000277  2.886812  0.0  0.000432  0.000462  3.180385  0.0  0.006974  0.00029  3.186127  0.0  -0.030198  0.00097  -0.05697  -0.003903  0.000753  3.177247  0.001
N  N87  1  0.58585275  0.42689838  0.06045947  1  0.009911  0.000277  2.886855  0.0  0.000525  0.000461  3.180372  0.0  0.007061  0.00029  3.186115  0.0  -0.030182  0.00097  -0.05691  -0.003788  0.000753  3.177248  0.001
N  N88  1  0.73986369  0.44700100  0.54057555  1  -0.24234  4e-05  3.426295  0.0  -0.181594  0.0001  3.669582  0.0  -0.199388  7.9e-05  3.680955  0.0  -0.800121  0.000244  -0.248242  -0.169731  0.000169  3.661722  0.0
N  N89  1  0.23987723  0.55301130  0.95942714  1  -0.24233  4e-05  3.426211  0.0  -0.181619  0.000101  3.669442  0.0  -0.199429  7.7e-05  3.680821  0.0  -0.800169  0.000244  -0.248176  -0.169806  0.000169  3.661626  0.0
N  N90  1  0.26011349  0.55301525  0.45942791  1  -0.242391  3.7e-05  3.426253  0.0  -0.18166  0.0001  3.66942  0.0  -0.199462  8e-05  3.680834  0.0  -0.799492  0.000244  -0.248107  -0.169795  0.000169  3.661566  0.0
N  N91  1  0.76012837  0.44699836  0.04057332  1  -0.242356  4e-05  3.426244  0.0  -0.18168  0.000103  3.669465  0.0  -0.199476  7.6e-05  3.680833  0.0  -0.800209  0.000244  -0.248256  -0.169883  0.000169  3.661672  0.0
N  N92  1  0.81762213  0.15833998  0.88722447  1  0.001526  -0.000169  3.518284  0.0  0.082264  6.5e-05  3.749501  0.0  0.067458  -3e-05  3.773305  0.0  -0.793841  0.000815  -0.125467  0.091938  0.000216  3.733392  0.0
N  N93  1  0.31762572  0.84166048  0.61277483  1  0.001345  -0.000168  3.51822  0.0  0.082111  6.7e-05  3.749475  0.0  0.067302  -3.5e-05  3.773279  0.0  -0.793732  0.000815  -0.125573  0.091786  0.000217  3.733366  0.0
N  N94  1  0.18238205  0.84165390  0.11277221  1  0.001609  -0.000172  3.518207  0.0  0.08236  6.5e-05  3.749422  0.0  0.067567  -3e-05  3.773228  0.0  -0.793686  0.000815  -0.125583  0.092032  0.000217  3.733313  0.0
N  N95  1  0.68237704  0.15834393  0.38722560  1  0.001457  -0.000166  3.517813  0.0  0.08223  6.5e-05  3.749063  0.0  0.067425  -3.2e-05  3.772868  0.0  -0.793673  0.000815  -0.125596  0.091906  0.000217  3.732951  0.0
N  N96  1  0.62727855  0.14136944  0.89434617  1  -0.081924  -4e-05  2.909068  0.0  -0.076682  0.000355  3.198387  0.0  -0.073133  0.000106  3.203238  0.0  -0.064008  0.001465  -0.048731  -0.079209  0.000677  3.196099  0.001
N  N97  1  0.12728214  0.85862839  0.60565275  1  -0.081898  -6.3e-05  2.909137  0.0  -0.076666  0.000356  3.198492  0.0  -0.073114  0.000102  3.203342  0.0  -0.063924  0.001465  -0.048753  -0.079196  0.000677  3.196207  0.001
N  N98  1  0.37272137  0.85862576  0.10565089  1  -0.082105  -4.8e-05  2.909198  0.0  -0.07689  0.000355  3.198567  0.0  -0.07334  0.000103  3.203422  0.0  -0.063891  0.001466  -0.048766  -0.079417  0.000677  3.196279  0.001
N  N99  1  0.87272203  0.14137339  0.39434840  1  -0.081978  -5.2e-05  2.908957  0.0  -0.076751  0.000356  3.198306  0.0  -0.073201  0.000103  3.203159  0.0  -0.063892  0.001465  -0.048741  -0.079279  0.000677  3.196017  0.001
N  N100  1  0.60115497  0.07890690  0.93757282  1  0.011922  0.000288  2.886213  0.0  0.002257  0.00049  3.178442  0.0  0.009078  0.000305  3.184033  0.0  -0.023769  0.00102  -0.056793  -0.002272  0.000792  3.175428  0.001
N  N101  1  0.10115572  0.92109750  0.56242724  1  0.011929  0.000304  2.886282  0.0  0.002269  0.000488  3.178498  0.0  0.009087  0.000309  3.184086  0.0  -0.023737  0.001019  -0.0568  -0.002255  0.000792  3.175483  0.001
N  N102  1  0.39884353  0.92109882  0.06242540  1  0.012027  0.00029  2.88612  0.0  0.002415  0.00049  3.178305  0.0  0.009215  0.000306  3.183907  0.0  -0.023869  0.00102  -0.056723  -0.002108  0.000792  3.175288  0.001
N  N103  1  0.89884420  0.07890559  0.43757429  1  0.011986  0.000293  2.886128  0.0  0.002324  0.000489  3.178347  0.0  0.009137  0.000307  3.183943  0.0  -0.023847  0.001019  -0.05676  -0.0022  0.000792  3.17533  0.001
N  N104  1  0.77345014  0.05603002  0.95828816  1  -0.240297  4.1e-05  3.42627  0.0  -0.179736  0.000108  3.670875  0.0  -0.197791  8.6e-05  3.682415  0.0  -0.825953  0.000256  -0.247087  -0.167755  0.000177  3.662927  0.0
N  N105  1  0.27345090  0.94398228  0.54171269  1  -0.240349  3.7e-05  3.426295  0.0  -0.179771  0.000107  3.670922  0.0  -0.197818  8.7e-05  3.682461  0.0  -0.826006  0.000256  -0.247076  -0.167798  0.000177  3.662975  0.0
N  N106  1  0.22654835  0.94397834  0.04171045  1  -0.240154  4.9e-05  3.426018  0.0  -0.179652  0.000106  3.670689  0.0  -0.197672  9e-05  3.682236  0.0  -0.826  0.000256  -0.247084  -0.167681  0.000177  3.662735  0.0
N  N107  1  0.72655044  0.05602607  0.45828961  1  -0.240284  4.3e-05  3.426202  0.0  -0.179692  0.000106  3.670796  0.0  -0.197737  9e-05  3.682343  0.0  -0.826135  0.000256  -0.247039  -0.167717  0.000177  3.662843  0.0
O  O108  1  0.73421078  0.53560535  0.69806670  1  -0.645459  0.034146  2.040282  0.022  -0.579582  0.042119  2.301337  0.026  -0.609025  0.037377  2.287903  0.022  -1.20667  0.06605  -0.302208  -0.558016  0.04681  2.309926  0.031
O  O109  1  0.23423853  0.46438327  0.80194286  1  -0.645609  0.034145  2.039772  0.022  -0.579771  0.042119  2.300833  0.026  -0.609216  0.037376  2.287392  0.022  -1.206443  0.06605  -0.302316  -0.558249  0.046809  2.309518  0.031
O  O110  1  0.26577493  0.46439379  0.30193739  1  -0.645616  0.034152  2.040263  0.022  -0.579716  0.042123  2.301251  0.026  -0.60916  0.03738  2.287812  0.022  -1.20635  0.066053  -0.302261  -0.558185  0.046815  2.309914  0.031
O  O111  1  0.76577702  0.53560667  0.19806376  1  -0.645713  0.034151  2.039896  0.022  -0.579832  0.042122  2.30095  0.026  -0.609266  0.037378  2.287505  0.022  -1.206568  0.066047  -0.302271  -0.558301  0.046814  2.309616  0.031
O  O112  1  0.55060126  0.34642084  0.73986745  1  -0.668947  0.028549  2.056227  0.016  -0.595705  0.036579  2.311942  0.02  -0.626574  0.032658  2.297515  0.017  -1.21248  0.056596  -0.302081  -0.57323  0.040339  2.321411  0.023
O  O113  1  0.05062474  0.65355331  0.76013649  1  -0.668878  0.028543  2.056696  0.016  -0.595751  0.036578  2.312439  0.02  -0.626636  0.03266  2.298028  0.017  -1.213239  0.056567  -0.302063  -0.573246  0.040337  2.321838  0.023
O  O114  1  0.44940292  0.65355068  0.26013389  1  -0.668961  0.028548  2.056202  0.016  -0.595872  0.036584  2.311961  0.02  -0.626761  0.032665  2.29755  0.017  -1.212897  0.056602  -0.302117  -0.573374  0.040344  2.321396  0.023
O  O115  1  0.94939648  0.34642215  0.23986303  1  -0.66897  0.028551  2.05645  0.016  -0.59568  0.036578  2.312125  0.02  -0.626548  0.032658  2.297704  0.017  -1.212631  0.056604  -0.302094  -0.573175  0.040338  2.321526  0.023
O  O116  1  0.79256690  0.96448348  0.80189938  1  -0.645674  0.034372  2.041367  0.023  -0.579434  0.04232  2.302156  0.027  -0.608899  0.037544  2.288862  0.023  -1.208474  0.066376  -0.30255  -0.557892  0.047042  2.31078  0.031
O  O117  1  0.29258044  0.03551699  0.69810139  1  -0.645725  0.034378  2.040813  0.023  -0.579511  0.042327  2.301522  0.027  -0.608996  0.037549  2.288249  0.023  -1.207831  0.066377  -0.302635  -0.557968  0.047052  2.310152  0.031
O  O118  1  0.20744864  0.03551041  0.19809877  1  -0.645615  0.034363  2.041095  0.023  -0.579449  0.042314  2.301974  0.027  -0.608913  0.037538  2.288672  0.023  -1.208146  0.066362  -0.302591  -0.557895  0.047036  2.310573  0.031
O  O119  1  0.70740527  0.96447164  0.30190190  1  -0.645757  0.034376  2.041001  0.023  -0.579484  0.042325  2.301784  0.027  -0.608977  0.037549  2.288529  0.023  -1.208106  0.066374  -0.30259  -0.557935  0.047049  2.310406  0.031
O  O120  1  0.97523025  0.15366490  0.75981006  1  -0.668581  0.02834  2.057467  0.016  -0.594959  0.036321  2.312937  0.02  -0.625944  0.032438  2.298704  0.017  -1.20864  0.056231  -0.301822  -0.572445  0.040048  2.322299  0.023
O  O121  1  0.47523384  0.84629610  0.74018753  1  -0.668271  0.028333  2.058198  0.016  -0.594611  0.03631  2.313533  0.02  -0.625672  0.032433  2.299365  0.017  -1.208912  0.056229  -0.301526  -0.572096  0.040037  2.322936  0.023
O  O122  1  0.02477393  0.84633293  0.24018812  1  -0.668535  0.028337  2.057444  0.016  -0.594941  0.036319  2.312941  0.02  -0.625944  0.032439  2.298715  0.017  -1.208416  0.056241  -0.301752  -0.572439  0.040048  2.322333  0.023
O  O123  1  0.52476465  0.15367673  0.25981087  1  -0.66854  0.028339  2.05779  0.016  -0.594812  0.036316  2.31323  0.02  -0.625832  0.032436  2.299027  0.017  -1.208796  0.056242  -0.30165  -0.572336  0.040045  2.322666  0.023
O  O124  1  0.86387116  0.91998595  0.69022910  1  -0.833446  0.029411  1.931951  0.017  -0.772069  0.038649  2.148189  0.023  -0.795221  0.034706  2.112974  0.02  -1.293278  0.057041  -0.564286  -0.754624  0.042262  2.172848  0.026
O  O125  1  0.36387333  0.08000793  0.80976795  1  -0.833466  0.029415  1.932067  0.017  -0.771994  0.038653  2.148449  0.023  -0.795144  0.03471  2.113227  0.02  -1.292998  0.05705  -0.564248  -0.754543  0.042264  2.17311  0.026
O  O126  1  0.13612166  0.08000398  0.30976793  1  -0.833452  0.029413  1.931942  0.017  -0.771948  0.038648  2.148319  0.023  -0.795104  0.034705  2.113105  0.02  -1.293017  0.057045  -0.564252  -0.754497  0.042261  2.172975  0.026
O  O127  1  0.63611948  0.91998727  0.19023058  1  -0.833272  0.029412  1.931941  0.017  -0.771855  0.03865  2.148316  0.023  -0.795007  0.034707  2.113102  0.02  -1.292924  0.057038  -0.564221  -0.754403  0.042262  2.172975  0.026
O  O128  1  0.66005663  0.57967009  0.80992480  1  -0.83542  0.029061  1.931095  0.017  -0.773788  0.038369  2.148161  0.023  -0.796783  0.034483  2.112952  0.02  -1.274612  0.056411  -0.56379  -0.756464  0.041928  2.172893  0.025
O  O129  1  0.16004175  0.42032774  0.69007780  1  -0.835384  0.029057  1.931051  0.017  -0.77385  0.038368  2.148122  0.023  -0.796839  0.034483  2.112912  0.02  -1.275066  0.056399  -0.563854  -0.756532  0.041925  2.172853  0.025
O  O130  1  0.33995749  0.42032642  0.19007558  1  -0.835485  0.029058  1.931003  0.017  -0.77385  0.038366  2.148063  0.023  -0.796845  0.03448  2.112857  0.02  -1.275073  0.056404  -0.563863  -0.756525  0.041925  2.172792  0.025
O  O131  1  0.83996100  0.57966614  0.30992256  1  -0.835411  0.029056  1.931029  0.017  -0.77381  0.038365  2.148187  0.023  -0.796802  0.03448  2.112979  0.02  -1.275054  0.056402  -0.563855  -0.756488  0.041924  2.172915  0.025
