# generated using pymatgen
data_AgH10C19SN2O4F3
_symmetry_space_group_name_H-M   'P 1'
_cell_length_a   8.93632560
_cell_length_b   10.34450850
_cell_length_c   10.79718056
_cell_angle_alpha   102.71043548
_cell_angle_beta   109.32127873
_cell_angle_gamma   99.48520194
_symmetry_Int_Tables_number   1
_chemical_formula_structural   AgH10C19SN2O4F3
_chemical_formula_sum   'Ag2 H20 C38 S2 N4 O8 F6'
_cell_volume   887.68455646
_cell_formula_units_Z   2
loop_
 _symmetry_equiv_pos_site_id
 _symmetry_equiv_pos_as_xyz
  1  'x, y, z'
loop_
 _atom_site_type_symbol
 _atom_site_label
 _atom_site_symmetry_multiplicity
 _atom_site_fract_x
 _atom_site_fract_y
 _atom_site_fract_z
 _atom_site_occupancy
 _atom_site_hle17_bader_spin_density
 _atom_site_hle17_ddec_charge
 _atom_site_hle17_ddec_spin_density
 _atom_site_hle17_ddec_sum_bond_order
 _atom_site_hle17_magmom
 _atom_site_hse06_10hf_bader_spin_density
 _atom_site_hse06_10hf_ddec_charge
 _atom_site_hse06_10hf_ddec_spin_density
 _atom_site_hse06_10hf_ddec_sum_bond_order
 _atom_site_hse06_10hf_magmom
 _atom_site_hse06_bader_spin_density
 _atom_site_hse06_ddec_charge
 _atom_site_hse06_ddec_spin_density
 _atom_site_hse06_ddec_sum_bond_order
 _atom_site_hse06_magmom
 _atom_site_pbe_bader_spin_density
 _atom_site_pbe_cm5_charge
 _atom_site_pbe_ddec_charge
 _atom_site_pbe_ddec_spin_density
 _atom_site_pbe_ddec_sum_bond_order
 _atom_site_pbe_magmom
Ag  Ag0  1  0.65424935  0.57523116  0.96287167  1  0  0.602431  0  1.429966  0  0  0.492898  0  1.874097  0  0  0.512187  0  1.83089  0  0  0.507098  0.479347  0  1.904129  0
Ag  Ag1  1  0.34575464  0.42476323  0.03713001  1  0  0.602475  0  1.429912  0  0  0.492944  0  1.87403  0  0  0.512235  0  1.830825  0  0  0.507096  0.479392  0  1.904063  0
H  H2  1  0.74664554  0.44459283  0.73647101  1  0  0.115522  0  0.963626  0  0  0.123926  0  1.029089  0  0  0.127674  0  1.025698  0  0  0.107194  0.121223  0  1.031231  0
H  H3  1  0.25335366  0.55540874  0.26352340  1  0  0.115491  0  0.963633  0  0  0.123846  0  1.029151  0  0  0.127625  0  1.025723  0  0  0.107167  0.121143  0  1.031294  0
H  H4  1  0.89956038  0.45985734  0.58702306  1  0  0.110521  0  0.964137  0  0  0.122147  0  1.019452  0  0  0.125315  0  1.01817  0  0  0.10368  0.119894  0  1.020487  0
H  H5  1  0.10043968  0.54014319  0.41297137  1  0  0.110486  0  0.964104  0  0  0.122107  0  1.019439  0  0  0.125277  0  1.018151  0  0  0.103661  0.11985  0  1.020473  0
H  H6  1  0.75522907  0.37509466  0.33058740  1  0  0.112046  0  0.957639  0  0  0.120219  0  1.022564  0  0  0.123929  0  1.01951  0  0  0.101975  0.117524  0  1.024645  0
H  H7  1  0.24476915  0.62490385  0.66940704  1  0  0.111972  0  0.957799  0  0  0.120192  0  1.022674  0  0  0.123934  0  1.019575  0  0  0.101963  0.117498  0  1.024754  0
H  H8  1  0.30734498  0.13745283  0.96675093  1  0  0.230294  0  0.946125  0  0  0.228375  0  1.004825  0  0  0.234708  0  1.000403  0  0  0.133068  0.223803  0  1.008132  0
H  H9  1  0.69264922  0.86254063  0.03324879  1  0  0.230261  0  0.94616  0  0  0.228313  0  1.004901  0  0  0.234639  0  1.000485  0  0  0.133028  0.223746  0  1.008208  0
H  H10  1  0.29525849  0.26436894  0.37773505  1  0  0.1158  0  0.962101  0  0  0.119576  0  1.03233  0  0  0.123723  0  1.028651  0  0  0.105045  0.116922  0  1.034584  0
H  H11  1  0.70474019  0.73563473  0.62226427  1  0  0.115778  0  0.962073  0  0  0.119536  0  1.032346  0  0  0.12368  0  1.028665  0  0  0.105035  0.116882  0  1.034599  0
H  H12  1  0.96852870  0.15297623  0.44060540  1  0  0.112395  0  0.9657  0  0  0.116385  0  1.036069  0  0  0.120745  0  1.032169  0  0  0.10177  0.113486  0  1.038565  0
H  H13  1  0.03146900  0.84702439  0.55939489  1  0  0.112419  0  0.965729  0  0  0.116422  0  1.036071  0  0  0.120782  0  1.032176  0  0  0.101779  0.113521  0  1.038569  0
H  H14  1  0.46580805  0.86924677  0.13752194  1  0  0.232455  0  0.947543  0  0  0.235168  0  1.000786  0  0  0.241052  0  0.996369  0  0  0.134116  0.231068  0  1.003852  0
H  H15  1  0.53419168  0.13075282  0.86248147  1  0  0.23242  0  0.94757  0  0  0.235132  0  1.000821  0  0  0.241016  0  0.996403  0  0  0.134098  0.231028  0  1.003897  0
H  H16  1  0.60110548  0.96755967  0.57012040  1  0  0.094063  0  0.974485  0  0  0.102968  0  1.040563  0  0  0.105277  0  1.040327  0  0  0.100574  0.101387  0  1.040589  0
H  H17  1  0.39889741  0.03244604  0.42988328  1  0  0.094049  0  0.97449  0  0  0.102961  0  1.040559  0  0  0.105266  0  1.040328  0  0  0.100573  0.101378  0  1.040587  0
H  H18  1  0.78382855  0.08140336  0.81261198  1  0  0.09586  0  0.96921  0  0  0.104211  0  1.031968  0  0  0.106821  0  1.031117  0  0  0.098258  0.102492  0  1.032455  0
H  H19  1  0.21617434  0.91860235  0.18739169  1  0  0.09581  0  0.969265  0  0  0.104165  0  1.032015  0  0  0.106779  0  1.031156  0  0  0.098246  0.102439  0  1.032508  0
H  H20  1  0.05742221  0.23271319  0.87292594  1  0  0.094185  0  0.993942  0  0  0.101088  0  1.066535  0  0  0.104703  0  1.063152  0  0  0.097423  0.098476  0  1.069005  0
H  H21  1  0.94258153  0.76729149  0.12707776  1  0  0.094135  0  0.994062  0  0  0.101063  0  1.06662  0  0  0.104682  0  1.063233  0  0  0.097429  0.09845  0  1.069092  0
C  C22  1  0.68083707  0.40914818  0.62542432  1  0  -0.046383  0  3.643834  0  0  -0.073234  0  3.891834  0  0  -0.071094  0  3.910625  0  0  -0.06822  -0.072929  0  3.877525  0
C  C23  1  0.31916180  0.59085237  0.37457072  1  0  -0.046327  0  3.643672  0  0  -0.073135  0  3.891636  0  0  -0.07101  0  3.910407  0  0  -0.068211  -0.072832  0  3.87733  0
C  C24  1  0.76730632  0.41646075  0.53969775  1  0  -0.063739  0  3.736225  0  0  -0.078381  0  3.993523  0  0  -0.083177  0  4.015209  0  0  -0.087772  -0.075476  0  3.978037  0
C  C25  1  0.23269473  0.58354291  0.46030315  1  0  -0.063597  0  3.736112  0  0  -0.078242  0  3.993405  0  0  -0.083038  0  4.015103  0  0  -0.087704  -0.075334  0  3.977919  0
C  C26  1  0.68730008  0.36835141  0.39731886  1  0  -0.074802  0  3.656748  0  0  -0.10327  0  3.90904  0  0  -0.102255  0  3.926982  0  0  -0.074902  -0.102464  0  3.896419  0
C  C27  1  0.31270083  0.63164811  0.60267838  1  0  -0.074776  0  3.657066  0  0  -0.10331  0  3.909329  0  0  -0.102318  0  3.927262  0  0  -0.074913  -0.102503  0  3.896702  0
C  C28  1  0.51615642  0.31022845  0.33823628  1  0  0.079799  0  3.899875  0  0  0.096966  0  4.130139  0  0  0.094794  0  4.154317  0  0  -0.003487  0.098113  0  4.114712  0
C  C29  1  0.48384127  0.68977217  0.66176493  1  0  0.079865  0  3.900032  0  0  0.097081  0  4.130217  0  0  0.094905  0  4.154404  0  0  -0.003427  0.098228  0  4.11479  0
C  C30  1  0.43298438  0.25509992  0.19369306  1  0  0.049017  0  3.826607  0  0  0.056979  0  4.063254  0  0  0.059328  0  4.090751  0  0  -0.023482  0.054836  0  4.045785  0
C  C31  1  0.56700812  0.74489555  0.80629826  1  0  0.049035  0  3.826261  0  0  0.05698  0  4.062897  0  0  0.05933  0  4.090391  0  0  -0.023424  0.054837  0  4.045428  0
C  C32  1  0.36235129  0.20758507  0.06870334  1  0  -0.33623  0  3.619079  0  0  -0.341764  0  3.878698  0  0  -0.348531  0  3.891905  0  0  -0.162228  -0.337854  0  3.870878  0
C  C33  1  0.63764292  0.79240841  0.93129916  1  0  -0.336282  0  3.618558  0  0  -0.341787  0  3.878236  0  0  -0.348543  0  3.89144  0  0  -0.162293  -0.337882  0  3.870417  0
C  C34  1  0.42760205  0.30583368  0.42380619  1  0  -0.10575  0  3.655478  0  0  -0.13793  0  3.903707  0  0  -0.137252  0  3.921835  0  0  -0.07202  -0.139717  0  3.892488  0
C  C35  1  0.57239512  0.69416898  0.57619251  1  0  -0.105662  0  3.655309  0  0  -0.137877  0  3.903552  0  0  -0.137189  0  3.921671  0  0  -0.072003  -0.139669  0  3.892342  0
C  C36  1  0.50948673  0.35544195  0.56701467  1  0  -0.031478  0  3.825146  0  0  -0.011785  0  4.064096  0  0  -0.018321  0  4.088481  0  0  -0.008771  -0.007788  0  4.048362  0
C  C37  1  0.49051162  0.64456068  0.43298250  1  0  -0.031683  0  3.825147  0  0  -0.011945  0  4.064021  0  0  -0.018512  0  4.088465  0  0  -0.008826  -0.007948  0  4.048288  0
C  C38  1  0.41392308  0.34883960  0.65203807  1  0  0.383304  0  3.680905  0  0  0.344283  0  3.957518  0  0  0.363089  0  3.967389  0  0  0.237943  0.331032  0  3.952  0
C  C39  1  0.58607764  0.65116301  0.34795974  1  0  0.383433  0  3.680859  0  0  0.344383  0  3.957443  0  0  0.363195  0  3.967302  0  0  0.238  0.331131  0  3.951931  0
C  C40  1  0.19763861  0.28008967  0.69383811  1  0  0.396685  0  3.666355  0  0  0.360218  0  3.936077  0  0  0.379894  0  3.944598  0  0  0.241833  0.347129  0  3.930221  0
C  C41  1  0.80236276  0.71991500  0.30616123  1  0  0.396664  0  3.666252  0  0  0.360192  0  3.935937  0  0  0.379865  0  3.944462  0  0  0.241891  0.34717  0  3.929994  0
C  C42  1  0.03258779  0.20056626  0.66054893  1  0  -0.025933  0  3.816744  0  0  -0.007631  0  4.054199  0  0  -0.01333  0  4.078088  0  0  -0.008836  -0.004056  0  4.037839  0
C  C43  1  0.96741378  0.79943533  0.33945076  1  0  -0.025955  0  3.816797  0  0  -0.007676  0  4.054271  0  0  -0.013375  0  4.078164  0  0  -0.008892  -0.004125  0  4.0379  0
C  C44  1  0.92826555  0.13798926  0.52218690  1  0  -0.112299  0  3.65481  0  0  -0.14425  0  3.904378  0  0  -0.144761  0  3.923046  0  0  -0.07483  -0.143509  0  3.891538  0
C  C45  1  0.07173247  0.86201237  0.47781368  1  0  -0.112341  0  3.654886  0  0  -0.144281  0  3.904467  0  0  -0.144798  0  3.923141  0  0  -0.074848  -0.143539  0  3.89163  0
C  C46  1  0.77101878  0.05518817  0.48854053  1  0  0.102466  0  3.893053  0  0  0.116656  0  4.123398  0  0  0.116711  0  4.146011  0  0  -0.00165  0.11628  0  4.108457  0
C  C47  1  0.22897839  0.94481451  0.51146095  1  0  0.102494  0  3.893081  0  0  0.116629  0  4.123508  0  0  0.116687  0  4.146117  0  0  -0.001583  0.116254  0  4.108567  0
C  C48  1  0.66057526  0.98998642  0.34996311  1  0  -0.021158  0  3.910286  0  0  -0.013264  0  4.16032  0  0  -0.014306  0  4.190709  0  0  -0.047958  -0.012678  0  4.140351  0
C  C49  1  0.33942191  0.01001626  0.65003837  1  0  -0.021268  0  3.910224  0  0  -0.013365  0  4.160294  0  0  -0.014407  0  4.190684  0  0  -0.047996  -0.012777  0  4.140323  0
C  C50  1  0.55841562  0.92845569  0.23585610  1  0  -0.272471  0  3.498745  0  0  -0.28838  0  3.725798  0  0  -0.294801  0  3.747323  0  0  -0.131995  -0.283695  0  3.711453  0
C  C51  1  0.44158240  0.07154596  0.76414634  1  0  -0.27237  0  3.498593  0  0  -0.288278  0  3.725653  0  0  -0.294699  0  3.74718  0  0  -0.131971  -0.283595  0  3.711306  0
C  C52  1  0.72138912  0.03402407  0.59514120  1  0  -0.085696  0  3.680166  0  0  -0.109458  0  3.925786  0  0  -0.109566  0  3.944912  0  0  -0.075168  -0.108717  0  3.912216  0
C  C53  1  0.27860956  0.96597961  0.40485905  1  0  -0.085656  0  3.67998  0  0  -0.109415  0  3.925643  0  0  -0.109521  0  3.944769  0  0  -0.075182  -0.108674  0  3.912071  0
C  C54  1  0.82476382  0.09736986  0.73169554  1  0  -0.048904  0  3.754019  0  0  -0.061036  0  4.003156  0  0  -0.064627  0  4.024771  0  0  -0.084713  -0.058769  0  3.988179  0
C  C55  1  0.17523539  0.90263176  0.26830444  1  0  -0.048816  0  3.753911  0  0  -0.060948  0  4.003052  0  0  -0.064536  0  4.024659  0  0  -0.084679  -0.058673  0  3.988078  0
C  C56  1  0.97957499  0.18150498  0.76554155  1  0  -0.052365  0  3.67108  0  0  -0.075312  0  3.912482  0  0  -0.075128  0  3.932779  0  0  -0.074031  -0.075011  0  3.898513  0
C  C57  1  0.02042691  0.81849765  0.23446030  1  0  -0.052304  0  3.671238  0  0  -0.075276  0  3.912645  0  0  -0.07509  0  3.93294  0  0  -0.074023  -0.074976  0  3.898678  0
C  C58  1  0.89956203  0.19650391  0.13601244  1  0  0.581225  0  3.668523  0  0  0.514148  0  4.033307  0  0  0.543168  0  4.00388  0  0  0.284308  0.493643  0  4.053823  0
C  C59  1  0.10044026  0.80349257  0.86399105  1  0  0.58105  0  3.66877  0  0  0.514011  0  4.033499  0  0  0.543039  0  4.004072  0  0  0.284253  0.493514  0  4.054009  0
S  S60  1  0.91104439  0.35872911  0.08631127  1  0  1.136327  0  5.831312  0  0  1.03739  0  6.363461  0  0  1.081622  0  6.342457  0  0  0.48824  1.006931  0  6.377284  0
S  S61  1  0.08895639  0.64126635  0.91369066  1  0  1.13632  0  5.831283  0  0  1.037368  0  6.363452  0  0  1.081604  0  6.342433  0  0  0.488179  1.00691  0  6.377268  0
N  N62  1  0.45244085  0.40101775  0.78456922  1  0  -0.279461  0  3.11616  0  0  -0.228843  0  3.4157  0  0  -0.242685  0  3.426909  0  0  -0.236965  -0.219904  0  3.408807  0
N  N63  1  0.54756394  0.59898277  0.21542928  1  0  -0.279615  0  3.116306  0  0  -0.229063  0  3.415934  0  0  -0.242904  0  3.427138  0  0  -0.23711  -0.220125  0  3.409048  0
N  N64  1  0.31387732  0.35672410  0.81133395  1  0  -0.287059  0  3.137343  0  0  -0.233975  0  3.43785  0  0  -0.249247  0  3.44907  0  0  -0.239776  -0.223577  0  3.430141  0
N  N65  1  0.68612595  0.64327540  0.18866394  1  0  -0.286912  0  3.137226  0  0  -0.233843  0  3.437757  0  0  -0.249116  0  3.448978  0  0  -0.239729  -0.223469  0  3.43003  0
O  O66  1  0.25379523  0.27400415  0.59000853  1  0  -0.25898  0  2.349508  0  0  -0.179911  0  2.565127  0  0  -0.199963  0  2.56923  0  0  -0.084213  -0.166439  0  2.562452  0
O  O67  1  0.74620463  0.72599951  0.40999112  1  0  -0.259043  0  2.349478  0  0  -0.179839  0  2.564979  0  0  -0.199885  0  2.569074  0  0  -0.084193  -0.166388  0  2.562286  0
O  O68  1  0.76604207  0.32321079  0.95984147  1  0  -0.610108  0  2.000925  0  0  -0.577822  0  2.266098  0  0  -0.596618  0  2.253377  0  0  -0.335109  -0.564584  0  2.274395  0
O  O69  1  0.23395687  0.67678264  0.04016139  1  0  -0.610116  0  2.000908  0  0  -0.577829  0  2.266069  0  0  -0.596628  0  2.253345  0  0  -0.335123  -0.564594  0  2.274367  0
O  O70  1  0.06855027  0.38150815  0.07031357  1  0  -0.628733  0  2.086779  0  0  -0.583293  0  2.36532  0  0  -0.603332  0  2.350046  0  0  -0.341079  -0.569066  0  2.375316  0
O  O71  1  0.93144847  0.61848836  0.92968801  1  0  -0.628666  0  2.086782  0  0  -0.583256  0  2.365369  0  0  -0.603306  0  2.35011  0  0  -0.341051  -0.569028  0  2.375359  0
O  O72  1  0.90534128  0.45530655  0.20411669  1  0  -0.604509  0  2.0225  0  0  -0.572809  0  2.278305  0  0  -0.591508  0  2.266881  0  0  -0.332536  -0.559595  0  2.285485  0
O  O73  1  0.09465444  0.54468792  0.79588365  1  0  -0.604502  0  2.022442  0  0  -0.572777  0  2.278201  0  0  -0.591477  0  2.266779  0  0  -0.332501  -0.559589  0  2.285434  0
F  F74  1  0.01431186  0.21799536  0.26428289  1  0  -0.237735  0  1.218103  0  0  -0.19329  0  1.387924  0  0  -0.204601  0  1.373478  0  0  -0.089733  -0.185493  0  1.397885  0
F  F75  1  0.98569246  0.78200003  0.73571630  1  0  -0.237726  0  1.218111  0  0  -0.193309  0  1.387922  0  0  -0.204603  0  1.373474  0  0  -0.089783  -0.18551  0  1.397882  0
F  F76  1  0.92674953  0.09561250  0.04831534  1  0  -0.228892  0  1.229341  0  0  -0.18398  0  1.396874  0  0  -0.194993  0  1.38288  0  0  -0.089952  -0.176033  0  1.406283  0
F  F77  1  0.07325210  0.90438191  0.95168476  1  0  -0.228869  0  1.229459  0  0  -0.18392  0  1.396939  0  0  -0.194987  0  1.383  0  0  -0.089886  -0.175971  0  1.406346  0
F  F78  1  0.74970213  0.14832508  0.13833419  1  0  -0.231742  0  1.216252  0  0  -0.19401  0  1.390334  0  0  -0.204667  0  1.376839  0  0  -0.093094  -0.186243  0  1.399478  0
F  F79  1  0.25030167  0.85167243  0.86167177  1  0  -0.231636  0  1.216315  0  0  -0.19393  0  1.39039  0  0  -0.204575  0  1.376896  0  0  -0.093049  -0.186161  0  1.399531  0
