# generated using pymatgen
data_YH12(CO)9
_symmetry_space_group_name_H-M   'P 1'
_cell_length_a   8.97516373
_cell_length_b   9.53402116
_cell_length_c   9.44095475
_cell_angle_alpha   74.95459036
_cell_angle_beta   64.87429897
_cell_angle_gamma   89.58310706
_symmetry_Int_Tables_number   1
_chemical_formula_structural   YH12(CO)9
_chemical_formula_sum   'Y2 H24 C18 O18'
_cell_volume   701.43050898
_cell_formula_units_Z   2
loop_
 _symmetry_equiv_pos_site_id
 _symmetry_equiv_pos_as_xyz
  1  'x, y, z'
loop_
 _atom_site_type_symbol
 _atom_site_label
 _atom_site_symmetry_multiplicity
 _atom_site_fract_x
 _atom_site_fract_y
 _atom_site_fract_z
 _atom_site_occupancy
 _atom_site_hle17_bader_spin_density
 _atom_site_hle17_ddec_charge
 _atom_site_hle17_ddec_spin_density
 _atom_site_hle17_ddec_sum_bond_order
 _atom_site_hle17_magmom
 _atom_site_hse06_10hf_bader_spin_density
 _atom_site_hse06_10hf_ddec_charge
 _atom_site_hse06_10hf_ddec_spin_density
 _atom_site_hse06_10hf_ddec_sum_bond_order
 _atom_site_hse06_10hf_magmom
 _atom_site_hse06_bader_spin_density
 _atom_site_hse06_ddec_charge
 _atom_site_hse06_ddec_spin_density
 _atom_site_hse06_ddec_sum_bond_order
 _atom_site_hse06_magmom
 _atom_site_pbe_bader_spin_density
 _atom_site_pbe_cm5_charge
 _atom_site_pbe_ddec_charge
 _atom_site_pbe_ddec_spin_density
 _atom_site_pbe_ddec_sum_bond_order
 _atom_site_pbe_magmom
Y  Y0  1  0.55848036  0.61719147  0.13655789  1  0  2.035225  0  1.816954  0  0  1.84529  0  2.292703  0  0  1.918476  0  2.226532  0  0  1.252078  1.792928  0  2.337883  0
Y  Y1  1  0.44152083  0.38280819  0.86343677  1  0  2.035141  0  1.817023  0  0  1.845211  0  2.292765  0  0  1.918401  0  2.22659  0  0  1.252073  1.792967  0  2.33772  0
H  H2  1  0.36886105  0.18040367  0.61478034  1  0  0.131703  0  0.949874  0  0  0.139548  0  1.011458  0  0  0.143866  0  1.009314  0  0  0.115217  0.136698  0  1.012815  0
H  H3  1  0.63113538  0.81959702  0.38521919  1  0  0.131643  0  0.949947  0  0  0.139549  0  1.01147  0  0  0.143866  0  1.009328  0  0  0.115204  0.1367  0  1.012825  0
H  H4  1  0.60095370  0.08264442  0.31502003  1  0  0.101981  0  0.924033  0  0  0.115032  0  0.978277  0  0  0.118638  0  0.975405  0  0  0.114363  0.112317  0  0.980399  0
H  H5  1  0.39904236  0.91735299  0.68498157  1  0  0.10197  0  0.924023  0  0  0.115005  0  0.978282  0  0  0.118608  0  0.975411  0  0  0.114363  0.112291  0  0.980401  0
H  H6  1  0.93908290  0.37055968  0.34904629  1  0  0.112045  0  0.957051  0  0  0.121548  0  1.017994  0  0  0.125637  0  1.01612  0  0  0.107494  0.118508  0  1.01971  0
H  H7  1  0.06092426  0.62943897  0.65094088  1  0  0.112085  0  0.956997  0  0  0.121594  0  1.017953  0  0  0.125685  0  1.016075  0  0  0.107519  0.118553  0  1.019672  0
H  H8  1  0.18650996  0.55934374  0.39212421  1  0  0.097985  0  0.997547  0  0  0.106199  0  1.061274  0  0  0.109374  0  1.059262  0  0  0.112701  0.103968  0  1.062651  0
H  H9  1  0.81349221  0.44065375  0.60787061  1  0  0.097941  0  0.997629  0  0  0.106166  0  1.061366  0  0  0.109341  0  1.059353  0  0  0.112677  0.103932  0  1.06275  0
H  H10  1  0.20949655  0.86372176  0.51997552  1  0  0.107587  0  0.961657  0  0  0.117264  0  1.023136  0  0  0.120316  0  1.023043  0  0  0.102535  0.115057  0  1.023504  0
H  H11  1  0.79050400  0.13627132  0.48003276  1  0  0.107619  0  0.961599  0  0  0.117274  0  1.023103  0  0  0.120326  0  1.023005  0  0  0.10255  0.115066  0  1.023471  0
H  H12  1  0.02401345  0.01403763  0.32241983  1  0  0.094886  0  0.926567  0  0  0.107655  0  0.981004  0  0  0.11108  0  0.978439  0  0  0.109739  0.10508  0  0.982891  0
H  H13  1  0.97599692  0.98597521  0.67758670  1  0  0.094825  0  0.926529  0  0  0.107629  0  0.980933  0  0  0.111053  0  0.97837  0  0  0.109703  0.105051  0  0.982824  0
H  H14  1  0.40973292  0.83591995  0.00518215  1  0  0.419343  0  0.891053  0  0  0.387327  0  0.955829  0  0  0.39965  0  0.938135  0  0  0.292833  0.37865  0  0.968271  0
H  H15  1  0.59026571  0.16407859  0.99481704  1  0  0.419356  0  0.891039  0  0  0.387327  0  0.955838  0  0  0.399652  0  0.938143  0  0  0.292818  0.378649  0  0.968283  0
H  H16  1  0.45739360  0.73543859  0.88195820  1  0  0.42911  0  0.877741  0  0  0.399097  0  0.939992  0  0  0.409995  0  0.924265  0  0  0.299031  0.391424  0  0.951018  0
H  H17  1  0.54260159  0.26456209  0.11804079  1  0  0.429114  0  0.877737  0  0  0.399073  0  0.940006  0  0  0.40997  0  0.92428  0  0  0.299034  0.391399  0  0.951032  0
H  H18  1  0.72463927  0.93678791  0.98380915  1  0  0.445439  0  0.850883  0  0  0.410837  0  0.919302  0  0  0.422717  0  0.901981  0  0  0.299834  0.402429  0  0.931523  0
H  H19  1  0.27536090  0.06321282  0.01619307  1  0  0.445416  0  0.850911  0  0  0.4108  0  0.919349  0  0  0.422682  0  0.902027  0  0  0.299801  0.402392  0  0.93157  0
H  H20  1  0.82188907  0.82889339  0.06387102  1  0  0.429403  0  0.818953  0  0  0.412449  0  0.871627  0  0  0.421487  0  0.861134  0  0  0.325844  0.405975  0  0.879221  0
H  H21  1  0.17810975  0.17110623  0.93613310  1  0  0.429413  0  0.818928  0  0  0.41246  0  0.871599  0  0  0.421498  0  0.861106  0  0  0.325849  0.405985  0  0.879197  0
H  H22  1  0.69119667  0.58041918  0.39034110  1  0  0.436972  0  0.865599  0  0  0.402544  0  0.933841  0  0  0.414653  0  0.916465  0  0  0.29788  0.394058  0  0.945923  0
H  H23  1  0.30880048  0.41957716  0.60966032  1  0  0.43698  0  0.865581  0  0  0.402534  0  0.933856  0  0  0.414645  0  0.916476  0  0  0.297882  0.394047  0  0.945939  0
H  H24  1  0.83046406  0.54094805  0.23470178  1  0  0.429167  0  0.83  0  0  0.407679  0  0.892005  0  0  0.416168  0  0.881012  0  0  0.321609  0.401001  0  0.899963  0
H  H25  1  0.16953692  0.45904942  0.76529778  1  0  0.429154  0  0.83005  0  0  0.407655  0  0.89208  0  0  0.416146  0  0.881059  0  0  0.3216  0.400974  0  0.900041  0
C  C26  1  0.48855069  0.33500824  0.36985710  1  0  0.684773  0  3.881957  0  0  0.637534  0  4.168899  0  0  0.673536  0  4.160365  0  0  0.209295  0.614187  0  4.172819  0
C  C27  1  0.51144435  0.66499135  0.63014118  1  0  0.684524  0  3.882023  0  0  0.637359  0  4.168886  0  0  0.673361  0  4.160356  0  0  0.209328  0.61401  0  4.172815  0
C  C28  1  0.45149675  0.18964543  0.48752271  1  0  -0.209836  0  3.607873  0  0  -0.228004  0  3.865452  0  0  -0.238013  0  3.880345  0  0  -0.081504  -0.2217  0  3.855182  0
C  C29  1  0.54849610  0.81035632  0.51247697  1  0  -0.209741  0  3.60787  0  0  -0.227985  0  3.86543  0  0  -0.237996  0  3.880327  0  0  -0.081529  -0.22168  0  3.855159  0
C  C30  1  0.51744164  0.07117840  0.44286745  1  0  0.003656  0  3.733624  0  0  -0.018035  0  3.993087  0  0  -0.015627  0  4.011162  0  0  -0.064202  -0.019175  0  3.980129  0
C  C31  1  0.48255576  0.92882012  0.55713224  1  0  0.003647  0  3.733635  0  0  -0.01804  0  3.993143  0  0  -0.015629  0  4.011217  0  0  -0.064228  -0.019178  0  3.980185  0
C  C32  1  0.19469795  0.43228335  0.16436073  1  0  0.718143  0  3.88239  0  0  0.677012  0  4.16023  0  0  0.714214  0  4.150649  0  0  0.215789  0.651761  0  4.166115  0
C  C33  1  0.80531331  0.56771862  0.83562494  1  0  0.717921  0  3.882967  0  0  0.676775  0  4.160836  0  0  0.713976  0  4.151258  0  0  0.215725  0.651528  0  4.166707  0
C  C34  1  0.05521262  0.43250858  0.31986891  1  0  -0.233942  0  3.647022  0  0  -0.247471  0  3.898983  0  0  -0.259724  0  3.914951  0  0  -0.087953  -0.239326  0  3.888107  0
C  C35  1  0.94479822  0.56748900  0.68012655  1  0  -0.233901  0  3.64709  0  0  -0.247423  0  3.899072  0  0  -0.259677  0  3.915038  0  0  -0.087951  -0.239278  0  3.888198  0
C  C36  1  0.06800404  0.50052812  0.42392160  1  0  0.011993  0  3.723694  0  0  -0.010008  0  3.977389  0  0  -0.006292  0  3.994414  0  0  -0.066493  -0.012153  0  3.965042  0
C  C37  1  0.93199897  0.49946610  0.57607372  1  0  0.011925  0  3.723638  0  0  -0.010152  0  3.977402  0  0  -0.006432  0  3.994424  0  0  -0.066524  -0.012301  0  3.96506  0
C  C38  1  0.28093299  0.84967366  0.27241401  1  0  0.722061  0  3.858728  0  0  0.672966  0  4.151463  0  0  0.70943  0  4.141535  0  0  0.224464  0.64846  0  4.157089  0
C  C39  1  0.71906436  0.15032375  0.72759235  1  0  0.722011  0  3.85906  0  0  0.672937  0  4.151762  0  0  0.7094  0  4.141831  0  0  0.224439  0.648431  0  4.157389  0
C  C40  1  0.17959201  0.90009253  0.41660332  1  0  -0.22359  0  3.649389  0  0  -0.242457  0  3.91132  0  0  -0.254104  0  3.930467  0  0  -0.088188  -0.235067  0  3.898102  0
C  C41  1  0.82040973  0.09991039  0.58340298  1  0  -0.223662  0  3.649358  0  0  -0.242514  0  3.911259  0  0  -0.254158  0  3.930401  0  0  -0.088191  -0.235122  0  3.898039  0
C  C42  1  0.05177630  0.97957492  0.42765749  1  0  -0.002434  0  3.755076  0  0  -0.021342  0  4.007525  0  0  -0.019298  0  4.027461  0  0  -0.07057  -0.022128  0  3.992781  0
C  C43  1  0.94822996  0.02043460  0.57234947  1  0  -0.002408  0  3.754903  0  0  -0.021302  0  4.007305  0  0  -0.019259  0  4.02724  0  0  -0.070623  -0.02209  0  3.992562  0
O  O44  1  0.59504948  0.35823573  0.22032825  1  0  -0.690435  0  2.011512  0  0  -0.627794  0  2.233091  0  0  -0.655618  0  2.222525  0  0  -0.347511  -0.607322  0  2.238884  0
O  O45  1  0.40494446  0.64176494  0.77967020  1  0  -0.690302  0  2.011562  0  0  -0.627704  0  2.233116  0  0  -0.655531  0  2.222551  0  0  -0.347502  -0.607245  0  2.238905  0
O  O46  1  0.41405660  0.44180200  0.41662226  1  0  -0.666245  0  2.034567  0  0  -0.597173  0  2.257327  0  0  -0.626473  0  2.248726  0  0  -0.323386  -0.57789  0  2.262291  0
O  O47  1  0.58593461  0.55819646  0.58337683  1  0  -0.666105  0  2.034568  0  0  -0.597089  0  2.257321  0  0  -0.626377  0  2.248707  0  0  -0.323396  -0.57782  0  2.262282  0
O  O48  1  0.34232932  0.48718770  0.12435875  1  0  -0.750108  0  2.076908  0  0  -0.678673  0  2.320306  0  0  -0.711892  0  2.312408  0  0  -0.372474  -0.655912  0  2.324997  0
O  O49  1  0.65768416  0.51281100  0.87563956  1  0  -0.750013  0  2.077233  0  0  -0.678534  0  2.320548  0  0  -0.711758  0  2.312664  0  0  -0.372466  -0.655782  0  2.325233  0
O  O50  1  0.16681863  0.37362706  0.06951067  1  0  -0.675228  0  1.906681  0  0  -0.62099  0  2.129771  0  0  -0.64803  0  2.117401  0  0  -0.365935  -0.602522  0  2.13826  0
O  O51  1  0.83318791  0.62637594  0.93048304  1  0  -0.675147  0  1.906573  0  0  -0.620901  0  2.129659  0  0  -0.647943  0  2.117295  0  0  -0.365887  -0.602418  0  2.138146  0
O  O52  1  0.37048852  0.74805398  0.29400423  1  0  -0.704629  0  1.983175  0  0  -0.639454  0  2.228868  0  0  -0.670259  0  2.218731  0  0  -0.376774  -0.617855  0  2.235613  0
O  O53  1  0.62950732  0.25194124  0.70600227  1  0  -0.704538  0  1.98324  0  0  -0.639373  0  2.228934  0  0  -0.670202  0  2.218845  0  0  -0.376748  -0.617791  0  2.235671  0
O  O54  1  0.27215092  0.90253111  0.13798379  1  0  -0.639775  0  1.986036  0  0  -0.575011  0  2.192213  0  0  -0.600712  0  2.178846  0  0  -0.30525  -0.557292  0  2.201084  0
O  O55  1  0.72784547  0.09746848  0.86202346  1  0  -0.639716  0  1.986142  0  0  -0.574991  0  2.192335  0  0  -0.600687  0  2.178969  0  0  -0.305213  -0.557272  0  2.201205  0
O  O56  1  0.50123746  0.78299965  0.94098791  1  0  -0.890778  0  1.860837  0  0  -0.835397  0  2.048899  0  0  -0.860363  0  2.017925  0  0  -0.639415  -0.81777  0  2.070301  0
O  O57  1  0.49875501  0.21699882  0.05901278  1  0  -0.890833  0  1.8608  0  0  -0.835407  0  2.048956  0  0  -0.860374  0  2.017984  0  0  -0.639425  -0.817793  0  2.07035  0
O  O58  1  0.71149758  0.85259384  0.07904680  1  0  -0.85813  0  1.849141  0  0  -0.806185  0  2.036128  0  0  -0.828364  0  2.007746  0  0  -0.60618  -0.790267  0  2.055552  0
O  O59  1  0.28850230  0.14740471  0.92095293  1  0  -0.858102  0  1.849145  0  0  -0.806154  0  2.036153  0  0  -0.828333  0  2.007772  0  0  -0.606154  -0.790248  0  2.055575  0
O  O60  1  0.74376285  0.60388533  0.26716084  1  0  -0.866288  0  1.867303  0  0  -0.811896  0  2.062912  0  0  -0.834374  0  2.033261  0  0  -0.604795  -0.796046  0  2.083251  0
O  O61  1  0.25623699  0.39611322  0.73283572  1  0  -0.866272  0  1.867349  0  0  -0.811868  0  2.062962  0  0  -0.834344  0  2.033285  0  0  -0.604806  -0.796032  0  2.083297  0
