# generated using pymatgen
data_AgH6C7NO2
_symmetry_space_group_name_H-M   'P 1'
_cell_length_a   7.50991340
_cell_length_b   12.01309630
_cell_length_c   16.31400000
_cell_angle_alpha   90.00000000
_cell_angle_beta   90.00000000
_cell_angle_gamma   93.71176620
_symmetry_Int_Tables_number   1
_chemical_formula_structural   AgH6C7NO2
_chemical_formula_sum   'Ag8 H48 C56 N8 O16'
_cell_volume   1468.71790159
_cell_formula_units_Z   8
loop_
 _symmetry_equiv_pos_site_id
 _symmetry_equiv_pos_as_xyz
  1  'x, y, z'
loop_
 _atom_site_type_symbol
 _atom_site_label
 _atom_site_symmetry_multiplicity
 _atom_site_fract_x
 _atom_site_fract_y
 _atom_site_fract_z
 _atom_site_occupancy
 _atom_site_hle17_bader_spin_density
 _atom_site_hle17_ddec_charge
 _atom_site_hle17_ddec_spin_density
 _atom_site_hle17_ddec_sum_bond_order
 _atom_site_hle17_magmom
 _atom_site_hse06_10hf_bader_spin_density
 _atom_site_hse06_10hf_ddec_charge
 _atom_site_hse06_10hf_ddec_spin_density
 _atom_site_hse06_10hf_ddec_sum_bond_order
 _atom_site_hse06_10hf_magmom
 _atom_site_hse06_bader_spin_density
 _atom_site_hse06_ddec_charge
 _atom_site_hse06_ddec_spin_density
 _atom_site_hse06_ddec_sum_bond_order
 _atom_site_hse06_magmom
 _atom_site_pbe_bader_charge
 _atom_site_pbe_bader_spin_density
 _atom_site_pbe_cm5_charge
 _atom_site_pbe_ddec_charge
 _atom_site_pbe_ddec_spin_density
 _atom_site_pbe_ddec_sum_bond_order
 _atom_site_pbe_magmom
Ag  Ag0  1  0.00618704  0.46570220  0.10532365  1  0  0.595118  0  1.372501  0  0  0.469469  0  1.812048  0  0  0.501346  0  1.757874  0  0.58619  0  0.441614  0.447224  0  1.849522  0
Ag  Ag1  1  0.99381642  0.03430043  0.60532487  1  0  0.595092  0  1.372586  0  0  0.469442  0  1.812098  0  0  0.501318  0  1.757928  0  0.586287  0  0.441621  0.447194  0  1.849574  0
Ag  Ag2  1  0.99381573  0.53429722  0.89467635  1  0  0.595143  0  1.372472  0  0  0.469493  0  1.812  0  0  0.501366  0  1.757831  0  0.586353  0  0.441627  0.447247  0  1.849477  0
Ag  Ag3  1  0.00618768  0.96569899  0.39467696  1  0  0.59515  0  1.372393  0  0  0.4695  0  1.811915  0  0  0.501375  0  1.757748  0  0.586212  0  0.441625  0.447255  0  1.849384  0
Ag  Ag4  1  0.63125734  0.42915034  0.02984063  1  0  0.563788  0  1.468987  0  0  0.444757  0  1.947557  0  0  0.48066  0  1.881406  0  0.606705  0  0.406388  0.419986  0  1.993167  0
Ag  Ag5  1  0.36874337  0.07085146  0.52984308  1  0  0.563793  0  1.46902  0  0  0.444767  0  1.947606  0  0  0.48067  0  1.881454  0  0.606773  0  0.406388  0.419996  0  1.993214  0
Ag  Ag6  1  0.36874144  0.57084908  0.97015753  1  0  0.563764  0  1.469006  0  0  0.444737  0  1.947579  0  0  0.480639  0  1.881429  0  0.606801  0  0.406372  0.419967  0  1.993187  0
Ag  Ag7  1  0.63125850  0.92915213  0.47015692  1  0  0.563819  0  1.468958  0  0  0.4448  0  1.947521  0  0  0.480701  0  1.881372  0  0.606768  0  0.406419  0.420031  0  1.993128  0
H  H8  1  0.44656608  0.72585375  0.52229741  1  0  0.312318  0  0.874521  0  0  0.308818  0  0.915813  0  0  0.313722  0  0.913787  0  0.441305  0  0.31003  0.305367  0  0.917223  0
H  H9  1  0.55343751  0.77414412  0.02229803  1  0  0.312347  0  0.874512  0  0  0.308811  0  0.915846  0  0  0.313715  0  0.913818  0  0.441267  0  0.310024  0.305358  0  0.917259  0
H  H10  1  0.55343961  0.27414817  0.47769891  1  0  0.31231  0  0.874512  0  0  0.308846  0  0.91576  0  0  0.313751  0  0.913731  0  0.441236  0  0.310039  0.305392  0  0.917177  0
H  H11  1  0.44656226  0.22585196  0.97770197  1  0  0.312309  0  0.874456  0  0  0.308792  0  0.915776  0  0  0.313697  0  0.913748  0  0.441279  0  0.309989  0.305341  0  0.917188  0
H  H12  1  0.28781772  0.81105886  0.48844428  1  0  0.313505  0  0.956766  0  0  0.294561  0  1.025636  0  0  0.301624  0  1.020785  0  0.517576  0  0.285764  0.289561  0  1.029036  0
H  H13  1  0.71218329  0.68893986  0.98844367  1  0  0.313479  0  0.956808  0  0  0.294531  0  1.02568  0  0  0.301593  0  1.020835  0  0.517559  0  0.28575  0.289532  0  1.029081  0
H  H14  1  0.71218282  0.18894473  0.51155633  1  0  0.31352  0  0.956805  0  0  0.294585  0  1.025671  0  0  0.301648  0  1.02082  0  0.517593  0  0.28578  0.289585  0  1.029073  0
H  H15  1  0.28781931  0.31105790  0.01155633  1  0  0.313493  0  0.956815  0  0  0.294557  0  1.025679  0  0  0.301621  0  1.020825  0  0.517591  0  0.285759  0.289558  0  1.029079  0
H  H16  1  0.22076989  0.97736659  0.70929692  1  0  0.310323  0  0.951647  0  0  0.292992  0  1.017148  0  0  0.300793  0  1.011356  0  0.523347  0  0.28393  0.287443  0  1.021228  0
H  H17  1  0.77923005  0.52263462  0.20929631  1  0  0.310297  0  0.951704  0  0  0.292992  0  1.017161  0  0  0.300791  0  1.011374  0  0.523322  0  0.283938  0.287444  0  1.021239  0
H  H18  1  0.77923722  0.02263616  0.29070430  1  0  0.310346  0  0.951684  0  0  0.293025  0  1.017168  0  0  0.300827  0  1.011375  0  0.523399  0  0.283961  0.287477  0  1.021247  0
H  H19  1  0.22076315  0.47736229  0.79070124  1  0  0.310355  0  0.951649  0  0  0.293036  0  1.017138  0  0  0.300835  0  1.011352  0  0.5234  0  0.283976  0.287488  0  1.021218  0
H  H20  1  0.03176667  0.90231423  0.73772036  1  0  0.304305  0  0.887711  0  0  0.297606  0  0.937165  0  0  0.302231  0  0.935696  0  0.459972  0  0.303446  0.294324  0  0.938218  0
H  H21  1  0.96823202  0.59768782  0.23771914  1  0  0.304294  0  0.887709  0  0  0.297595  0  0.937172  0  0  0.30222  0  0.935707  0  0.459959  0  0.303447  0.294313  0  0.938225  0
H  H22  1  0.96823769  0.09768769  0.26228025  1  0  0.304271  0  0.887719  0  0  0.297585  0  0.937168  0  0  0.302209  0  0.9357  0  0.459946  0  0.303423  0.294303  0  0.938224  0
H  H23  1  0.03176366  0.40230743  0.76228025  1  0  0.304266  0  0.887703  0  0  0.297566  0  0.937165  0  0  0.30219  0  0.935697  0  0.459866  0  0.303438  0.294284  0  0.938221  0
H  H24  1  0.24711417  0.73930816  0.20310224  1  0  0.095274  0  0.96746  0  0  0.10417  0  1.032077  0  0  0.106398  0  1.031751  0  0.09413  0  0.098072  0.102467  0  1.032467  0
H  H25  1  0.75288062  0.76069473  0.70310102  1  0  0.095292  0  0.967448  0  0  0.104184  0  1.032073  0  0  0.106401  0  1.031758  0  0.094154  0  0.098083  0.102479  0  1.032467  0
H  H26  1  0.75288354  0.26069377  0.79689592  1  0  0.095275  0  0.967484  0  0  0.104211  0  1.032052  0  0  0.106418  0  1.031749  0  0.09418  0  0.09807  0.102509  0  1.032441  0
H  H27  1  0.24712100  0.23930636  0.29689837  1  0  0.09529  0  0.96746  0  0  0.104186  0  1.032079  0  0  0.106401  0  1.031767  0  0.094183  0  0.098066  0.102482  0  1.032471  0
H  H28  1  0.23067707  0.83025488  0.33969351  1  0  0.085943  0  0.989954  0  0  0.093218  0  1.066517  0  0  0.097568  0  1.062585  0  0.09395  0  0.086202  0.089969  0  1.069641  0
H  H29  1  0.76932163  0.66974716  0.83969045  1  0  0.085973  0  0.989981  0  0  0.093202  0  1.066588  0  0  0.097551  0  1.062659  0  0.09397  0  0.086195  0.089963  0  1.069702  0
H  H30  1  0.76931415  0.16974871  0.66030465  1  0  0.085898  0  0.990086  0  0  0.093134  0  1.066692  0  0  0.097479  0  1.062768  0  0.094046  0  0.086171  0.089898  0  1.069797  0
H  H31  1  0.23068114  0.33025225  0.16030771  1  0  0.085821  0  0.990078  0  0  0.093077  0  1.066662  0  0  0.097425  0  1.062735  0  0.094006  0  0.086147  0.089839  0  1.069774  0
H  H32  1  0.56966078  0.58789544  0.44058232  1  0  0.101098  0  0.951195  0  0  0.113155  0  1.009546  0  0  0.116925  0  1.0073  0  0.110211  0  0.101363  0.110367  0  1.011401  0
H  H33  1  0.43034023  0.91210327  0.94058355  1  0  0.10108  0  0.951222  0  0  0.11314  0  1.009572  0  0  0.116902  0  1.007334  0  0.110176  0  0.101358  0.110349  0  1.011431  0
H  H34  1  0.43033452  0.41210898  0.55941584  1  0  0.101098  0  0.951313  0  0  0.113179  0  1.009627  0  0  0.116933  0  1.007399  0  0.110136  0  0.101372  0.11039  0  1.011484  0
H  H35  1  0.56966113  0.08789532  0.05941645  1  0  0.101083  0  0.951236  0  0  0.113147  0  1.009582  0  0  0.116911  0  1.007344  0  0.11017  0  0.101349  0.110358  0  1.01144  0
H  H36  1  0.58168447  0.49668595  0.30524948  1  0  0.087414  0  0.976958  0  0  0.098681  0  1.038594  0  0  0.101005  0  1.037557  0  0.094979  0  0.098888  0.096968  0  1.03939  0
H  H37  1  0.41831233  0.00331668  0.80525316  1  0  0.087365  0  0.977019  0  0  0.098657  0  1.038643  0  0  0.100984  0  1.037608  0  0.09464  0  0.098908  0.096962  0  1.039408  0
H  H38  1  0.41831491  0.50331931  0.69474930  1  0  0.087408  0  0.977051  0  0  0.098683  0  1.038687  0  0  0.101009  0  1.037652  0  0.095075  0  0.098885  0.096984  0  1.039459  0
H  H39  1  0.58169044  0.99668274  0.19474868  1  0  0.087386  0  0.977063  0  0  0.098672  0  1.038685  0  0  0.100999  0  1.03765  0  0.094927  0  0.098894  0.096974  0  1.039456  0
H  H40  1  0.21100559  0.30815914  0.86732377  1  0  0.096296  0  0.971457  0  0  0.107078  0  1.034456  0  0  0.109713  0  1.032982  0  0.090495  0  0.101352  0.105088  0  1.035707  0
H  H41  1  0.78899503  0.19184182  0.36732377  1  0  0.096234  0  0.971462  0  0  0.107016  0  1.034467  0  0  0.10965  0  1.032995  0  0.090524  0  0.101327  0.105025  0  1.035722  0
H  H42  1  0.78899735  0.69184195  0.13267745  1  0  0.096246  0  0.97153  0  0  0.107028  0  1.034531  0  0  0.109663  0  1.033058  0  0.09032  0  0.101325  0.105037  0  1.035786  0
H  H43  1  0.21099941  0.80815426  0.63267868  1  0  0.09616  0  0.971422  0  0  0.106912  0  1.034483  0  0  0.109547  0  1.03301  0  0.09041  0  0.101272  0.104922  0  1.035736  0
H  H44  1  0.26143939  0.17977131  0.75106289  1  0  0.116772  0  0.937799  0  0  0.1287  0  0.9946  0  0  0.131772  0  0.994085  0  0.074112  0  0.106786  0.126484  0  0.995147  0
H  H45  1  0.73856256  0.32022965  0.25106289  1  0  0.116796  0  0.937769  0  0  0.128717  0  0.994585  0  0  0.13179  0  0.99407  0  0.074128  0  0.10679  0.126501  0  0.995134  0
H  H46  1  0.73856879  0.82022894  0.24893956  1  0  0.116852  0  0.937719  0  0  0.128798  0  0.994496  0  0  0.13187  0  0.99398  0  0.074102  0  0.10683  0.126579  0  0.995042  0
H  H47  1  0.26142629  0.67976393  0.74893895  1  0  0.116797  0  0.937832  0  0  0.128772  0  0.994577  0  0  0.131845  0  0.994061  0  0.074193  0  0.106828  0.126555  0  0.995121  0
H  H48  1  0.85780132  0.94486131  0.84977014  1  0  0.095389  0  1.005252  0  0  0.104916  0  1.068955  0  0  0.10631  0  1.071562  0  0.073784  0  0.096438  0.103893  0  1.067325  0
H  H49  1  0.14219854  0.55513907  0.34977075  1  0  0.095359  0  1.00527  0  0  0.104904  0  1.068955  0  0  0.106298  0  1.071561  0  0.073757  0  0.096421  0.103882  0  1.067323  0
H  H50  1  0.14220021  0.05513895  0.15022741  1  0  0.095342  0  1.005262  0  0  0.104873  0  1.068958  0  0  0.106268  0  1.07156  0  0.07374  0  0.096428  0.10385  0  1.067327  0
H  H51  1  0.85779057  0.44485701  0.65022680  1  0  0.095346  0  1.005279  0  0  0.104837  0  1.06902  0  0  0.106232  0  1.071625  0  0.074014  0  0.096393  0.103815  0  1.067387  0
H  H52  1  0.80022734  0.07795863  0.96189408  1  0  0.09374  0  0.952661  0  0  0.103155  0  1.015672  0  0  0.106445  0  1.013107  0  0.076893  0  0.101313  0.100766  0  1.017537  0
H  H53  1  0.19977195  0.42204233  0.46189469  1  0  0.093768  0  0.952679  0  0  0.103188  0  1.015678  0  0  0.106477  0  1.013113  0  0.076879  0  0.101333  0.100798  0  1.017542  0
H  H54  1  0.19977153  0.92204163  0.03810347  1  0  0.093752  0  0.952688  0  0  0.103163  0  1.0157  0  0  0.10645  0  1.013134  0  0.076878  0  0.101333  0.100774  0  1.017564  0
H  H55  1  0.80022292  0.57795792  0.53810347  1  0  0.093759  0  0.952719  0  0  0.103191  0  1.015706  0  0  0.106479  0  1.013143  0  0.076817  0  0.101328  0.100801  0  1.017571  0
C  C56  1  0.43875510  0.56363097  0.16173655  1  0  0.645636  0  3.909222  0  0  0.593378  0  4.192919  0  0  0.629943  0  4.187616  0  1.512125  0  0.19907  0.568395  0  4.195769  0
C  C57  1  0.56123552  0.93637024  0.66173716  1  0  0.645562  0  3.909529  0  0  0.593296  0  4.193231  0  0  0.629863  0  4.187927  0  1.512595  0  0.199031  0.56831  0  4.196083  0
C  C58  1  0.56124110  0.43636928  0.83826407  1  0  0.645652  0  3.9091  0  0  0.593411  0  4.192786  0  0  0.629977  0  4.187481  0  1.512186  0  0.199086  0.568424  0  4.195639  0
C  C59  1  0.43877043  0.06363418  0.33826407  1  0  0.645479  0  3.909489  0  0  0.593226  0  4.193181  0  0  0.629793  0  4.187877  0  1.512624  0  0.199  0.568241  0  4.196033  0
C  C60  1  0.41932053  0.61342953  0.24418230  1  0  -0.112455  0  3.810037  0  0  -0.092736  0  4.052501  0  0  -0.104411  0  4.075934  0  -0.031942  0  -0.042946  -0.085208  0  4.036744  0
C  C61  1  0.58067559  0.88657335  0.74418291  1  0  -0.112469  0  3.810106  0  0  -0.09272  0  4.052553  0  0  -0.104396  0  4.075985  0  -0.031983  0  -0.042899  -0.085184  0  4.036786  0
C  C62  1  0.58067576  0.38657156  0.75581648  1  0  -0.112466  0  3.810082  0  0  -0.092772  0  4.052591  0  0  -0.104446  0  4.07602  0  -0.031854  0  -0.042912  -0.085233  0  4.036817  0
C  C63  1  0.41932878  0.11342857  0.25581770  1  0  -0.112371  0  3.809955  0  0  -0.092616  0  4.052367  0  0  -0.10429  0  4.075798  0  -0.032087  0  -0.042837  -0.085083  0  4.036603  0
C  C64  1  0.31706601  0.70623897  0.25549222  1  0  -0.067415  0  3.775516  0  0  -0.089062  0  4.021474  0  0  -0.084583  0  4.040191  0  -0.057268  0  -0.093055  -0.09173  0  4.008742  0
C  C65  1  0.68292994  0.79376224  0.75549222  1  0  -0.067482  0  3.775541  0  0  -0.08914  0  4.021495  0  0  -0.084652  0  4.040215  0  -0.057494  0  -0.093108  -0.091813  0  4.008762  0
C  C66  1  0.68292877  0.29376045  0.74450472  1  0  -0.067529  0  3.775581  0  0  -0.089197  0  4.021523  0  0  -0.0847  0  4.040247  0  -0.057972  0  -0.09308  -0.091869  0  4.008793  0
C  C67  1  0.31707168  0.20623884  0.24450778  1  0  -0.067554  0  3.775473  0  0  -0.089219  0  4.021439  0  0  -0.08473  0  4.040162  0  -0.057445  0  -0.093099  -0.091891  0  4.00871  0
C  C68  1  0.30791607  0.75690757  0.33177823  1  0  -0.184123  0  3.720399  0  0  -0.195347  0  3.965224  0  0  -0.204175  0  3.985435  0  -0.094368  0  -0.10588  -0.189505  0  3.951772  0
C  C69  1  0.69208263  0.74309447  0.83177884  1  0  -0.184083  0  3.720427  0  0  -0.195288  0  3.965249  0  0  -0.204115  0  3.985457  0  -0.094088  0  -0.105853  -0.189453  0  3.95179  0
C  C70  1  0.69207765  0.24309435  0.66821932  1  0  -0.183975  0  3.720547  0  0  -0.195177  0  3.965392  0  0  -0.204002  0  3.985601  0  -0.093637  0  -0.10581  -0.189342  0  3.951933  0
C  C71  1  0.30791881  0.25690494  0.16822239  1  0  -0.183899  0  3.720407  0  0  -0.195118  0  3.965234  0  0  -0.203944  0  3.985446  0  -0.09406  0  -0.105807  -0.189283  0  3.951773  0
C  C72  1  0.40002227  0.71552834  0.39957031  1  0  0.321245  0  3.808439  0  0  0.315946  0  4.050316  0  0  0.328556  0  4.070292  0  0.394016  0  0.098327  0.307344  0  4.036622  0
C  C73  1  0.59997875  0.78447037  0.89957092  1  0  0.321064  0  3.808765  0  0  0.315812  0  4.050543  0  0  0.328423  0  4.070518  0  0.393981  0  0.098274  0.30721  0  4.036849  0
C  C74  1  0.59997394  0.28447191  0.60042785  1  0  0.321257  0  3.80869  0  0  0.315949  0  4.05057  0  0  0.32856  0  4.070542  0  0.393998  0  0.098317  0.307347  0  4.036877  0
C  C75  1  0.40002518  0.21552738  0.10042908  1  0  0.321204  0  3.808687  0  0  0.315925  0  4.050518  0  0  0.328536  0  4.070493  0  0.39405  0  0.098348  0.307322  0  4.036824  0
C  C76  1  0.49835395  0.62064848  0.38856749  1  0  -0.177379  0  3.73034  0  0  -0.191649  0  3.978711  0  0  -0.198835  0  3.996964  0  -0.073246  0  -0.100988  -0.186916  0  3.966507  0
C  C77  1  0.50164990  0.87935190  0.88856933  1  0  -0.177183  0  3.730335  0  0  -0.191462  0  3.978678  0  0  -0.19864  0  3.996935  0  -0.073254  0  -0.100939  -0.18673  0  3.966479  0
C  C78  1  0.50164384  0.37935428  0.61143129  1  0  -0.177415  0  3.730442  0  0  -0.191699  0  3.978809  0  0  -0.19887  0  3.997068  0  -0.073264  0  -0.101008  -0.186966  0  3.966609  0
C  C79  1  0.49835412  0.12064668  0.11143067  1  0  -0.177381  0  3.730397  0  0  -0.191669  0  3.978773  0  0  -0.198849  0  3.997029  0  -0.073303  0  -0.101006  -0.186935  0  3.966573  0
C  C80  1  0.50801847  0.57123280  0.31218401  1  0  -0.056536  0  3.783377  0  0  -0.080033  0  4.030431  0  0  -0.075683  0  4.049361  0  -0.067965  0  -0.091257  -0.08262  0  4.017443  0
C  C81  1  0.49197889  0.92876924  0.81218830  1  0  -0.056644  0  3.783438  0  0  -0.080184  0  4.030543  0  0  -0.075839  0  4.049476  0  -0.067676  0  -0.091399  -0.082782  0  4.017535  0
C  C82  1  0.49197524  0.42876912  0.68781353  1  0  -0.056533  0  3.783426  0  0  -0.080037  0  4.030505  0  0  -0.07569  0  4.049435  0  -0.068166  0  -0.091305  -0.082635  0  4.017495  0
C  C83  1  0.50802405  0.07123184  0.18781353  1  0  -0.056584  0  3.783456  0  0  -0.080113  0  4.030531  0  0  -0.075767  0  4.049465  0  -0.067991  0  -0.091352  -0.082709  0  4.017522  0
C  C84  1  0.95769734  0.28172247  0.98782150  1  0  0.636446  0  3.913722  0  0  0.58396  0  4.197125  0  0  0.619548  0  4.191665  0  1.537606  0  0.191332  0.559672  0  4.200112  0
C  C85  1  0.04230638  0.21828266  0.48782395  1  0  0.636474  0  3.913902  0  0  0.583985  0  4.197314  0  0  0.619572  0  4.191853  0  1.537616  0  0.191292  0.559697  0  4.200303  0
C  C86  1  0.04230286  0.71827778  0.01217911  1  0  0.636438  0  3.913806  0  0  0.583946  0  4.197213  0  0  0.619534  0  4.191752  0  1.537574  0  0.19131  0.559657  0  4.200201  0
C  C87  1  0.95769790  0.78171843  0.51217911  1  0  0.63649  0  3.91354  0  0  0.58401  0  4.196936  0  0  0.619596  0  4.191476  0  1.537311  0  0.1914  0.559721  0  4.199923  0
C  C88  1  0.99942101  0.20237411  0.92140125  1  0  -0.092904  0  3.785728  0  0  -0.069814  0  4.02144  0  0  -0.080501  0  4.045404  0  -0.014005  0  -0.033189  -0.063009  0  4.005433  0
C  C89  1  0.00057579  0.29762852  0.42140370  1  0  -0.092989  0  3.785574  0  0  -0.069894  0  4.021287  0  0  -0.080582  0  4.045251  0  -0.01427  0  -0.033195  -0.063088  0  4.005281  0
C  C90  1  0.00057918  0.79762614  0.07859752  1  0  -0.092884  0  3.785746  0  0  -0.069786  0  4.021437  0  0  -0.080474  0  4.045401  0  -0.014143  0  -0.033164  -0.06298  0  4.00543  0
C  C91  1  0.99942149  0.70236923  0.57859630  1  0  -0.092879  0  3.785681  0  0  -0.069785  0  4.021406  0  0  -0.08047  0  4.045365  0  -0.014203  0  -0.033177  -0.062979  0  4.005402  0
C  C92  1  0.13219844  0.22897010  0.86255547  1  0  -0.07026  0  3.771699  0  0  -0.094396  0  4.020579  0  0  -0.091436  0  4.040785  0  -0.084023  0  -0.093612  -0.096125  0  4.006925  0
C  C93  1  0.86780103  0.27103253  0.36255547  1  0  -0.070074  0  3.771569  0  0  -0.094193  0  4.020418  0  0  -0.091234  0  4.040626  0  -0.083987  0  -0.093541  -0.095924  0  4.006764  0
C  C94  1  0.86780451  0.77103098  0.13744575  1  0  -0.070158  0  3.771817  0  0  -0.094287  0  4.020665  0  0  -0.091328  0  4.040872  0  -0.08382  0  -0.093579  -0.096018  0  4.00701  0
C  C95  1  0.13219474  0.72896356  0.63744575  1  0  -0.070088  0  3.771642  0  0  -0.094227  0  4.020599  0  0  -0.091268  0  4.040807  0  -0.083807  0  -0.093568  -0.095959  0  4.006945  0
C  C96  1  0.16194417  0.15675393  0.79795942  1  0  -0.193694  0  3.732218  0  0  -0.206249  0  3.979743  0  0  -0.213585  0  4.00012  0  -0.016262  0  -0.104224  -0.201474  0  3.966108  0
C  C97  1  0.83805645  0.34324703  0.29796065  1  0  -0.193795  0  3.732279  0  0  -0.206335  0  3.979833  0  0  -0.21367  0  4.000208  0  -0.016303  0  -0.104245  -0.201559  0  3.966196  0
C  C98  1  0.83806135  0.84324632  0.20204180  1  0  -0.193887  0  3.73234  0  0  -0.206458  0  3.979865  0  0  -0.213795  0  4.000242  0  -0.016216  0  -0.104296  -0.201674  0  3.966224  0
C  C99  1  0.16193524  0.65674822  0.70204119  1  0  -0.193848  0  3.732229  0  0  -0.206482  0  3.979737  0  0  -0.21382  0  4.00011  0  -0.016625  0  -0.104302  -0.201698  0  3.966099  0
C  C100  1  0.06123123  0.05414878  0.79270504  1  0  0.289437  0  3.791621  0  0  0.286196  0  4.031198  0  0  0.295615  0  4.053576  0  0.29654  0  0.087023  0.27982  0  4.015925  0
C  C101  1  0.93876806  0.44585218  0.29270626  1  0  0.289578  0  3.7915  0  0  0.286297  0  4.03115  0  0  0.295717  0  4.053525  0  0.296572  0  0.087049  0.27992  0  4.015876  0
C  C102  1  0.93877305  0.94585231  0.20729496  1  0  0.289492  0  3.791636  0  0  0.286254  0  4.031216  0  0  0.295673  0  4.053594  0  0.296547  0  0.087043  0.279877  0  4.015942  0
C  C103  1  0.06122221  0.55414223  0.70729374  1  0  0.289559  0  3.791614  0  0  0.286425  0  4.031019  0  0  0.295849  0  4.053386  0  0.296289  0  0.087087  0.280045  0  4.015752  0
C  C104  1  0.93308044  0.02533555  0.85284418  1  0  -0.178078  0  3.735306  0  0  -0.190314  0  3.974079  0  0  -0.197839  0  3.997577  0  -0.033346  0  -0.100453  -0.185404  0  3.958272  0
C  C105  1  0.06692035  0.47466708  0.35284541  1  0  -0.178075  0  3.735257  0  0  -0.190297  0  3.974023  0  0  -0.197822  0  3.997519  0  -0.033521  0  -0.100445  -0.185387  0  3.958214  0
C  C106  1  0.06692392  0.97466637  0.14715459  1  0  -0.177993  0  3.735308  0  0  -0.190219  0  3.974053  0  0  -0.197744  0  3.99755  0  -0.033498  0  -0.100448  -0.18531  0  3.958246  0
C  C107  1  0.93307151  0.52532984  0.64715398  1  0  -0.178049  0  3.735416  0  0  -0.190259  0  3.974106  0  0  -0.197787  0  3.997603  0  -0.033034  0  -0.100414  -0.185348  0  3.958298  0
C  C108  1  0.90143035  0.09936272  0.91570675  1  0  -0.040806  0  3.75444  0  0  -0.063104  0  3.997591  0  0  -0.060413  0  4.016951  0  -0.023864  0  -0.082073  -0.064607  0  3.984392  0
C  C109  1  0.09856796  0.40064158  0.41570737  1  0  -0.040879  0  3.754443  0  0  -0.063194  0  3.997606  0  0  -0.060503  0  4.016967  0  -0.023537  0  -0.082126  -0.064697  0  3.984407  0
C  C110  1  0.09857002  0.90063921  0.08429202  1  0  -0.040884  0  3.754526  0  0  -0.063189  0  3.997673  0  0  -0.060494  0  4.017031  0  -0.023622  0  -0.082106  -0.064692  0  3.984474  0
C  C111  1  0.90142683  0.59935784  0.58429141  1  0  -0.040881  0  3.754486  0  0  -0.063212  0  3.997627  0  0  -0.06052  0  4.016986  0  -0.023722  0  -0.082097  -0.064716  0  3.984429  0
N  N112  1  0.40010790  0.76974385  0.47451085  1  0  -0.652542  0  3.190789  0  0  -0.603728  0  3.432619  0  0  -0.62682  0  3.431939  0  -1.256428  0  -0.602089  -0.587422  0  3.432545  0
N  N113  1  0.59989453  0.73025569  0.97450962  1  0  -0.652451  0  3.190976  0  0  -0.603592  0  3.432742  0  0  -0.626686  0  3.432068  0  -1.25641  0  -0.601997  -0.587286  0  3.432662  0
N  N114  1  0.59989397  0.23025974  0.52548792  1  0  -0.652563  0  3.191022  0  0  -0.603791  0  3.43278  0  0  -0.626883  0  3.4321  0  -1.256441  0  -0.602107  -0.587485  0  3.432703  0
N  N115  1  0.40010674  0.26974206  0.02548976  1  0  -0.652459  0  3.190969  0  0  -0.603632  0  3.432727  0  0  -0.626725  0  3.432048  0  -1.256433  0  -0.602022  -0.587325  0  3.432649  0
N  N116  1  0.08736990  0.98064240  0.72630685  1  0  -0.652143  0  3.238602  0  0  -0.588776  0  3.487127  0  0  -0.612149  0  3.486191  0  -1.22722  0  -0.616733  -0.572339  0  3.48726  0
N  N117  1  0.91262738  0.51935882  0.22630563  1  0  -0.652169  0  3.238604  0  0  -0.588816  0  3.487169  0  0  -0.612193  0  3.486231  0  -1.227179  0  -0.616736  -0.572377  0  3.487303  0
N  N118  1  0.91263447  0.01935953  0.27369376  1  0  -0.652154  0  3.238559  0  0  -0.588823  0  3.487107  0  0  -0.612197  0  3.486165  0  -1.227204  0  -0.616721  -0.57239  0  3.487247  0
N  N119  1  0.08736555  0.48063560  0.77369315  1  0  -0.652205  0  3.238678  0  0  -0.588832  0  3.487069  0  0  -0.612207  0  3.486126  0  -1.227251  0  -0.616769  -0.5724  0  3.48721  0
O  O120  1  0.07135575  0.36808208  0.99731948  1  0  -0.691582  0  2.189445  0  0  -0.597599  0  2.466722  0  0  -0.630435  0  2.451312  0  -1.145612  0  -0.34506  -0.574568  0  2.476526  0
O  O121  1  0.92864913  0.13192139  0.49732316  1  0  -0.691562  0  2.189522  0  0  -0.597572  0  2.466769  0  0  -0.630403  0  2.451349  0  -1.145737  0  -0.345034  -0.574542  0  2.476577  0
O  O122  1  0.92864570  0.63191734  0.00268113  1  0  -0.691549  0  2.189359  0  0  -0.597591  0  2.466694  0  0  -0.630422  0  2.451275  0  -1.145708  0  -0.345057  -0.57456  0  2.4765  0
O  O123  1  0.07135914  0.86807970  0.50268113  1  0  -0.691535  0  2.189345  0  0  -0.597537  0  2.466581  0  0  -0.630374  0  2.451175  0  -1.145569  0  -0.345051  -0.574504  0  2.476383  0
O  O124  1  0.81986984  0.26416727  0.03053696  1  0  -0.61206  0  2.006762  0  0  -0.553928  0  2.255197  0  0  -0.581748  0  2.24526  0  -1.16012  0  -0.323666  -0.534419  0  2.261301  0
O  O125  1  0.18013139  0.23583953  0.53053696  1  0  -0.612102  0  2.006944  0  0  -0.553968  0  2.255381  0  0  -0.581786  0  2.24544  0  -1.159995  0  -0.323653  -0.534461  0  2.261487  0
O  O126  1  0.18013027  0.73583215  0.96946426  1  0  -0.612069  0  2.006806  0  0  -0.553934  0  2.255243  0  0  -0.581755  0  2.245306  0  -1.160098  0  -0.323656  -0.534425  0  2.261348  0
O  O127  1  0.81987199  0.76416573  0.46946181  1  0  -0.612113  0  2.006594  0  0  -0.55399  0  2.255033  0  0  -0.581809  0  2.245097  0  -1.159877  0  -0.323722  -0.534483  0  2.261139  0
O  O128  1  0.58058406  0.51141664  0.14928099  1  0  -0.641442  0  2.142615  0  0  -0.561783  0  2.412557  0  0  -0.593736  0  2.400192  0  -1.148566  0  -0.327943  -0.53953  0  2.420302  0
O  O129  1  0.41940673  0.98858624  0.64928282  1  0  -0.641405  0  2.142838  0  0  -0.561751  0  2.412784  0  0  -0.593707  0  2.40042  0  -1.148674  0  -0.327911  -0.539499  0  2.420533  0
O  O130  1  0.41940772  0.48857944  0.85072024  1  0  -0.64141  0  2.142622  0  0  -0.561784  0  2.412598  0  0  -0.593738  0  2.400234  0  -1.148587  0  -0.327974  -0.539532  0  2.420346  0
O  O131  1  0.58060683  0.01142736  0.35072085  1  0  -0.64138  0  2.142846  0  0  -0.561733  0  2.412791  0  0  -0.593691  0  2.400431  0  -1.148732  0  -0.327973  -0.539479  0  2.420534  0
O  O132  1  0.31853476  0.57738401  0.10814699  1  0  -0.640597  0  2.13589  0  0  -0.562213  0  2.418322  0  0  -0.593791  0  2.404459  0  -1.149707  0  -0.33417  -0.540242  0  2.427147  0
O  O133  1  0.68145427  0.92261470  0.60814576  1  0  -0.64053  0  2.135964  0  0  -0.562141  0  2.418388  0  0  -0.593719  0  2.404522  0  -1.150037  0  -0.334147  -0.540169  0  2.427208  0
O  O134  1  0.68146677  0.42261624  0.89185178  1  0  -0.640597  0  2.135865  0  0  -0.562224  0  2.418305  0  0  -0.593802  0  2.404438  0  -1.149793  0  -0.334161  -0.540254  0  2.427132  0
O  O135  1  0.31854833  0.07738305  0.39185424  1  0  -0.640519  0  2.135976  0  0  -0.562153  0  2.418428  0  0  -0.593731  0  2.404561  0  -1.15006  0  -0.334109  -0.540173  0  2.427226  0
