# generated using pymatgen
data_AlH12C27(ClO2)3
_symmetry_space_group_name_H-M   'P 1'
_cell_length_a   4.00963044
_cell_length_b   27.78018240
_cell_length_c   27.83445269
_cell_angle_alpha   60.02555839
_cell_angle_beta   90.83336412
_cell_angle_gamma   89.99812069
_symmetry_Int_Tables_number   1
_chemical_formula_structural   AlH12C27(ClO2)3
_chemical_formula_sum   'Al3 H36 C81 Cl9 O18'
_cell_volume   2685.36415225
_cell_formula_units_Z   3
loop_
 _symmetry_equiv_pos_site_id
 _symmetry_equiv_pos_as_xyz
  1  'x, y, z'
loop_
 _atom_site_type_symbol
 _atom_site_label
 _atom_site_symmetry_multiplicity
 _atom_site_fract_x
 _atom_site_fract_y
 _atom_site_fract_z
 _atom_site_occupancy
 _atom_site_pbe_bader_charge
 _atom_site_pbe_bader_spin_density
 _atom_site_pbe_cm5_charge
 _atom_site_pbe_ddec_charge
 _atom_site_pbe_ddec_spin_density
 _atom_site_pbe_ddec_sum_bond_order
 _atom_site_pbe_magmom
Al  Al0  1  0.00328098  0.49945252  0.50009320  1  2.505349  0  0.427083  1.610612  0  2.561055  0
Al  Al1  1  0.94440601  0.83269616  0.83294924  1  2.503633  0  0.425383  1.608583  0  2.555947  0
Al  Al2  1  0.05330353  0.16603220  0.16698102  1  2.50223  0  0.425029  1.608962  0  2.555742  0
H  H3  1  0.52068026  0.07651724  0.92206300  1  0.058611  0  0.099419  0.098248  0  1.028938  0
H  H4  1  0.50405664  0.25506838  0.83431058  1  0.052375  0  0.100073  0.099856  0  1.025246  0
H  H5  1  0.51701536  0.16714523  0.74382575  1  0.044421  0  0.100051  0.099637  0  1.02423  0
H  H6  1  0.72601493  0.92604082  0.90870832  1  0.091411  0  0.111144  0.118259  0  0.972936  0
H  H7  1  0.76643565  0.01419970  0.90982887  1  0.07599  0  0.101673  0.102963  0  1.005374  0
H  H8  1  0.21782314  0.09754946  0.75432042  1  0.088513  0  0.10324  0.116271  0  1.006941  0
H  H9  1  0.28300541  0.08650103  0.98399509  1  0.074674  0  0.103311  0.116321  0  1.007278  0
H  H10  1  0.79780715  0.24314737  0.99498598  1  0.080179  0  0.110725  0.117308  0  0.973748  0
H  H11  1  0.80090167  0.24312731  0.90623219  1  0.086689  0  0.101884  0.103018  0  1.005723  0
H  H12  1  0.78630800  0.31423031  0.76429758  1  0.07226  0  0.101186  0.112976  0  1.012478  0
H  H13  1  0.22928831  0.33304555  0.59603483  1  0.097692  0  0.11166  0.11856  0  0.983327  0
H  H14  1  0.22560780  0.24189574  0.68296820  1  0.053088  0  0.100962  0.102794  0  1.005423  0
H  H15  1  0.50450618  0.49868023  0.07834823  1  0.049054  0  0.099478  0.097898  0  1.029572  0
H  H16  1  0.51929694  0.58947455  0.16598910  1  0.047573  0  0.099925  0.099585  0  1.025037  0
H  H17  1  0.50419042  0.41094812  0.25659291  1  0.051007  0  0.099728  0.098964  0  1.024467  0
H  H18  1  0.28171356  0.33661964  0.09037584  1  0.061338  0  0.1103  0.116436  0  0.974755  0
H  H19  1  0.24990691  0.42551419  0.09021332  1  0.081306  0  0.101804  0.102779  0  1.006251  0
H  H20  1  0.79211645  0.35038934  0.24644861  1  0.082678  0  0.102994  0.116079  0  1.006299  0
H  H21  1  0.74287391  0.57149169  0.01598412  1  0.07529  0  0.103318  0.116354  0  1.006408  0
H  H22  1  0.20501607  0.73734162  0.00556691  1  0.095189  0  0.110046  0.116563  0  0.974937  0
H  H23  1  0.21290218  0.64848903  0.09437201  1  0.052597  0  0.10153  0.103102  0  1.0062  0
H  H24  1  0.23342323  0.57809494  0.23621915  1  0.08325  0  0.101117  0.113106  0  1.012258  0
H  H25  1  0.79013343  0.42842173  0.40456796  1  0.093669  0  0.110777  0.117489  0  0.984111  0
H  H26  1  0.80112065  0.42503287  0.31726157  1  0.066093  0  0.10093  0.103  0  1.005053  0
H  H27  1  0.49231255  0.92206709  0.50088764  1  0.043913  0  0.099678  0.098424  0  1.02943  0
H  H28  1  0.47218693  0.83434948  0.41021864  1  0.046353  0  0.100178  0.09958  0  1.026116  0
H  H29  1  0.48630715  0.74346909  0.58845168  1  0.069958  0  0.100017  0.099241  0  1.025676  0
H  H30  1  0.70514021  0.90878456  0.66427009  1  0.109896  0  0.111002  0.118776  0  0.973802  0
H  H31  1  0.73538000  0.90967174  0.57527269  1  0.083625  0  0.101619  0.102977  0  1.006016  0
H  H32  1  0.20763528  0.75398306  0.64790586  1  0.082821  0  0.103123  0.11604  0  1.007349  0
H  H33  1  0.26354518  0.98623123  0.42702407  1  0.072277  0  0.103257  0.116671  0  1.005641  0
H  H34  1  0.79620819  0.99281440  0.26409631  1  0.098324  0  0.111266  0.118381  0  0.971645  0
H  H35  1  0.77998919  0.90388173  0.35270293  1  0.069149  0  0.101894  0.103197  0  1.006301  0
H  H36  1  0.75356540  0.76383701  0.42182586  1  0.074779  0  0.101199  0.1136  0  1.013195  0
H  H37  1  0.21848569  0.59560203  0.56988289  1  0.104318  0  0.111661  0.119316  0  0.983221  0
H  H38  1  0.20227819  0.68269731  0.57388672  1  0.077987  0  0.101426  0.103813  0  1.003743  0
C  C39  1  0.49943442  0.57483401  0.49725045  1  1.586763  0  0.273933  0.665306  0  4.053662  0
C  C40  1  0.50831751  0.42702952  0.57534470  1  1.582207  0  0.273517  0.663356  0  4.064232  0
C  C41  1  0.50069720  0.50071265  0.42562498  1  1.58217  0  0.273627  0.664722  0  4.058107  0
C  C42  1  0.44466981  0.90788214  0.83079582  1  1.635247  0  0.278567  0.675077  0  4.064192  0
C  C43  1  0.45394744  0.75924865  0.90726490  1  1.614601  0  0.279723  0.678339  0  4.055258  0
C  C44  1  0.43910761  0.83072658  0.76035287  1  1.61017  0  0.281106  0.681216  0  4.047066  0
C  C45  1  0.54693402  0.16565273  0.09320127  1  1.61884  0  0.279641  0.677314  0  4.063086  0
C  C46  1  0.55448102  0.23962605  0.16773338  1  1.606267  0  0.280747  0.678543  0  4.057317  0
C  C47  1  0.55643095  0.09293761  0.24113588  1  1.61988  0  0.282109  0.68369  0  4.044773  0
C  C48  1  0.52504972  0.16577563  0.88444232  1  0.021365  0  -0.005999  0.082426  0  4.016947  0
C  C49  1  0.51800556  0.11596686  0.88315095  1  -0.063327  0  -0.087694  -0.174156  0  3.923018  0
C  C50  1  0.50611621  0.11568619  0.83294945  1  -0.02187  0  -0.006665  0.081487  0  4.015877  0
C  C51  1  0.50867102  0.16672020  0.78316140  1  -0.018864  0  -0.087546  -0.175136  0  3.924768  0
C  C52  1  0.51236995  0.21724558  0.78300016  1  0.021913  0  -0.006605  0.081042  0  4.017354  0
C  C53  1  0.51699949  0.21605278  0.83396389  1  -0.051659  0  -0.087588  -0.17564  0  3.926417  0
C  C54  1  0.61273325  0.96383600  0.87514704  1  -0.034018  0  -0.082184  -0.08172  0  3.986657  0
C  C55  1  0.63207436  0.01344498  0.87589632  1  -0.00283  0  -0.092528  -0.137809  0  3.993523  0
C  C56  1  0.49212310  0.06271081  0.83249525  1  -0.071442  0  -0.006165  0.081123  0  4.005002  0
C  C57  1  0.33730089  0.06066257  0.78803670  1  0.023792  0  -0.095247  -0.199914  0  3.968015  0
C  C58  1  0.32648870  0.01121681  0.78673147  1  0.105478  0  0.01713  0.131644  0  4.055342  0
C  C59  1  0.45858911  0.96193502  0.83067266  1  -0.056919  0  -0.013488  -0.09447  0  3.948599  0
C  C60  1  0.40328332  0.12078266  0.98566650  1  -0.029868  0  -0.095729  -0.199582  0  3.96916  0
C  C61  1  0.41448475  0.12001611  0.03606798  1  0.085005  0  0.01747  0.130956  0  4.054169  0
C  C62  1  0.54668169  0.16476530  0.03971689  1  -0.025975  0  -0.01342  -0.093535  0  3.944048  0
C  C63  1  0.68276348  0.20909386  0.99210927  1  -0.057364  0  -0.081699  -0.081828  0  3.98561  0
C  C64  1  0.68088017  0.20922582  0.94204821  1  -0.018929  0  -0.092222  -0.137066  0  3.99011  0
C  C65  1  0.53573561  0.16542659  0.93774480  1  0.036731  0  -0.006179  0.08089  0  4.004471  0
C  C66  1  0.66015921  0.31752369  0.72786281  1  0.064317  0  -0.097116  -0.206247  0  3.969194  0
C  C67  1  0.66038689  0.36872760  0.67895164  1  0.006962  0  0.023749  0.149187  0  4.022609  0
C  C68  1  0.50983659  0.37473985  0.63016250  1  0.052547  0  -0.014904  -0.106953  0  3.928013  0
C  C69  1  0.35476528  0.32787874  0.63331547  1  -0.019489  0  -0.077926  -0.066938  0  3.978283  0
C  C70  1  0.35593806  0.27682754  0.68193319  1  0.031757  0  -0.094382  -0.143996  0  3.993296  0
C  C71  1  0.51049022  0.27077464  0.73033910  1  -0.116375  0  -0.00208  0.09076  0  3.999505  0
C  C72  1  0.49963902  0.55030469  0.11589022  1  0.020684  0  -0.006385  0.081825  0  4.015723  0
C  C73  1  0.50662314  0.49918130  0.11725227  1  -0.045692  0  -0.087757  -0.173869  0  3.923516  0
C  C74  1  0.51586750  0.44863123  0.16747752  1  0.000812  0  -0.005979  0.082136  0  4.015542  0
C  C75  1  0.51449768  0.44985358  0.21723747  1  -0.062059  0  -0.087132  -0.174146  0  3.923729  0
C  C76  1  0.51264699  0.50026942  0.21732869  1  -0.010208  0  -0.006381  0.080748  0  4.014077  0
C  C77  1  0.50788881  0.55009376  0.16634942  1  -0.026861  0  -0.087918  -0.175334  0  3.924928  0
C  C78  1  0.39577576  0.34016060  0.12425848  1  -0.023224  0  -0.082779  -0.082269  0  3.990025  0
C  C79  1  0.38146069  0.39027381  0.12404044  1  -0.084938  0  -0.093679  -0.138181  0  3.995661  0
C  C80  1  0.52320943  0.39524757  0.16781555  1  0.061554  0  -0.005935  0.080807  0  4.005186  0
C  C81  1  0.67270972  0.34802227  0.21230594  1  -0.024885  0  -0.09527  -0.19898  0  3.965523  0
C  C82  1  0.67830026  0.29747006  0.21313060  1  0.026631  0  0.017807  0.130775  0  4.054325  0
C  C83  1  0.54612570  0.29316203  0.16860110  1  0.07139  0  -0.013345  -0.093852  0  3.947337  0
C  C84  1  0.61776841  0.60704179  0.01444863  1  0.066428  0  -0.095644  -0.198206  0  3.966059  0
C  C85  1  0.59985128  0.65665460  0.96395464  1  0.020545  0  0.017722  0.129774  0  4.053482  0
C  C86  1  0.46147163  0.70460445  0.96053465  1  0.05044  0  -0.013042  -0.094214  0  3.94451  0
C  C87  1  0.32533760  0.70081854  0.00833381  1  -0.062176  0  -0.083058  -0.082984  0  3.989661  0
C  C88  1  0.33364869  0.65088842  0.05841751  1  -0.006272  0  -0.092694  -0.138505  0  3.992655  0
C  C89  1  0.48526494  0.60328793  0.06255008  1  -0.05677  0  -0.006075  0.080998  0  4.002809  0
C  C90  1  0.35983499  0.54494449  0.27265739  1  -0.029075  0  -0.097125  -0.206238  0  3.967773  0
C  C91  1  0.35569584  0.54685814  0.32173584  1  0.075809  0  0.023844  0.147247  0  4.022726  0
C  C92  1  0.50546843  0.50388631  0.37058616  1  -0.002236  0  -0.015135  -0.107116  0  3.927893  0
C  C93  1  0.66480914  0.46057996  0.36725797  1  -0.025497  0  -0.078242  -0.06787  0  3.979575  0
C  C94  1  0.66783499  0.45860865  0.31843567  1  -0.008861  0  -0.094738  -0.144707  0  3.994041  0
C  C95  1  0.51300499  0.50100188  0.27003259  1  0.019012  0  -0.001465  0.092382  0  3.997099  0
C  C96  1  0.49492687  0.88439144  0.44940923  1  -0.01629  0  -0.006026  0.080944  0  4.014526  0
C  C97  1  0.48769368  0.88308902  0.50039901  1  -0.043287  0  -0.087355  -0.172643  0  3.921506  0
C  C98  1  0.47645775  0.83282076  0.55082303  1  0.012834  0  -0.006329  0.081582  0  4.012953  0
C  C99  1  0.47680056  0.78294767  0.54956619  1  -0.06884  0  -0.087516  -0.174489  0  3.924079  0
C  C100  1  0.47933176  0.78280680  0.49927945  1  -0.020246  0  -0.006536  0.079539  0  4.014975  0
C  C101  1  0.48443859  0.83387923  0.44958507  1  -0.025041  0  -0.087678  -0.174344  0  3.925673  0
C  C102  1  0.59457944  0.87512643  0.66018503  1  -0.023143  0  -0.081129  -0.078876  0  3.981314  0
C  C103  1  0.60777328  0.87573276  0.60997096  1  -0.029208  0  -0.092366  -0.137775  0  3.990617  0
C  C104  1  0.46961747  0.83234116  0.60419860  1  -0.032963  0  -0.005535  0.080963  0  4.001558  0
C  C105  1  0.32470632  0.78781203  0.65082277  1  -0.010395  0  -0.095789  -0.199503  0  3.966807  0
C  C106  1  0.32070622  0.78652987  0.70147607  1  0.040915  0  0.01721  0.130631  0  4.055072  0
C  C107  1  0.44919980  0.83067152  0.70654120  1  0.041554  0  -0.013453  -0.095737  0  3.948461  0
C  C108  1  0.38888713  0.98687838  0.39226049  1  -0.013417  0  -0.094972  -0.198454  0  3.966957  0
C  C109  1  0.41350048  0.03735007  0.34297825  1  0.027941  0  0.017484  0.130922  0  4.051857  0
C  C110  1  0.55095396  0.03984953  0.29581014  1  0.059425  0  -0.013036  -0.094719  0  3.944263  0
C  C111  1  0.67896461  0.99094496  0.30010377  1  -0.037956  0  -0.081102  -0.079557  0  3.983499  0
C  C112  1  0.66541849  0.94081056  0.34985364  1  -0.049723  0  -0.093182  -0.138981  0  3.992432  0
C  C113  1  0.51466631  0.93773020  0.39660494  1  0.03242  0  -0.005919  0.081421  0  4.002601  0
C  C114  1  0.63128942  0.72746410  0.45457070  1  0.053673  0  -0.097087  -0.207741  0  3.970159  0
C  C115  1  0.63785865  0.67850321  0.45226491  1  0.039675  0  0.023658  0.148006  0  4.023031  0
C  C116  1  0.49386527  0.62968997  0.49471643  1  -0.01146  0  -0.015301  -0.107976  0  3.928161  0
C  C117  1  0.33872268  0.63290673  0.53802437  1  -0.031194  0  -0.077135  -0.066037  0  3.974266  0
C  C118  1  0.33318076  0.68163446  0.54036960  1  -0.016358  0  -0.094145  -0.144236  0  3.990637  0
C  C119  1  0.48133216  0.73006836  0.49839689  1  -0.033269  0  -0.002025  0.092538  0  3.995421  0
Cl  Cl120  1  0.14739342  0.01151128  0.72966363  1  -0.204106  0  -0.004597  -0.068272  0  1.516701  0
Cl  Cl121  1  0.26097172  0.06279310  0.09437586  1  -0.193708  0  -0.00385  -0.06699  0  1.521593  0
Cl  Cl122  1  0.83915090  0.42337748  0.68275014  1  -0.19129  0  -0.006397  -0.07092  0  1.533673  0
Cl  Cl123  1  0.84998200  0.23977023  0.27012039  1  -0.18822  0  -0.000385  -0.061955  0  1.564325  0
Cl  Cl124  1  0.75069525  0.65823412  0.90535197  1  -0.192609  0  0.000201  -0.061304  0  1.565167  0
Cl  Cl125  1  0.17333361  0.60490507  0.31819472  1  -0.190123  0  -0.00236  -0.065017  0  1.568457  0
Cl  Cl126  1  0.15501089  0.72943336  0.75847805  1  -0.201453  0  -0.00216  -0.064204  0  1.553646  0
Cl  Cl127  1  0.27001849  0.09710508  0.34078420  1  -0.201161  0  -0.002926  -0.065891  0  1.571345  0
Cl  Cl128  1  0.81532640  0.68227014  0.39429068  1  -0.186404  0  -0.004394  -0.067916  0  1.567918  0
O  O129  1  0.73476991  0.47301511  0.46032450  1  -1.260305  0  -0.243571  -0.600399  0  2.344074  0
O  O130  1  0.73513872  0.56485533  0.47331237  1  -1.246326  0  -0.23447  -0.59601  0  2.438513  0
O  O131  1  0.74534411  0.46094792  0.56538404  1  -1.24276  0  -0.234309  -0.597727  0  2.442522  0
O  O132  1  0.26084951  0.52447940  0.43518492  1  -1.250341  0  -0.23225  -0.595231  0  2.447859  0
O  O133  1  0.27155284  0.43355765  0.54132573  1  -1.249892  0  -0.240609  -0.598158  0  2.35348  0
O  O134  1  0.26930617  0.54057776  0.52470973  1  -1.255225  0  -0.240529  -0.597327  0  2.356941  0
O  O135  1  0.67446588  0.80563676  0.79511732  1  -1.251711  0  -0.23226  -0.603472  0  2.428653  0
O  O136  1  0.67469377  0.89814491  0.80589291  1  -1.251926  0  -0.232589  -0.599852  0  2.410467  0
O  O137  1  0.68743569  0.79334740  0.89973187  1  -1.256299  0  -0.238512  -0.592046  0  2.324403  0
O  O138  1  0.19910060  0.85677226  0.76693164  1  -1.246191  0  -0.232729  -0.587396  0  2.348803  0
O  O139  1  0.21217728  0.76801881  0.87395658  1  -1.248283  0  -0.227748  -0.595902  0  2.435857  0
O  O140  1  0.20714901  0.87519266  0.85690330  1  -1.248532  0  -0.233276  -0.58732  0  2.337837  0
O  O141  1  0.79515020  0.12611036  0.23225953  1  -1.254778  0  -0.229236  -0.595885  0  2.427538  0
O  O142  1  0.78558747  0.14072054  0.12719053  1  -1.252709  0  -0.231371  -0.599924  0  2.420904  0
O  O143  1  0.78948141  0.23274613  0.14135366  1  -1.254796  0  -0.23666  -0.59074  0  2.330773  0
O  O144  1  0.31999337  0.10029801  0.20694559  1  -1.249501  0  -0.236786  -0.595545  0  2.354192  0
O  O145  1  0.32174400  0.20552123  0.19232126  1  -1.25137  0  -0.230092  -0.599374  0  2.434649  0
O  O146  1  0.31036258  0.19195821  0.10025663  1  -1.246823  0  -0.235511  -0.588749  0  2.329259  0
