# generated using pymatgen
data_ZnH18C10(NO4)2
_symmetry_space_group_name_H-M   'P 1'
_cell_length_a   9.53099680
_cell_length_b   9.55855161
_cell_length_c   9.49351208
_cell_angle_alpha   97.86798843
_cell_angle_beta   120.13064494
_cell_angle_gamma   90.00040212
_symmetry_Int_Tables_number   1
_chemical_formula_structural   ZnH18C10(NO4)2
_chemical_formula_sum   'Zn2 H36 C20 N4 O16'
_cell_volume   738.59308306
_cell_formula_units_Z   2
loop_
 _symmetry_equiv_pos_site_id
 _symmetry_equiv_pos_as_xyz
  1  'x, y, z'
loop_
 _atom_site_type_symbol
 _atom_site_label
 _atom_site_symmetry_multiplicity
 _atom_site_fract_x
 _atom_site_fract_y
 _atom_site_fract_z
 _atom_site_occupancy
 _atom_site_hle17_bader_spin_density
 _atom_site_hle17_ddec_charge
 _atom_site_hle17_ddec_spin_density
 _atom_site_hle17_ddec_sum_bond_order
 _atom_site_hle17_magmom
 _atom_site_hse06_10hf_bader_spin_density
 _atom_site_hse06_10hf_ddec_charge
 _atom_site_hse06_10hf_ddec_spin_density
 _atom_site_hse06_10hf_ddec_sum_bond_order
 _atom_site_hse06_10hf_magmom
 _atom_site_hse06_bader_spin_density
 _atom_site_hse06_ddec_charge
 _atom_site_hse06_ddec_spin_density
 _atom_site_hse06_ddec_sum_bond_order
 _atom_site_hse06_magmom
 _atom_site_pbe_bader_spin_density
 _atom_site_pbe_cm5_charge
 _atom_site_pbe_ddec_charge
 _atom_site_pbe_ddec_spin_density
 _atom_site_pbe_ddec_sum_bond_order
 _atom_site_pbe_magmom
Zn  Zn0  1  0.23024480  0.24999555  0.99999725  1  0  1.167413  0  1.737647  0  0  1.018334  0  2.178977  0  0  1.064908  0  2.120158  0  0  0.670437  0.986289  0  2.220798  0
Zn  Zn1  1  0.76974992  0.75000170  0.99999858  1  0  1.167318  0  1.737807  0  0  1.018257  0  2.179135  0  0  1.064835  0  2.120318  0  0  0.670393  0.986207  0  2.220952  0
H  H2  1  0.54749411  0.36813007  0.18962935  1  0  0.417516  0  0.885112  0  0  0.384848  0  0.951729  0  0  0.395633  0  0.936195  0  0  0.285402  0.377273  0  0.962655  0
H  H3  1  0.35787106  0.13186865  0.81037479  1  0  0.417453  0  0.885219  0  0  0.38475  0  0.951892  0  0  0.395535  0  0.936359  0  0  0.285343  0.377174  0  0.962818  0
H  H4  1  0.45250573  0.63186554  0.81037360  1  0  0.417438  0  0.885232  0  0  0.38473  0  0.951905  0  0  0.395512  0  0.936376  0  0  0.285341  0.377154  0  0.962832  0
H  H5  1  0.64213193  0.86813544  0.18962771  1  0  0.417429  0  0.885259  0  0  0.384737  0  0.951916  0  0  0.395519  0  0.936387  0  0  0.285345  0.37716  0  0.962844  0
H  H6  1  0.52327631  0.20215411  0.20055939  1  0  0.409677  0  0.892465  0  0  0.375289  0  0.966753  0  0  0.386144  0  0.950989  0  0  0.287169  0.367233  0  0.978523  0
H  H7  1  0.32271655  0.29784437  0.79944218  1  0  0.409656  0  0.892527  0  0  0.375261  0  0.966811  0  0  0.386122  0  0.951038  0  0  0.287151  0.367205  0  0.978581  0
H  H8  1  0.47672108  0.79784150  0.79944025  1  0  0.409689  0  0.892456  0  0  0.375299  0  0.966743  0  0  0.386157  0  0.950972  0  0  0.28716  0.367242  0  0.978514  0
H  H9  1  0.67728519  0.70215867  0.20056272  1  0  0.409715  0  0.892442  0  0  0.375327  0  0.966711  0  0  0.386186  0  0.950939  0  0  0.287172  0.36727  0  0.978482  0
H  H10  1  0.91117524  0.40434501  0.85283557  1  0  0.063473  0  0.930449  0  0  0.068766  0  1.005391  0  0  0.071435  0  0.999471  0  0  0.127572  0.066644  0  1.009856  0
H  H11  1  0.05833770  0.09565079  0.14716472  1  0  0.063485  0  0.930504  0  0  0.068779  0  1.005444  0  0  0.07144  0  0.999528  0  0  0.127582  0.066658  0  1.009912  0
H  H12  1  0.08882019  0.59565590  0.14716277  1  0  0.063535  0  0.930488  0  0  0.06882  0  1.005447  0  0  0.071499  0  0.999513  0  0  0.127606  0.066699  0  1.009915  0
H  H13  1  0.94165757  0.90434800  0.85283536  1  0  0.063547  0  0.930452  0  0  0.068817  0  1.005409  0  0  0.071496  0  0.999473  0  0  0.127599  0.066695  0  1.009878  0
H  H14  1  0.54477818  0.37784795  0.49252231  1  0  0.108482  0  0.956175  0  0  0.127176  0  1.020986  0  0  0.128615  0  1.020101  0  0  0.101839  0.125983  0  1.021664  0
H  H15  1  0.05225619  0.12215268  0.50748122  1  0  0.10851  0  0.956128  0  0  0.127203  0  1.020944  0  0  0.128637  0  1.020065  0  0  0.101859  0.126009  0  1.021625  0
H  H16  1  0.45521397  0.62215614  0.50747907  1  0  0.108462  0  0.956182  0  0  0.127156  0  1.021  0  0  0.128598  0  1.020111  0  0  0.10181  0.125961  0  1.021677  0
H  H17  1  0.94774016  0.87784505  0.49251714  1  0  0.10849  0  0.9561  0  0  0.127175  0  1.020926  0  0  0.128615  0  1.020042  0  0  0.10185  0.125982  0  1.021603  0
H  H18  1  0.66946288  0.47640388  0.69657297  1  0  0.122067  0  0.962237  0  0  0.136535  0  1.034157  0  0  0.138255  0  1.03335  0  0  0.110167  0.135172  0  1.034906  0
H  H19  1  0.97288507  0.02359576  0.30342825  1  0  0.122059  0  0.962254  0  0  0.136537  0  1.034161  0  0  0.138258  0  1.03335  0  0  0.110181  0.135174  0  1.034911  0
H  H20  1  0.33053633  0.52359809  0.30343054  1  0  0.122035  0  0.962284  0  0  0.136511  0  1.034197  0  0  0.13823  0  1.033392  0  0  0.11015  0.135147  0  1.034947  0
H  H21  1  0.02711145  0.97640408  0.69656943  1  0  0.122039  0  0.962248  0  0  0.1365  0  1.034181  0  0  0.138217  0  1.033378  0  0  0.110158  0.135138  0  1.034932  0
H  H22  1  0.51719982  0.34429865  0.65847260  1  0  0.098484  0  0.930289  0  0  0.119001  0  0.991607  0  0  0.119424  0  0.992058  0  0  0.099301  0.118423  0  0.991556  0
H  H23  1  0.85872870  0.15570201  0.34152763  1  0  0.098495  0  0.930307  0  0  0.119013  0  0.991611  0  0  0.119437  0  0.992059  0  0  0.099301  0.118436  0  0.991561  0
H  H24  1  0.48279552  0.65570015  0.34153173  1  0  0.098547  0  0.930341  0  0  0.119067  0  0.991639  0  0  0.119494  0  0.992085  0  0  0.09934  0.11849  0  0.991589  0
H  H25  1  0.14127164  0.84429995  0.65847117  1  0  0.098475  0  0.930275  0  0  0.11899  0  0.991591  0  0  0.119414  0  0.992039  0  0  0.099301  0.118412  0  0.991541  0
H  H26  1  0.54673598  0.12399541  0.46879873  1  0  0.106586  0  0.945115  0  0  0.128649  0  1.003963  0  0  0.12939  0  1.003955  0  0  0.109507  0.127999  0  1.004161  0
H  H27  1  0.07793927  0.37601062  0.53119588  1  0  0.106588  0  0.945018  0  0  0.128688  0  1.003809  0  0  0.12944  0  1.003789  0  0  0.109546  0.128035  0  1.004005  0
H  H28  1  0.45326224  0.87601184  0.53118922  1  0  0.106579  0  0.945031  0  0  0.128655  0  1.003851  0  0  0.1294  0  1.003833  0  0  0.109514  0.128006  0  1.004051  0
H  H29  1  0.92205854  0.62399029  0.46880153  1  0  0.106572  0  0.945055  0  0  0.128671  0  1.003844  0  0  0.129425  0  1.003821  0  0  0.109513  0.128017  0  1.00404  0
H  H30  1  0.68081684  0.04873195  0.64909232  1  0  0.093353  0  0.946427  0  0  0.113208  0  1.012628  0  0  0.113048  0  1.013074  0  0  0.102237  0.113404  0  1.01221  0
H  H31  1  0.03173923  0.45126596  0.35089916  1  0  0.093357  0  0.946419  0  0  0.113175  0  1.012674  0  0  0.113014  0  1.013126  0  0  0.102266  0.113371  0  1.012254  0
H  H32  1  0.31916639  0.95126894  0.35089581  1  0  0.093491  0  0.946384  0  0  0.113378  0  1.012526  0  0  0.113218  0  1.012972  0  0  0.102345  0.113574  0  1.012109  0
H  H33  1  0.96827296  0.54873389  0.64909990  1  0  0.093394  0  0.946435  0  0  0.113205  0  1.012667  0  0  0.113045  0  1.013114  0  0  0.102246  0.113401  0  1.012249  0
H  H34  1  0.74828779  0.09210228  0.51543136  1  0  0.104558  0  0.938032  0  0  0.12698  0  0.99862  0  0  0.127715  0  0.998202  0  0  0.107797  0.126557  0  0.998763  0
H  H35  1  0.23286071  0.40789250  0.48456501  1  0  0.104617  0  0.938064  0  0  0.127049  0  0.998627  0  0  0.127783  0  0.998212  0  0  0.107846  0.126624  0  0.998769  0
H  H36  1  0.25171004  0.90789862  0.48456711  1  0  0.104568  0  0.937985  0  0  0.126947  0  0.998604  0  0  0.127681  0  0.998187  0  0  0.107815  0.126524  0  0.998747  0
H  H37  1  0.76714512  0.59210206  0.51544179  1  0  0.104576  0  0.938072  0  0  0.126951  0  0.998698  0  0  0.127685  0  0.998281  0  0  0.107792  0.126526  0  0.998841  0
C  C38  1  0.28767009  0.53523156  0.92107508  1  0  0.72145  0  3.988043  0  0  0.663198  0  4.287031  0  0  0.700927  0  4.272733  0  0  0.219079  0.636866  0  4.298001  0
C  C39  1  0.36659252  0.96475808  0.07893149  1  0  0.721283  0  3.988249  0  0  0.663179  0  4.287047  0  0  0.700906  0  4.272748  0  0  0.219061  0.636849  0  4.298015  0
C  C40  1  0.71234729  0.46476938  0.07894143  1  0  0.72152  0  3.987923  0  0  0.66327  0  4.286958  0  0  0.701005  0  4.27265  0  0  0.219106  0.636931  0  4.297933  0
C  C41  1  0.63341237  0.03524071  0.92106805  1  0  0.721482  0  3.988106  0  0  0.663341  0  4.286956  0  0  0.701074  0  4.272649  0  0  0.219144  0.637008  0  4.297929  0
C  C42  1  0.30623822  0.68661322  0.97485550  1  0  -0.136149  0  3.694885  0  0  -0.135483  0  3.959415  0  0  -0.137825  0  3.974974  0  0  -0.028749  -0.1355  0  3.952143  0
C  C43  1  0.33138230  0.81338165  0.02515225  1  0  -0.135918  0  3.694941  0  0  -0.135271  0  3.959389  0  0  -0.137612  0  3.97495  0  0  -0.028592  -0.13529  0  3.952116  0
C  C44  1  0.69377739  0.31338136  0.02516032  1  0  -0.136207  0  3.694857  0  0  -0.135516  0  3.959359  0  0  -0.13786  0  3.974921  0  0  -0.028702  -0.135534  0  3.952094  0
C  C45  1  0.66861909  0.18661820  0.97484888  1  0  -0.135924  0  3.694929  0  0  -0.135233  0  3.959362  0  0  -0.137576  0  3.974926  0  0  -0.028607  -0.135253  0  3.952096  0
C  C46  1  0.87979728  0.29543680  0.78488510  1  0  0.38703  0  3.788487  0  0  0.30929  0  4.077544  0  0  0.337315  0  4.078363  0  0  0.172823  0.29073  0  4.076032  0
C  C47  1  0.09490389  0.20455689  0.21510746  1  0  0.386905  0  3.788393  0  0  0.309184  0  4.077422  0  0  0.337218  0  4.078243  0  0  0.172769  0.290618  0  4.075917  0
C  C48  1  0.12020826  0.70455668  0.21510982  1  0  0.386941  0  3.788289  0  0  0.309187  0  4.077397  0  0  0.337206  0  4.078213  0  0  0.17269  0.290619  0  4.07589  0
C  C49  1  0.90509288  0.79544613  0.78488761  1  0  0.386813  0  3.788319  0  0  0.309125  0  4.077326  0  0  0.337145  0  4.078141  0  0  0.172723  0.290556  0  4.075821  0
C  C50  1  0.60742676  0.37304527  0.62518260  1  0  -0.189745  0  3.649688  0  0  -0.291845  0  3.900199  0  0  -0.289311  0  3.91101  0  0  -0.13819  -0.29306  0  3.892651  0
C  C51  1  0.98224156  0.12695416  0.37481810  1  0  -0.189766  0  3.64957  0  0  -0.291876  0  3.900087  0  0  -0.28934  0  3.910897  0  0  -0.138203  -0.293092  0  3.892541  0
C  C52  1  0.39256982  0.62695458  0.37481827  1  0  -0.189719  0  3.649607  0  0  -0.291831  0  3.900101  0  0  -0.289302  0  3.910912  0  0  -0.138149  -0.293045  0  3.892556  0
C  C53  1  0.01775604  0.87304357  0.62518298  1  0  -0.189678  0  3.649516  0  0  -0.291781  0  3.900066  0  0  -0.289247  0  3.910876  0  0  -0.13816  -0.292996  0  3.892519  0
C  C54  1  0.67244462  0.12486746  0.56881543  1  0  -0.161791  0  3.645557  0  0  -0.264756  0  3.891883  0  0  -0.259945  0  3.901249  0  0  -0.133875  -0.267687  0  3.885151  0
C  C55  1  0.10363729  0.37512859  0.43117742  1  0  -0.161867  0  3.645623  0  0  -0.26483  0  3.891909  0  0  -0.26003  0  3.901285  0  0  -0.134014  -0.267755  0  3.885171  0
C  C56  1  0.32754602  0.87513555  0.43117348  1  0  -0.161922  0  3.645471  0  0  -0.26485  0  3.89176  0  0  -0.26004  0  3.901126  0  0  -0.133996  -0.267786  0  3.885033  0
C  C57  1  0.89637019  0.62487126  0.56882776  1  0  -0.161847  0  3.645669  0  0  -0.264745  0  3.89194  0  0  -0.259942  0  3.901311  0  0  -0.13389  -0.26767  0  3.885204  0
N  N58  1  0.72620622  0.26760517  0.66213289  1  0  -0.086377  0  3.513441  0  0  0.019193  0  3.745144  0  0  -0.001403  0  3.771283  0  0  -0.281394  0.033306  0  3.726477  0
N  N59  1  0.06407586  0.23239307  0.33786459  1  0  -0.086317  0  3.513506  0  0  0.019228  0  3.745193  0  0  -0.00137  0  3.771337  0  0  -0.281375  0.03334  0  3.726527  0
N  N60  1  0.27378695  0.73239786  0.33786358  1  0  -0.086317  0  3.5135  0  0  0.019242  0  3.745198  0  0  -0.001352  0  3.771341  0  0  -0.281373  0.033352  0  3.726533  0
N  N61  1  0.93592179  0.76760572  0.66213456  1  0  -0.086273  0  3.513564  0  0  0.019273  0  3.745224  0  0  -0.001322  0  3.771369  0  0  -0.281382  0.033383  0  3.726558  0
O  O62  1  0.47882559  0.29617038  0.19986618  1  0  -0.838177  0  1.933684  0  0  -0.779501  0  2.135677  0  0  -0.800408  0  2.101549  0  0  -0.574807  -0.762802  0  2.159806  0
O  O63  1  0.27896304  0.20382667  0.80013308  1  0  -0.838105  0  1.933782  0  0  -0.779405  0  2.135773  0  0  -0.800311  0  2.101626  0  0  -0.574743  -0.762706  0  2.159902  0
O  O64  1  0.52117070  0.70382629  0.80013411  1  0  -0.838125  0  1.933796  0  0  -0.779408  0  2.135806  0  0  -0.800322  0  2.101693  0  0  -0.574753  -0.762712  0  2.159934  0
O  O65  1  0.72103605  0.79617530  0.19986299  1  0  -0.838165  0  1.933844  0  0  -0.77945  0  2.135795  0  0  -0.800378  0  2.101707  0  0  -0.574768  -0.76275  0  2.15992  0
O  O66  1  0.98128062  0.20280416  0.81970225  1  0  -0.545471  0  2.113152  0  0  -0.483388  0  2.385591  0  0  -0.509242  0  2.377382  0  0  -0.300703  -0.465373  0  2.390776  0
O  O67  1  0.16156960  0.29719340  0.18028451  1  0  -0.545397  0  2.112928  0  0  -0.483324  0  2.385374  0  0  -0.509171  0  2.377147  0  0  -0.300677  -0.465305  0  2.390557  0
O  O68  1  0.01871138  0.79720096  0.18028445  1  0  -0.545488  0  2.112687  0  0  -0.483409  0  2.385169  0  0  -0.509269  0  2.376976  0  0  -0.300648  -0.465389  0  2.390351  0
O  O69  1  0.83842209  0.70280645  0.81971185  1  0  -0.545411  0  2.112865  0  0  -0.483339  0  2.385287  0  0  -0.509199  0  2.377096  0  0  -0.300669  -0.465319  0  2.390469  0
O  O70  1  0.21888239  0.46296486  0.97571766  1  0  -0.62893  0  2.030188  0  0  -0.561169  0  2.288628  0  0  -0.590461  0  2.275274  0  0  -0.301846  -0.541484  0  2.298948  0
O  O71  1  0.24316328  0.03702460  0.02427944  1  0  -0.628884  0  2.030265  0  0  -0.561177  0  2.288619  0  0  -0.59047  0  2.275263  0  0  -0.301815  -0.541493  0  2.298941  0
O  O72  1  0.78113871  0.53703713  0.02429977  1  0  -0.628945  0  2.030273  0  0  -0.561201  0  2.288719  0  0  -0.590491  0  2.275362  0  0  -0.301854  -0.541516  0  2.299039  0
O  O73  1  0.75683850  0.96296887  0.97570626  1  0  -0.62891  0  2.030302  0  0  -0.56122  0  2.288749  0  0  -0.590509  0  2.275388  0  0  -0.301835  -0.541533  0  2.29907  0
O  O74  1  0.34169349  0.48988246  0.82640463  1  0  -0.629837  0  1.944947  0  0  -0.565218  0  2.154817  0  0  -0.591816  0  2.144815  0  0  -0.298602  -0.546879  0  2.162312  0
O  O75  1  0.51528490  0.01011181  0.17359434  1  0  -0.629771  0  1.94502  0  0  -0.565245  0  2.154863  0  0  -0.591834  0  2.144858  0  0  -0.29863  -0.546906  0  2.162359  0
O  O76  1  0.65832868  0.51011742  0.17361620  1  0  -0.629851  0  1.944867  0  0  -0.565303  0  2.154795  0  0  -0.591917  0  2.144807  0  0  -0.298638  -0.546958  0  2.16229  0
O  O77  1  0.48471828  0.98989544  0.82640236  1  0  -0.629864  0  1.944911  0  0  -0.56537  0  2.154824  0  0  -0.591982  0  2.144831  0  0  -0.298709  -0.547029  0  2.162322  0
