# generated using pymatgen
data_Cd2H54C49(N3O4)2
_symmetry_space_group_name_H-M   'P 1'
_cell_length_a   12.20291544
_cell_length_b   12.20291208
_cell_length_c   20.38532451
_cell_angle_alpha   89.99980558
_cell_angle_beta   90.00007996
_cell_angle_gamma   112.14584440
_symmetry_Int_Tables_number   1
_chemical_formula_structural   Cd2H54C49(N3O4)2
_chemical_formula_sum   'Cd4 H108 C98 N12 O16'
_cell_volume   2811.65669852
_cell_formula_units_Z   2
loop_
 _symmetry_equiv_pos_site_id
 _symmetry_equiv_pos_as_xyz
  1  'x, y, z'
loop_
 _atom_site_type_symbol
 _atom_site_label
 _atom_site_symmetry_multiplicity
 _atom_site_fract_x
 _atom_site_fract_y
 _atom_site_fract_z
 _atom_site_occupancy
 _atom_site_pbe_bader_charge
 _atom_site_pbe_bader_spin_density
 _atom_site_pbe_cm5_charge
 _atom_site_pbe_ddec_charge
 _atom_site_pbe_ddec_spin_density
 _atom_site_pbe_ddec_sum_bond_order
 _atom_site_pbe_magmom
Cd  Cd0  1  0.96382668  0.28796984  0.18475508  1  1.242892  0  0.748925  0.776959  0  2.240447  0
Cd  Cd1  1  0.03617345  0.71202968  0.68475415  1  1.24283  0  0.748926  0.776982  0  2.240435  0
Cd  Cd2  1  0.71202715  0.03616902  0.81524507  1  1.242829  0  0.748942  0.777022  0  2.240457  0
Cd  Cd3  1  0.28797302  0.96382815  0.31524602  1  1.242853  0  0.748902  0.776948  0  2.240446  0
H  H4  1  0.08192221  0.17580136  0.29971449  1  0.116413  0  0.11544  0.088447  0  1.019168  0
H  H5  1  0.91807884  0.82419623  0.79971210  1  0.116419  0  0.115401  0.088401  0  1.019119  0
H  H6  1  0.82419955  0.91807709  0.70028996  1  0.116407  0  0.115395  0.088411  0  1.019114  0
H  H7  1  0.17579790  0.08192460  0.20028917  1  0.11638  0  0.115434  0.088411  0  1.019184  0
H  H8  1  0.73460936  0.09516598  0.24128948  1  0.10181  0  0.113674  0.081765  0  1.018169  0
H  H9  1  0.26539341  0.90483670  0.74128933  1  0.101773  0  0.113639  0.081709  0  1.018186  0
H  H10  1  0.90483207  0.26539246  0.75871013  1  0.101817  0  0.113651  0.081695  0  1.018205  0
H  H11  1  0.09516451  0.73460938  0.25871237  1  0.101888  0  0.113668  0.081726  0  1.018171  0
H  H12  1  0.86463629  0.47124952  0.11741082  1  0.101517  0  0.115983  0.083185  0  1.008856  0
H  H13  1  0.13536204  0.52875215  0.61741034  1  0.101525  0  0.116  0.083213  0  1.008846  0
H  H14  1  0.52875446  0.13536525  0.88258991  1  0.101394  0  0.11599  0.083189  0  1.008814  0
H  H15  1  0.47125015  0.86463405  0.38259171  1  0.101379  0  0.115989  0.083169  0  1.008867  0
H  H16  1  0.17649371  0.42513952  0.07977124  1  0.110052  0  0.115363  0.086839  0  1.009631  0
H  H17  1  0.82350377  0.57485630  0.57976929  1  0.110067  0  0.115301  0.086769  0  1.009643  0
H  H18  1  0.57485509  0.82350329  0.92022856  1  0.110087  0  0.115317  0.086789  0  1.009575  0
H  H19  1  0.42514244  0.17649227  0.42023025  1  0.110123  0  0.115329  0.086845  0  1.009576  0
H  H20  1  0.60290363  0.13365388  0.05764011  1  0.012349  0  0.090689  0.100492  0  1.002775  0
H  H21  1  0.39709735  0.86634670  0.55764113  1  0.012281  0  0.090718  0.100545  0  1.002786  0
H  H22  1  0.86634883  0.39710019  0.94235680  1  0.012213  0  0.090704  0.100517  0  1.002801  0
H  H23  1  0.13365577  0.60289960  0.44235885  1  0.012213  0  0.090738  0.100561  0  1.002778  0
H  H24  1  0.69828010  0.08825854  0.00728289  1  0.065052  0  0.092471  0.112025  0  0.999806  0
H  H25  1  0.30172441  0.91174449  0.50728325  1  0.065095  0  0.092472  0.112006  0  0.999868  0
H  H26  1  0.91174653  0.30172592  0.99271471  1  0.065174  0  0.092488  0.112018  0  0.999845  0
H  H27  1  0.08825455  0.69827141  0.49271554  1  0.065186  0  0.092474  0.112037  0  0.999862  0
H  H28  1  0.37467181  0.43124732  0.14780360  1  0.020318  0  0.090988  0.095331  0  0.987822  0
H  H29  1  0.62532919  0.56875356  0.64780296  1  0.020285  0  0.090969  0.095313  0  0.987851  0
H  H30  1  0.56875367  0.62532570  0.85219599  1  0.020324  0  0.090971  0.095331  0  0.98781  0
H  H31  1  0.43124741  0.37466915  0.35219679  1  0.020291  0  0.090991  0.095327  0  0.987841  0
H  H32  1  0.34833426  0.28545000  0.17299391  1  0.053761  0  0.09448  0.114278  0  0.994168  0
H  H33  1  0.65166586  0.71454959  0.67299300  1  0.053761  0  0.094484  0.114302  0  0.994144  0
H  H34  1  0.71455330  0.65166731  0.82700977  1  0.053714  0  0.094522  0.114339  0  0.994214  0
H  H35  1  0.28544951  0.34833244  0.32701197  1  0.053831  0  0.0945  0.114306  0  0.994207  0
H  H36  1  0.02511891  0.00284637  0.37440562  1  0.135541  0  0.11704  0.145265  0  0.98561  0
H  H37  1  0.97488127  0.99715046  0.87440441  1  0.135594  0  0.11704  0.145204  0  0.985643  0
H  H38  1  0.99715258  0.97488322  0.62559849  1  0.135614  0  0.117048  0.145228  0  0.985682  0
H  H39  1  0.00284574  0.02511923  0.12559768  1  0.13554  0  0.117007  0.145177  0  0.985707  0
H  H40  1  0.66194987  0.91743308  0.31394823  1  0.110952  0  0.101974  0.108055  0  1.020063  0
H  H41  1  0.33805117  0.08256525  0.81394884  1  0.110599  0  0.101978  0.108048  0  1.020084  0
H  H42  1  0.08256040  0.33805286  0.68605009  1  0.110623  0  0.101997  0.108089  0  1.020023  0
H  H43  1  0.91743614  0.66195102  0.18605316  1  0.110646  0  0.101986  0.108059  0  1.020108  0
H  H44  1  0.91229186  0.63560144  0.03524225  1  0.057423  0  0.107213  0.112375  0  1.009647  0
H  H45  1  0.08771002  0.36439797  0.53524501  1  0.057386  0  0.107207  0.112435  0  1.0096  0
H  H46  1  0.36440110  0.08771256  0.96475537  1  0.05737  0  0.10721  0.112464  0  1.009638  0
H  H47  1  0.63560350  0.91228874  0.46475623  1  0.05735  0  0.107223  0.11245  0  1.009553  0
H  H48  1  0.23836823  0.58759701  0.99596010  1  0.069006  0  0.103244  0.106815  0  1.016104  0
H  H49  1  0.76163020  0.41239847  0.49595963  1  0.068516  0  0.103253  0.106826  0  1.016065  0
H  H50  1  0.41239691  0.76163164  0.00403858  1  0.068512  0  0.103266  0.106864  0  1.016089  0
H  H51  1  0.58760231  0.23836774  0.50403957  1  0.068841  0  0.103247  0.106833  0  1.016108  0
H  H52  1  0.73195147  0.34634012  0.03465871  1  0.024108  0  0.084351  0.075357  0  1.008495  0
H  H53  1  0.26805305  0.65366276  0.53465956  1  0.023964  0  0.084351  0.075359  0  1.008469  0
H  H54  1  0.65366469  0.26805449  0.96534102  1  0.024006  0  0.084341  0.075356  0  1.008515  0
H  H55  1  0.34633901  0.73194892  0.46534151  1  0.023975  0  0.084357  0.075354  0  1.008479  0
H  H56  1  0.42119855  0.50620461  0.26080787  1  0.027115  0  0.083749  0.072088  0  1.009322  0
H  H57  1  0.57880603  0.49379456  0.76080686  1  0.027177  0  0.083722  0.07201  0  1.009285  0
H  H58  1  0.49379925  0.57879371  0.73919511  1  0.026889  0  0.083745  0.072102  0  1.009257  0
H  H59  1  0.50620180  0.42120259  0.23919588  1  0.027122  0  0.083779  0.072136  0  1.009323  0
H  H60  1  0.70442370  0.80235226  0.40176645  1  -0.018303  0  0.090721  0.085501  0  0.996391  0
H  H61  1  0.29557559  0.19764490  0.90176580  1  -0.018288  0  0.090719  0.085519  0  0.99636  0
H  H62  1  0.19764540  0.29557766  0.59823308  1  -0.018317  0  0.090724  0.08553  0  0.996369  0
H  H63  1  0.80235380  0.70442528  0.09823500  1  -0.018267  0  0.09072  0.085493  0  0.996396  0
H  H64  1  0.84766377  0.85051643  0.43828832  1  0.050726  0  0.104486  0.1139  0  0.959144  0
H  H65  1  0.15233464  0.14948101  0.93828667  1  0.050463  0  0.104484  0.113947  0  0.959107  0
H  H66  1  0.14948083  0.15233619  0.56171233  1  0.050477  0  0.10451  0.113962  0  0.959065  0
H  H67  1  0.85051926  0.84766566  0.06171350  1  0.05046  0  0.104492  0.113912  0  0.959128  0
H  H68  1  0.03955467  0.72158104  0.93070313  1  0.052006  0  0.10055  0.107571  0  0.969169  0
H  H69  1  0.96045082  0.27841915  0.43070604  1  0.052049  0  0.100543  0.10757  0  0.969168  0
H  H70  1  0.27841672  0.96044744  0.06929556  1  0.052059  0  0.100536  0.107539  0  0.969171  0
H  H71  1  0.72158426  0.03955470  0.56929657  1  0.052127  0  0.100555  0.107554  0  0.969259  0
H  H72  1  0.18763541  0.73113215  0.93042504  1  0.046293  0  0.09333  0.09759  0  0.988623  0
H  H73  1  0.81236743  0.26886621  0.43042589  1  0.046393  0  0.093351  0.097662  0  0.988576  0
H  H74  1  0.26886702  0.81236599  0.06957336  1  0.046344  0  0.093351  0.097627  0  0.988612  0
H  H75  1  0.73113220  0.18763302  0.56957457  1  0.046316  0  0.093336  0.097594  0  0.988628  0
H  H76  1  0.92339022  0.77118436  0.34497719  1  0.048581  0  0.094589  0.09693  0  1.007611  0
H  H77  1  0.07660820  0.22881033  0.84497433  1  0.048576  0  0.094635  0.096949  0  1.007566  0
H  H78  1  0.22880996  0.07660825  0.65502467  1  0.048581  0  0.094641  0.096971  0  1.007543  0
H  H79  1  0.77118660  0.92339254  0.15502463  1  0.048543  0  0.094608  0.096942  0  1.007566  0
H  H80  1  0.78550537  0.72742548  0.30437591  1  0.019475  0  0.085106  0.074757  0  0.997835  0
H  H81  1  0.21449391  0.27257140  0.80437357  1  0.019392  0  0.085026  0.074706  0  0.997865  0
H  H82  1  0.27256968  0.21449271  0.69562581  1  0.019563  0  0.085044  0.074749  0  0.997834  0
H  H83  1  0.72742335  0.78550649  0.19562455  1  0.019608  0  0.085111  0.074761  0  0.997863  0
H  H84  1  0.15593330  0.91906083  0.96472795  1  0.034214  0  0.089697  0.084221  0  1.013985  0
H  H85  1  0.84406599  0.08093762  0.46472969  1  0.034246  0  0.089688  0.084227  0  1.013939  0
H  H86  1  0.08093559  0.84405835  0.03527112  1  0.034235  0  0.089699  0.084241  0  1.013983  0
H  H87  1  0.91906454  0.15593793  0.53527353  1  0.034162  0  0.0897  0.084243  0  1.013897  0
H  H88  1  0.82999889  0.63111590  0.43669572  1  0.043457  0  0.098754  0.103959  0  0.981623  0
H  H89  1  0.16999867  0.36887630  0.93669315  1  0.04355  0  0.09878  0.103965  0  0.981658  0
H  H90  1  0.36887982  0.17000383  0.56330620  1  0.043446  0  0.098785  0.10396  0  0.98167  0
H  H91  1  0.63112114  0.83000079  0.06330280  1  0.043484  0  0.098755  0.103937  0  0.981682  0
H  H92  1  0.69039777  0.58457237  0.39620776  1  0.057709  0  0.09179  0.089946  0  0.979691  0
H  H93  1  0.30959888  0.41542299  0.89620619  1  0.057698  0  0.091778  0.089946  0  0.979713  0
H  H94  1  0.41542421  0.30960178  0.60379599  1  0.057712  0  0.091779  0.089951  0  0.979684  0
H  H95  1  0.58457409  0.69040243  0.10379333  1  0.057729  0  0.091788  0.089962  0  0.979737  0
H  H96  1  0.00451875  0.60895546  0.37634512  1  0.078442  0  0.107383  0.116606  0  1.054881  0
H  H97  1  0.99547704  0.39103558  0.87634369  1  0.077969  0  0.107388  0.116614  0  1.05488  0
H  H98  1  0.39103638  0.99547719  0.62365466  1  0.078325  0  0.107364  0.116564  0  1.05491  0
H  H99  1  0.60896193  0.00452690  0.12365146  1  0.078249  0  0.107371  0.116558  0  1.054836  0
H  H100  1  0.64768175  0.43878099  0.30507910  1  0.078659  0  0.103781  0.113421  0  1.030022  0
H  H101  1  0.35231305  0.56122155  0.80507923  1  0.078726  0  0.103797  0.113478  0  1.030077  0
H  H102  1  0.56122092  0.35231220  0.69492136  1  0.07877  0  0.103791  0.113454  0  1.030078  0
H  H103  1  0.43878182  0.64769319  0.19492063  1  0.078839  0  0.103741  0.113333  0  1.030131  0
H  H104  1  0.06585015  0.48598916  0.29664725  1  0.1263  0  0.118673  0.104941  0  1.006047  0
H  H105  1  0.93414558  0.51400805  0.79664993  1  0.126195  0  0.118668  0.104958  0  1.006166  0
H  H106  1  0.51400537  0.93414306  0.70334887  1  0.126182  0  0.118643  0.104947  0  1.006131  0
H  H107  1  0.48599474  0.06585963  0.20334691  1  0.126156  0  0.118633  0.104924  0  1.006194  0
H  H108  1  0.72343912  0.32480177  0.22760538  1  0.15236  0  0.117378  0.103916  0  1.020366  0
H  H109  1  0.27655475  0.67520495  0.72760914  1  0.151856  0  0.117361  0.103869  0  1.020349  0
H  H110  1  0.67520417  0.27655065  0.77238996  1  0.151878  0  0.117368  0.103865  0  1.020298  0
H  H111  1  0.32480039  0.72345172  0.27239045  1  0.151986  0  0.117369  0.103891  0  1.020263  0
C  C112  1  0.77850197  0.17925691  0.09632679  1  1.533844  0  0.17905  0.601619  0  4.206419  0
C  C113  1  0.22150164  0.82074937  0.59632727  1  1.533984  0  0.179218  0.601896  0  4.206031  0
C  C114  1  0.82074973  0.22150117  0.90367178  1  1.533823  0  0.179217  0.601986  0  4.206052  0
C  C115  1  0.17925045  0.77849632  0.40367154  1  1.533891  0  0.179219  0.601912  0  4.206136  0
C  C116  1  0.20986786  0.34703058  0.19583522  1  1.531572  0  0.181247  0.599543  0  4.195201  0
C  C117  1  0.79013403  0.65297202  0.69583407  1  1.531257  0  0.181246  0.59957  0  4.195218  0
C  C118  1  0.65296914  0.79012792  0.80416621  1  1.531534  0  0.181284  0.599659  0  4.195071  0
C  C119  1  0.34702838  0.20986747  0.30416580  1  1.531528  0  0.181272  0.59961  0  4.19516  0
C  C120  1  0.98932095  0.11724974  0.30458608  1  0.459071  0  0.047675  0.099754  0  3.958443  0
C  C121  1  0.01068098  0.88274898  0.80458379  1  0.459127  0  0.047728  0.099801  0  3.958238  0
C  C122  1  0.88274982  0.01068100  0.69541730  1  0.45891  0  0.047696  0.099721  0  3.958198  0
C  C123  1  0.11724850  0.98932269  0.19541805  1  0.458829  0  0.047708  0.099862  0  3.958237  0
C  C124  1  0.79553053  0.07165431  0.27215978  1  0.49762  0  0.043067  0.094775  0  3.972756  0
C  C125  1  0.20447140  0.92834459  0.77215854  1  0.497552  0  0.043119  0.094882  0  3.972736  0
C  C126  1  0.92834021  0.20447279  0.72784094  1  0.497492  0  0.043187  0.095052  0  3.97265  0
C  C127  1  0.07165545  0.79553134  0.22784254  1  0.497504  0  0.043147  0.094962  0  3.972648  0
C  C128  1  0.94752322  0.50165869  0.08991016  1  0.499405  0  0.047637  0.094213  0  3.978699  0
C  C129  1  0.05247601  0.49834021  0.58991065  1  0.499372  0  0.047635  0.094193  0  3.978841  0
C  C130  1  0.49834217  0.05247780  0.91008869  1  0.499727  0  0.047677  0.094294  0  3.978635  0
C  C131  1  0.50165979  0.94752033  0.41008985  1  0.499729  0  0.04765  0.094267  0  3.978616  0
C  C132  1  0.12155278  0.47568798  0.06884959  1  0.449218  0  0.048291  0.096806  0  3.966727  0
C  C133  1  0.87844558  0.52430824  0.56884926  1  0.449567  0  0.04832  0.096854  0  3.966895  0
C  C134  1  0.52430765  0.87844797  0.93114859  1  0.449521  0  0.04834  0.096914  0  3.966849  0
C  C135  1  0.47569076  0.12155032  0.43115093  1  0.449283  0  0.048202  0.096647  0  3.966905  0
C  C136  1  0.69354389  0.15933422  0.03875497  1  -0.038015  0  -0.174903  -0.298055  0  3.917521  0
C  C137  1  0.30646152  0.84066816  0.53875449  1  -0.038093  0  -0.174959  -0.298195  0  3.91758  0
C  C138  1  0.84066928  0.30646389  0.96124302  1  -0.037894  0  -0.174923  -0.298133  0  3.917528  0
C  C139  1  0.15933178  0.69353525  0.46124392  1  -0.037886  0  -0.174947  -0.298216  0  3.917505  0
C  C140  1  0.34079317  0.36829915  0.18882335  1  -0.027152  0  -0.170576  -0.288959  0  3.937906  0
C  C141  1  0.65920520  0.63169886  0.68882212  1  -0.02716  0  -0.170589  -0.289056  0  3.937904  0
C  C142  1  0.63170547  0.65920447  0.81117824  1  -0.027161  0  -0.170656  -0.289206  0  3.937991  0
C  C143  1  0.36829647  0.34079339  0.31117955  1  -0.027194  0  -0.170644  -0.289016  0  3.937906  0
C  C144  1  0.95690378  0.02056353  0.34678172  1  -0.061287  0  -0.080197  -0.181901  0  3.896847  0
C  C145  1  0.04309727  0.97943543  0.84678122  1  -0.061293  0  -0.080188  -0.181791  0  3.896798  0
C  C146  1  0.97943753  0.04309805  0.65321882  1  -0.061306  0  -0.080194  -0.18176  0  3.896786  0
C  C147  1  0.02056168  0.95690540  0.15322053  1  -0.061287  0  -0.080203  -0.181838  0  3.896803  0
C  C148  1  0.75590976  0.97303907  0.31285675  1  -0.062435  0  -0.091843  -0.198158  0  3.970466  0
C  C149  1  0.24409218  0.02695797  0.81285689  1  -0.062106  0  -0.091888  -0.198192  0  3.970497  0
C  C150  1  0.02695382  0.24409255  0.68714163  1  -0.062086  0  -0.091955  -0.198297  0  3.970409  0
C  C151  1  0.97304185  0.75591017  0.18714358  1  -0.062086  0  -0.091902  -0.198224  0  3.970569  0
C  C152  1  0.97442442  0.59219639  0.04395447  1  -0.049947  0  -0.085628  -0.189707  0  3.948307  0
C  C153  1  0.02557657  0.40780345  0.54395709  1  -0.049939  0  -0.085654  -0.189797  0  3.948407  0
C  C154  1  0.40780340  0.02557756  0.95604379  1  -0.050193  0  -0.085676  -0.189873  0  3.948505  0
C  C155  1  0.59220031  0.97442345  0.45604498  1  -0.050306  0  -0.085699  -0.189885  0  3.94825  0
C  C156  1  0.15501971  0.56589948  0.02225766  1  -0.006244  0  -0.089844  -0.200923  0  3.971917  0
C  C157  1  0.84497775  0.43409748  0.52225895  1  -0.006557  0  -0.089851  -0.200897  0  3.971957  0
C  C158  1  0.43409532  0.84497842  0.97774044  1  -0.006523  0  -0.089925  -0.201061  0  3.971821  0
C  C159  1  0.56590310  0.15501961  0.47774180  1  -0.006346  0  -0.089849  -0.200947  0  3.971773  0
C  C160  1  0.72494787  0.27505690  0.99999931  1  -0.006883  0  -0.16311  -0.092975  0  3.923263  0
C  C161  1  0.27505585  0.72494468  0.50000025  1  -0.006753  0  -0.163109  -0.092911  0  3.923088  0
C  C162  1  0.41612729  0.41613072  0.25000166  1  -0.019551  0  -0.168762  -0.101584  0  3.976553  0
C  C163  1  0.58387552  0.58386782  0.74999998  1  -0.019336  0  -0.168656  -0.101285  0  3.976269  0
C  C164  1  0.83739007  0.94543661  0.35110393  1  -0.029018  0  0.010394  0.158395  0  3.968481  0
C  C165  1  0.16260923  0.05455838  0.85110346  1  -0.028916  0  0.010426  0.158347  0  3.968561  0
C  C166  1  0.05455679  0.16261000  0.64889510  1  -0.028904  0  0.010432  0.158319  0  3.968563  0
C  C167  1  0.94543977  0.83739245  0.14889735  1  -0.028919  0  0.010422  0.158333  0  3.968564  0
C  C168  1  0.08123915  0.62759501  0.00917070  1  -0.012293  0  0.012751  0.169532  0  3.948078  0
C  C169  1  0.91876184  0.37240338  0.50917267  1  -0.011659  0  0.012789  0.169523  0  3.948101  0
C  C170  1  0.37240324  0.91876550  0.99082671  1  -0.011602  0  0.012817  0.169565  0  3.947981  0
C  C171  1  0.62759959  0.08123579  0.49082779  1  -0.01179  0  0.012798  0.169601  0  3.947904  0
C  C172  1  0.79986098  0.83409638  0.39124516  1  0.010448  0  -0.156604  -0.206715  0  3.966742  0
C  C173  1  0.20013830  0.16590248  0.89124401  1  0.010447  0  -0.156624  -0.206793  0  3.966654  0
C  C174  1  0.16590113  0.20013950  0.60875593  1  0.010676  0  -0.15665  -0.206806  0  3.966689  0
C  C175  1  0.83409632  0.79986188  0.10875621  1  0.010436  0  -0.15659  -0.206632  0  3.96669  0
C  C176  1  0.11520012  0.73076579  0.96271687  1  -0.028969  0  -0.156921  -0.20463  0  3.934107  0
C  C177  1  0.88480186  0.26922960  0.46271925  1  -0.02918  0  -0.156895  -0.204687  0  3.934223  0
C  C178  1  0.26922867  0.88479908  0.03728093  1  -0.029237  0  -0.156886  -0.204573  0  3.934189  0
C  C179  1  0.73076878  0.11519943  0.53728376  1  -0.029145  0  -0.156893  -0.204546  0  3.934197  0
C  C180  1  0.82729469  0.73918949  0.35319682  1  0.00914  0  -0.157829  -0.12492  0  3.908848  0
C  C181  1  0.17270549  0.26080664  0.85319398  1  0.009381  0  -0.15777  -0.124854  0  3.908702  0
C  C182  1  0.26080570  0.17270499  0.64680494  1  0.009128  0  -0.157792  -0.124939  0  3.908724  0
C  C183  1  0.73919086  0.82729666  0.14680410  1  0.009453  0  -0.157868  -0.124996  0  3.908912  0
C  C184  1  0.15086600  0.84913438  0.00000067  1  -0.019156  0  -0.15687  -0.127646  0  3.893062  0
C  C185  1  0.84913674  0.15086801  0.50000206  1  -0.019247  0  -0.156885  -0.127659  0  3.892929  0
C  C186  1  0.78678436  0.61914716  0.38835359  1  -0.064291  0  -0.157682  -0.203204  0  3.957302  0
C  C187  1  0.21321316  0.38084940  0.88835152  1  -0.064426  0  -0.157717  -0.203232  0  3.957424  0
C  C188  1  0.38084955  0.21321606  0.61164780  1  -0.064203  0  -0.157739  -0.203212  0  3.957366  0
C  C189  1  0.61914876  0.78678810  0.11164546  1  -0.064559  0  -0.157685  -0.203215  0  3.957363  0
C  C190  1  0.82105770  0.53522983  0.34715837  1  -0.051727  0  0.007664  0.160378  0  3.97859  0
C  C191  1  0.17893716  0.46476594  0.84715806  1  -0.051355  0  0.007737  0.160469  0  3.978739  0
C  C192  1  0.46476442  0.17893558  0.65284172  1  -0.051522  0  0.007746  0.160441  0  3.978708  0
C  C193  1  0.53523302  0.82106719  0.15283875  1  -0.051336  0  0.007709  0.160499  0  3.978781  0
C  C194  1  0.93928257  0.54590043  0.34475815  1  -0.003174  0  -0.089369  -0.191318  0  3.94758  0
C  C195  1  0.06071496  0.45409473  0.84475776  1  -0.002498  0  -0.089439  -0.191412  0  3.947652  0
C  C196  1  0.45409219  0.06071559  0.65524062  1  -0.002857  0  -0.089429  -0.191344  0  3.947798  0
C  C197  1  0.54590701  0.93928867  0.15523742  1  -0.002862  0  -0.089356  -0.19128  0  3.947634  0
C  C198  1  0.74131160  0.45243252  0.30529987  1  -0.053767  0  -0.093647  -0.20471  0  3.968372  0
C  C199  1  0.25868765  0.54756845  0.80530093  1  -0.054408  0  -0.09367  -0.204813  0  3.968405  0
C  C200  1  0.54756805  0.25868564  0.69469973  1  -0.054361  0  -0.093633  -0.20473  0  3.968215  0
C  C201  1  0.45243472  0.74131730  0.19469734  1  -0.054454  0  -0.093654  -0.204689  0  3.96829  0
C  C202  1  0.97405933  0.47862507  0.30055388  1  0.459829  0  0.042954  0.08737  0  3.952264  0
C  C203  1  0.02593108  0.52137253  0.80055627  1  0.45958  0  0.042973  0.087376  0  3.952221  0
C  C204  1  0.52137160  0.02592998  0.69944209  1  0.459517  0  0.042995  0.087398  0  3.952143  0
C  C205  1  0.47862761  0.97407403  0.19944023  1  0.459426  0  0.042973  0.087406  0  3.952208  0
C  C206  1  0.78241399  0.38807344  0.26208308  1  0.454964  0  0.040008  0.085867  0  3.958142  0
C  C207  1  0.21757902  0.61193112  0.76208643  1  0.456097  0  0.040004  0.085936  0  3.958011  0
C  C208  1  0.61193079  0.21757463  0.73791323  1  0.455877  0  0.040035  0.085985  0  3.957951  0
C  C209  1  0.38807198  0.78242888  0.23791268  1  0.455943  0  0.040024  0.085921  0  3.958032  0
N  N210  1  0.91039448  0.14223708  0.26763591  1  -1.242908  0  -0.332859  -0.246438  0  3.522835  0
N  N211  1  0.08960832  0.85776382  0.76763423  1  -1.242982  0  -0.332882  -0.246471  0  3.522763  0
N  N212  1  0.85776325  0.08960767  0.73236683  1  -1.243043  0  -0.332889  -0.246523  0  3.522786  0
N  N213  1  0.14223509  0.91039582  0.23236728  1  -1.242984  0  -0.332929  -0.246561  0  3.522767  0
N  N214  1  0.01995863  0.44429645  0.10271561  1  -1.229571  0  -0.32202  -0.230928  0  3.472535  0
N  N215  1  0.98003883  0.55570252  0.60271579  1  -1.22986  0  -0.322018  -0.230923  0  3.472573  0
N  N216  1  0.55570201  0.98003921  0.89728346  1  -1.229877  0  -0.322018  -0.230956  0  3.472706  0
N  N217  1  0.44429729  0.01995716  0.39728548  1  -1.229585  0  -0.321888  -0.230769  0  3.472562  0
N  N218  1  0.89710197  0.40182139  0.25906477  1  -1.218984  0  -0.329207  -0.244664  0  3.507244  0
N  N219  1  0.10289547  0.59818406  0.75906756  1  -1.219127  0  -0.329205  -0.244689  0  3.507172  0
N  N220  1  0.59818224  0.10289375  0.74093071  1  -1.218907  0  -0.329227  -0.244767  0  3.507214  0
N  N221  1  0.40181965  0.89710941  0.24092993  1  -1.218876  0  -0.329183  -0.244745  0  3.507439  0
O  O222  1  0.85560442  0.13296815  0.09708428  1  -1.170004  0  -0.346431  -0.56979  0  2.094453  0
O  O223  1  0.14440709  0.86704935  0.59708607  1  -1.170052  0  -0.346524  -0.569924  0  2.094265  0
O  O224  1  0.86705281  0.14441052  0.90291202  1  -1.170015  0  -0.346533  -0.569975  0  2.094353  0
O  O225  1  0.13294912  0.85558929  0.40291305  1  -1.170002  0  -0.346564  -0.569966  0  2.094323  0
O  O226  1  0.77048942  0.24969176  0.14125463  1  -1.195946  0  -0.355168  -0.599858  0  2.214841  0
O  O227  1  0.22950540  0.75030516  0.64125329  1  -1.195953  0  -0.355239  -0.599959  0  2.214784  0
O  O228  1  0.75030444  0.22950215  0.85874579  1  -1.195935  0  -0.355269  -0.600038  0  2.214784  0
O  O229  1  0.24969397  0.77049409  0.35874612  1  -1.196003  0  -0.355215  -0.599939  0  2.214816  0
O  O230  1  0.13812910  0.26405335  0.15998253  1  -1.165494  0  -0.351352  -0.57616  0  2.186678  0
O  O231  1  0.86187277  0.73595027  0.65998126  1  -1.165214  0  -0.351381  -0.576204  0  2.186659  0
O  O232  1  0.73594504  0.86186873  0.84001844  1  -1.165571  0  -0.351389  -0.576172  0  2.186616  0
O  O233  1  0.26405159  0.13812776  0.34001860  1  -1.165562  0  -0.351394  -0.576213  0  2.186628  0
O  O234  1  0.17692387  0.41071125  0.23377567  1  -1.189044  0  -0.346121  -0.578677  0  2.11169  0
O  O235  1  0.82307805  0.58928787  0.73377418  1  -1.189001  0  -0.3461  -0.578668  0  2.111737  0
O  O236  1  0.58928473  0.82307212  0.76622660  1  -1.188948  0  -0.346103  -0.578708  0  2.111614  0
O  O237  1  0.41071277  0.17692512  0.26622681  1  -1.188961  0  -0.346079  -0.578663  0  2.11171  0
