# generated using pymatgen
data_Zn2H29C40S2N3O10
_symmetry_space_group_name_H-M   'P 1'
_cell_length_a   12.75513147
_cell_length_b   16.38685054
_cell_length_c   17.60771610
_cell_angle_alpha   96.07585657
_cell_angle_beta   90.05788336
_cell_angle_gamma   94.04829363
_symmetry_Int_Tables_number   1
_chemical_formula_structural   Zn2H29C40S2N3O10
_chemical_formula_sum   'Zn2 H29 C40 S2 N3 O10'
_cell_volume   3650.36377639
_cell_formula_units_Z   1
loop_
 _symmetry_equiv_pos_site_id
 _symmetry_equiv_pos_as_xyz
  1  'x, y, z'
loop_
 _atom_site_type_symbol
 _atom_site_label
 _atom_site_symmetry_multiplicity
 _atom_site_fract_x
 _atom_site_fract_y
 _atom_site_fract_z
 _atom_site_occupancy
 _atom_site_pbe_bader_charge
 _atom_site_pbe_bader_spin_density
 _atom_site_pbe_cm5_charge
 _atom_site_pbe_ddec_charge
 _atom_site_pbe_ddec_spin_density
 _atom_site_pbe_ddec_sum_bond_order
 _atom_site_pbe_magmom
Zn  Zn0  1  0.49164556  0.40974981  0.49555496  1  1.292003  0  0.67852  0.838628  0  2.383829  0
Zn  Zn1  1  0.51033896  0.58735274  0.49867026  1  1.288471  0  0.674104  0.837904  0  2.365114  0
H  H2  1  0.39384254  0.70894946  0.44023554  1  0.108944  0  0.126239  0.102295  0  0.979644  0
H  H3  1  0.38797416  0.86004640  0.44222231  1  0.070894  0  0.111003  0.117509  0  0.998327  0
H  H4  1  0.66726835  0.88483111  0.58475361  1  0.05423  0  0.109143  0.118885  0  0.995521  0
H  H5  1  0.34536904  0.10975395  0.40804740  1  0.053543  0  0.110169  0.119659  0  0.991107  0
H  H6  1  0.60488473  0.14151710  0.56934467  1  0.085392  0  0.112233  0.1189  0  0.993338  0
H  H7  1  0.60037993  0.29192998  0.56442138  1  0.129789  0  0.127249  0.104036  0  0.981481  0
H  H8  1  0.59878590  0.00708382  0.55541334  1  0.058952  0  0.107733  0.104253  0  0.99556  0
H  H9  1  0.40576112  0.99076727  0.44811146  1  0.051087  0  0.106343  0.100717  0  1.000177  0
H  H10  1  0.46317786  0.60751010  0.26410679  1  0.09362  0  0.100026  0.105349  0  1.010041  0
H  H11  1  0.46463575  0.60658549  0.12339693  1  0.036647  0  0.097618  0.097581  0  1.009511  0
H  H12  1  0.54540117  0.35441470  0.10461965  1  0.055907  0  0.095335  0.094602  0  1.016208  0
H  H13  1  0.45296250  0.64820930  0.88633165  1  0.025286  0  0.09476  0.094052  0  1.015039  0
H  H14  1  0.52766058  0.39463726  0.87413090  1  0.079296  0  0.098408  0.097847  0  1.01028  0
H  H15  1  0.52789790  0.38886229  0.73318313  1  0.102498  0  0.1029  0.106291  0  1.002281  0
H  H16  1  0.52747163  0.41216383  0.99313324  1  0.072046  0  0.097899  0.093862  0  1.012973  0
H  H17  1  0.46941839  0.59199127  0.00085334  1  0.033237  0  0.097842  0.093494  0  1.011203  0
H  H18  1  0.86441511  0.61696169  0.46678265  1  0.111255  0  0.114788  0.138728  0  0.985516  0
H  H19  1  0.73030171  0.68276477  0.54506983  1  0.104223  0  0.102117  0.15758  0  1.014565  0
H  H20  1  0.64888036  0.67732913  0.62456528  1  0.10577  0  0.106453  0.166778  0  1.008364  0
H  H21  1  0.73998247  0.76545921  0.62072154  1  0.034558  0  0.095589  0.137461  0  0.99356  0
H  H22  1  0.30116890  0.22953428  0.34760609  1  0.051765  0  0.097424  0.137047  0  0.988847  0
H  H23  1  0.35960808  0.32999038  0.37942065  1  0.078882  0  0.104628  0.161414  0  1.017065  0
H  H24  1  0.25720293  0.28529969  0.43229503  1  0.078481  0  0.104223  0.161892  0  0.982452  0
H  H25  1  0.48470727  0.30462442  0.28111182  1  0.048915  0  0.090212  0.131078  0  1.01628  0
H  H26  1  0.61668861  0.34157531  0.29209364  1  0.059847  0  0.096092  0.143701  0  0.98733  0
H  H27  1  0.57281654  0.28578523  0.20352976  1  0.013744  0  0.083336  0.111533  0  1.013812  0
H  H28  1  0.41691681  0.71055400  0.78139338  1  -0.003404  0  0.084677  0.114053  0  1.010675  0
H  H29  1  0.39020369  0.65212193  0.69097127  1  0.083904  0  0.095277  0.143452  0  0.989685  0
H  H30  1  0.51818761  0.69489486  0.71283044  1  0.045248  0  0.08929  0.128133  0  1.015507  0
C  C31  1  0.49769792  0.49036568  0.34986726  1  1.521244  0  0.213335  0.595415  0  4.157274  0
C  C32  1  0.29766661  0.51088531  0.50583003  1  1.680444  0  0.208782  0.602464  0  4.235795  0
C  C33  1  0.50037130  0.50478931  0.64463436  1  1.576311  0  0.217318  0.599824  0  4.156742  0
C  C34  1  0.70458656  0.49158143  0.49454790  1  1.590393  0  0.20638  0.598496  0  4.224241  0
C  C35  1  0.45331531  0.75081718  0.47113535  1  0.465774  0  0.054426  0.108983  0  3.951234  0
C  C36  1  0.45071989  0.83526070  0.47272948  1  0.048327  0  -0.085594  -0.190433  0  3.951723  0
C  C37  1  0.52877023  0.88669045  0.51415923  1  -0.00112  0  0.008118  0.159638  0  4.051787  0
C  C38  1  0.60520179  0.84777748  0.55174181  1  0.016429  0  -0.084572  -0.244971  0  3.88755  0
C  C39  1  0.60404019  0.76208431  0.54786507  1  0.460462  0  0.134928  0.341726  0  3.925909  0
C  C40  1  0.53449911  0.97631943  0.51966983  1  -0.036648  0  -0.078074  -0.118725  0  3.957657  0
C  C41  1  0.46924063  0.02199333  0.48434978  1  -0.026802  0  -0.074692  -0.110408  0  3.95867  0
C  C42  1  0.40334211  0.14820942  0.44382431  1  0.011297  0  -0.080203  -0.236547  0  3.879026  0
C  C43  1  0.47439131  0.11144888  0.48806956  1  -0.03836  0  0.008001  0.15529  0  4.053459  0
C  C44  1  0.54698535  0.16463956  0.53310073  1  0.015724  0  -0.083089  -0.185703  0  3.944538  0
C  C45  1  0.54487403  0.24866998  0.53105931  1  0.440333  0  0.055904  0.10988  0  3.939933  0
C  C46  1  0.40469584  0.23363358  0.44419808  1  0.486065  0  0.138685  0.344005  0  3.919575  0
C  C47  1  0.50176541  0.48255644  0.26445508  1  0.014606  0  -0.022367  -0.105116  0  3.909085  0
C  C48  1  0.48063448  0.55210841  0.22789706  1  -0.060069  0  -0.089183  -0.087771  0  4.029089  0
C  C49  1  0.48173041  0.55129858  0.14918506  1  0.009675  0  -0.098276  -0.146144  0  3.993189  0
C  C50  1  0.50492989  0.47934676  0.10290784  1  -0.025305  0  -0.011442  0.124601  0  4.072707  0
C  C51  1  0.52670692  0.41040844  0.13993154  1  -0.051482  0  -0.097099  -0.208926  0  3.933155  0
C  C52  1  0.52595008  0.40950960  0.21931296  1  0.010577  0  0.00229  0.174933  0  3.929328  0
C  C53  1  0.50775785  0.47240311  0.01991118  1  -0.120087  0  -0.09218  -0.131981  0  3.999048  0
C  C54  1  0.48885156  0.53152201  0.97446527  1  0.007489  0  -0.090904  -0.126884  0  3.995647  0
C  C55  1  0.47135483  0.59119822  0.85250273  1  -0.047572  0  -0.096282  -0.206749  0  3.933749  0
C  C56  1  0.49166549  0.52312615  0.89136468  1  -0.043396  0  -0.012541  0.12038  0  4.071677  0
C  C57  1  0.51274395  0.44946351  0.84688430  1  -0.029211  0  -0.095833  -0.142211  0  3.989455  0
C  C58  1  0.51346243  0.44592311  0.76800084  1  -0.116232  0  -0.086215  -0.085041  0  4.022562  0
C  C59  1  0.49541188  0.51492102  0.72989294  1  -0.026192  0  -0.018514  -0.095963  0  3.912539  0
C  C60  1  0.47299734  0.58947688  0.77287009  1  0.029769  0  4.2e-05  0.167673  0  3.938746  0
C  C61  1  0.10906208  0.44280507  0.52595283  1  0.355425  0  0.072029  0.016617  0  3.956669  0
C  C62  1  0.89031982  0.55960963  0.48350102  1  0.035921  0  -0.097924  -0.149339  0  3.99018  0
C  C63  1  0.18081221  0.50724104  0.51171553  1  -0.18742  0  -0.004161  -0.127855  0  3.889822  0
C  C64  1  0.82082159  0.49448290  0.49747497  1  -0.150494  0  -0.022171  -0.104033  0  3.956826  0
C  C65  1  0.99525664  0.53985758  0.49308911  1  -0.154322  0  -0.026355  -0.008514  0  4.081207  0
C  C66  1  0.00328160  0.46001815  0.51404851  1  -0.147981  0  -0.022845  -0.070707  0  4.083807  0
C  C67  1  0.68592874  0.72054312  0.58724339  1  -0.099131  0  -0.239433  -0.47466  0  3.927497  0
C  C68  1  0.32688739  0.27173614  0.39774687  1  -0.061867  0  -0.234579  -0.463382  0  3.921532  0
C  C69  1  0.55167355  0.33107640  0.25054002  1  -0.052187  0  -0.241979  -0.408478  0  3.980605  0
C  C70  1  0.44791559  0.66585009  0.73771337  1  -0.057624  0  -0.240787  -0.407371  0  3.977425  0
S  S71  1  0.11790079  0.59044326  0.48644997  1  0.294666  0  0.099576  0.145266  0  2.752245  0
S  S72  1  0.88216115  0.40879898  0.52111750  1  0.303436  0  0.089346  0.144913  0  2.803335  0
N  N73  1  0.52772521  0.71449642  0.50744416  1  -1.228491  0  -0.316881  -0.261414  0  3.426615  0
N  N74  1  0.47591240  0.28293662  0.48777996  1  -1.217441  0  -0.31412  -0.257445  0  3.423259  0
N  N75  1  0.13494957  0.36599562  0.55280375  1  0.342202  0  0.052905  0.5283  0  4.226713  0
O  O76  1  0.51065128  0.42613787  0.38298324  1  -1.167796  0  -0.309274  -0.544334  0  2.392755  0
O  O77  1  0.48129480  0.56090382  0.38441326  1  -1.171095  0  -0.32537  -0.558075  0  2.328823  0
O  O78  1  0.34515808  0.58215474  0.51643098  1  -1.161262  0  -0.316898  -0.547596  0  2.282796  0
O  O79  1  0.33757771  0.44313918  0.48772357  1  -1.166056  0  -0.305447  -0.536106  0  2.379116  0
O  O80  1  0.52424079  0.56894877  0.61106786  1  -1.175908  0  -0.312876  -0.554948  0  2.387916  0
O  O81  1  0.48177900  0.43241001  0.61123055  1  -1.158673  0  -0.314522  -0.536996  0  2.326841  0
O  O82  1  0.65534594  0.42452231  0.50863149  1  -1.169426  0  -0.319823  -0.551898  0  2.312888  0
O  O83  1  0.66461215  0.55686311  0.47873490  1  -1.170951  0  -0.315787  -0.545366  0  2.321478  0
O  O84  1  0.07176186  0.30524704  0.53385000  1  -0.485537  0  -0.167144  -0.374036  0  1.863466  0
O  O85  1  0.21400940  0.36492814  0.59319614  1  -0.41546  0  -0.128258  -0.31099  0  1.895709  0
