# generated using pymatgen
data_CdH29C23N3O5
_symmetry_space_group_name_H-M   'P 1'
_cell_length_a   7.86790166
_cell_length_b   9.50933343
_cell_length_c   15.39637438
_cell_angle_alpha   88.04762941
_cell_angle_beta   89.74747030
_cell_angle_gamma   74.47494315
_symmetry_Int_Tables_number   1
_chemical_formula_structural   CdH29C23N3O5
_chemical_formula_sum   'Cd2 H58 C46 N6 O10'
_cell_volume   1109.24602066
_cell_formula_units_Z   2
loop_
 _symmetry_equiv_pos_site_id
 _symmetry_equiv_pos_as_xyz
  1  'x, y, z'
loop_
 _atom_site_type_symbol
 _atom_site_label
 _atom_site_symmetry_multiplicity
 _atom_site_fract_x
 _atom_site_fract_y
 _atom_site_fract_z
 _atom_site_occupancy
 _atom_site_hle17_bader_spin_density
 _atom_site_hle17_ddec_charge
 _atom_site_hle17_ddec_spin_density
 _atom_site_hle17_ddec_sum_bond_order
 _atom_site_hle17_magmom
 _atom_site_hse06_10hf_bader_spin_density
 _atom_site_hse06_10hf_ddec_charge
 _atom_site_hse06_10hf_ddec_spin_density
 _atom_site_hse06_10hf_ddec_sum_bond_order
 _atom_site_hse06_10hf_magmom
 _atom_site_hse06_bader_spin_density
 _atom_site_hse06_ddec_charge
 _atom_site_hse06_ddec_spin_density
 _atom_site_hse06_ddec_sum_bond_order
 _atom_site_hse06_magmom
 _atom_site_pbe_bader_spin_density
 _atom_site_pbe_cm5_charge
 _atom_site_pbe_ddec_charge
 _atom_site_pbe_ddec_spin_density
 _atom_site_pbe_ddec_sum_bond_order
 _atom_site_pbe_magmom
Cd  Cd0  1  0.64748098  0.06632714  0.55726237  1  0  1.085416  0  1.660613  0  0  0.886467  0  2.101617  0  0  0.948841  0  2.049034  0  0  0.760548  0.839601  0  2.138007  0
Cd  Cd1  1  0.16075660  0.09470136  0.13654449  1  0  1.092568  0  1.677346  0  0  0.892336  0  2.126599  0  0  0.953734  0  2.073219  0  0  0.762331  0.846377  0  2.163536  0
H  H2  1  0.78250791  0.38837906  0.75858028  1  0  0.067773  0  0.937707  0  0  0.081495  0  0.994574  0  0  0.082935  0  0.994478  0  0  0.096733  0.080586  0  0.994505  0
H  H3  1  0.14089597  0.55585996  0.71803845  1  0  0.067048  0  0.946133  0  0  0.088383  0  1.004821  0  0  0.08875  0  1.005759  0  0  0.086574  0.088125  0  1.004199  0
H  H4  1  0.08254084  0.56045895  0.60759404  1  0  0.063909  0  0.983742  0  0  0.077092  0  1.055597  0  0  0.079089  0  1.054237  0  0  0.083475  0.075548  0  1.056818  0
H  H5  1  0.07421507  0.31516091  0.62757434  1  0  0.078811  0  0.956313  0  0  0.093091  0  1.022722  0  0  0.095162  0  1.021972  0  0  0.086766  0.091356  0  1.023636  0
H  H6  1  0.08840315  0.32351059  0.74134616  1  0  0.059293  0  0.948412  0  0  0.079823  0  1.007489  0  0  0.080011  0  1.008645  0  0  0.083528  0.079632  0  1.00679  0
H  H7  1  0.70600771  0.74129494  0.80276312  1  0  0.100422  0  0.967931  0  0  0.119122  0  1.035027  0  0  0.121261  0  1.033929  0  0  0.085919  0.117575  0  1.035851  0
H  H8  1  0.93486544  0.72647441  0.80886301  1  0  0.0886  0  0.971789  0  0  0.111053  0  1.036439  0  0  0.112073  0  1.036777  0  0  0.084323  0.110265  0  1.036246  0
H  H9  1  0.85934343  0.56886938  0.82709772  1  0  0.098329  0  0.954282  0  0  0.122425  0  1.0136  0  0  0.123724  0  1.013474  0  0  0.088323  0.121462  0  1.013759  0
H  H10  1  0.84087129  0.53083147  0.52650235  1  0  0.104224  0  0.953894  0  0  0.126825  0  1.015448  0  0  0.128141  0  1.015889  0  0  0.087886  0.125962  0  1.015044  0
H  H11  1  0.64778416  0.67816996  0.53513557  1  0  0.09505  0  0.959854  0  0  0.117344  0  1.0226  0  0  0.118628  0  1.022636  0  0  0.085147  0.116669  0  1.022222  0
H  H12  1  0.63064174  0.49555246  0.53596768  1  0  0.09022  0  0.977172  0  0  0.110644  0  1.044394  0  0  0.111607  0  1.045295  0  0  0.082312  0.10992  0  1.043838  0
H  H13  1  0.54010727  0.59578536  0.76601188  1  0  0.092131  0  0.968516  0  0  0.113079  0  1.034619  0  0  0.114108  0  1.03469  0  0  0.08265  0.112216  0  1.034701  0
H  H14  1  0.45516241  0.54477639  0.66958317  1  0  0.102825  0  0.964609  0  0  0.123426  0  1.029673  0  0  0.12491  0  1.029543  0  0  0.084784  0.122243  0  1.02997  0
H  H15  1  0.48207681  0.72497629  0.67723849  1  0  0.107745  0  0.960614  0  0  0.128521  0  1.022196  0  0  0.130077  0  1.022569  0  0  0.085941  0.127384  0  1.022081  0
H  H16  1  0.36994301  0.30742745  0.24939788  1  0  0.121016  0  0.97945  0  0  0.126354  0  1.047809  0  0  0.130177  0  1.045888  0  0  0.10957  0.123465  0  1.049553  0
H  H17  1  0.16502680  0.52953845  0.30661024  1  0  0.087138  0  0.958642  0  0  0.100589  0  1.017618  0  0  0.102658  0  1.01666  0  0  0.105665  0.099196  0  1.018085  0
H  H18  1  0.15207881  0.56780447  0.46834487  1  0  0.112029  0  0.949319  0  0  0.123476  0  1.006267  0  0  0.126897  0  1.004853  0  0  0.110971  0.120765  0  1.007942  0
H  H19  1  0.35476966  0.37551714  0.56509916  1  0  0.090907  0  0.939225  0  0  0.099402  0  1.002582  0  0  0.101573  0  1.000996  0  0  0.122301  0.097754  0  1.003617  0
H  H20  1  0.56400571  0.13657018  0.20940082  1  0  0.131784  0  0.961053  0  0  0.140343  0  1.021676  0  0  0.144507  0  1.01908  0  0  0.114014  0.137123  0  1.024019  0
H  H21  1  0.77500717  0.90681726  0.16934818  1  0  0.105168  0  0.954191  0  0  0.115883  0  1.011224  0  0  0.119208  0  1.007865  0  0  0.113265  0.113234  0  1.013937  0
H  H22  1  0.92752876  0.72777539  0.28719791  1  0  0.091491  0  0.964709  0  0  0.103318  0  1.023773  0  0  0.10566  0  1.024353  0  0  0.102337  0.101357  0  1.024015  0
H  H23  1  0.86573173  0.79795096  0.44351438  1  0  0.091223  0  0.991188  0  0  0.098369  0  1.056925  0  0  0.101412  0  1.054008  0  0  0.113777  0.096126  0  1.058839  0
H  H24  1  0.35355583  0.07646136  0.85168232  1  0  0.093467  0  0.966027  0  0  0.112514  0  1.034986  0  0  0.113051  0  1.035301  0  0  0.107269  0.112  0  1.034883  0
H  H25  1  0.28315719  0.91438878  0.86885027  1  0  0.102305  0  0.949394  0  0  0.120256  0  1.014404  0  0  0.121614  0  1.013488  0  0  0.102366  0.119199  0  1.015186  0
H  H26  1  0.12566754  0.08688209  0.86113607  1  0  0.089958  0  0.959373  0  0  0.107661  0  1.028953  0  0  0.10836  0  1.028216  0  0  0.099174  0.107007  0  1.029624  0
H  H27  1  0.43321852  0.12057882  0.72402912  1  0  0.043287  0  0.951995  0  0  0.051962  0  1.023819  0  0  0.053917  0  1.018391  0  0  0.12008  0.050384  0  1.027724  0
H  H28  1  0.12211807  0.94160900  0.63781336  1  0  0.119062  0  0.962907  0  0  0.135611  0  1.02854  0  0  0.137492  0  1.02719  0  0  0.112054  0.134264  0  1.029462  0
H  H29  1  0.98903455  0.98257055  0.73138039  1  0  0.095341  0  0.957232  0  0  0.116251  0  1.022045  0  0  0.116143  0  1.023175  0  0  0.102913  0.116051  0  1.021544  0
H  H30  1  0.16348163  0.81777384  0.73004842  1  0  0.09103  0  0.936111  0  0  0.114305  0  0.997435  0  0  0.114011  0  0.998165  0  0  0.102279  0.114329  0  0.997058  0
H  H31  1  0.04627810  0.11378261  0.48205465  1  0  0.130787  0  0.961057  0  0  0.139233  0  1.022981  0  0  0.143361  0  1.020206  0  0  0.113952  0.136042  0  1.025431  0
H  H32  1  0.25207862  0.87642581  0.52318681  1  0  0.104274  0  0.946086  0  0  0.116464  0  1.001008  0  0  0.119565  0  0.998117  0  0  0.113819  0.113939  0  1.003489  0
H  H33  1  0.42181297  0.71878952  0.40683823  1  0  0.092312  0  0.966563  0  0  0.103486  0  1.026843  0  0  0.105863  0  1.027314  0  0  0.102481  0.101473  0  1.027187  0
H  H34  1  0.38046900  0.81553923  0.25093510  1  0  0.091771  0  0.993293  0  0  0.09878  0  1.058403  0  0  0.101929  0  1.055624  0  0  0.114214  0.096411  0  1.060384  0
H  H35  1  0.86387537  0.29736234  0.43991698  1  0  0.122597  0  0.972217  0  0  0.128654  0  1.038899  0  0  0.132512  0  1.036953  0  0  0.109932  0.125731  0  1.040653  0
H  H36  1  0.66359445  0.52685925  0.38023834  1  0  0.086859  0  0.956258  0  0  0.101138  0  1.013566  0  0  0.103191  0  1.012641  0  0  0.105916  0.099882  0  1.013774  0
H  H37  1  0.66191538  0.58538801  0.21817906  1  0  0.121238  0  0.95216  0  0  0.129184  0  1.012978  0  0  0.133099  0  1.011152  0  0  0.111301  0.12615  0  1.014862  0
H  H38  1  0.87143925  0.40471508  0.12514617  1  0  0.088194  0  0.94378  0  0  0.096891  0  1.007551  0  0  0.099013  0  1.005957  0  0  0.121306  0.095254  0  1.00863  0
H  H39  1  0.34665766  0.72062095  0.94102836  1  0  0.059967  0  0.956298  0  0  0.071674  0  1.018572  0  0  0.073821  0  1.017201  0  0  0.092039  0.070157  0  1.019569  0
H  H40  1  0.65346212  0.59062233  0.05636988  1  0  0.068389  0  0.964661  0  0  0.08427  0  1.03117  0  0  0.086163  0  1.030069  0  0  0.086031  0.082566  0  1.032364  0
H  H41  1  0.63499273  0.57659229  0.94313137  1  0  0.058612  0  0.951047  0  0  0.076762  0  1.014612  0  0  0.0775  0  1.014823  0  0  0.082543  0.076165  0  1.014444  0
H  H42  1  0.56877207  0.37223098  0.08597318  1  0  0.074429  0  0.960966  0  0  0.086567  0  1.03134  0  0  0.088518  0  1.030617  0  0  0.085758  0.085009  0  1.032187  0
H  H43  1  0.62088453  0.33364186  0.97682332  1  0  0.062565  0  0.968308  0  0  0.084305  0  1.025226  0  0  0.084194  0  1.026726  0  0  0.085535  0.084327  0  1.024271  0
H  H44  1  0.16953779  0.44425697  0.88734620  1  0  0.104989  0  0.968647  0  0  0.12458  0  1.033214  0  0  0.126369  0  1.032817  0  0  0.087938  0.123278  0  1.033546  0
H  H45  1  0.38331655  0.32524816  0.87708903  1  0  0.085173  0  0.978563  0  0  0.106995  0  1.044574  0  0  0.10823  0  1.044407  0  0  0.081093  0.106155  0  1.044651  0
H  H46  1  0.35428470  0.51559105  0.86631274  1  0  0.095795  0  0.962673  0  0  0.118258  0  1.02508  0  0  0.119641  0  1.025049  0  0  0.085968  0.117337  0  1.025102  0
H  H47  1  0.01308113  0.76743405  0.02941950  1  0  0.107552  0  0.961809  0  0  0.127979  0  1.024554  0  0  0.129666  0  1.024616  0  0  0.085625  0.126776  0  1.02457  0
H  H48  1  0.97793541  0.59136033  0.01490894  1  0  0.102194  0  0.956394  0  0  0.122612  0  1.021126  0  0  0.124049  0  1.021134  0  0  0.08427  0.121497  0  1.021271  0
H  H49  1  0.06897198  0.67903823  0.93001735  1  0  0.090193  0  0.981864  0  0  0.111063  0  1.048036  0  0  0.111998  0  1.048547  0  0  0.081481  0.110299  0  1.047765  0
H  H50  1  0.18152507  0.69036054  0.16138132  1  0  0.093266  0  0.962062  0  0  0.115822  0  1.024579  0  0  0.117097  0  1.024633  0  0  0.084849  0.115126  0  1.024224  0
H  H51  1  0.36698736  0.53535372  0.16807689  1  0  0.102217  0  0.961715  0  0  0.123719  0  1.025042  0  0  0.124995  0  1.025641  0  0  0.086582  0.122846  0  1.024632  0
H  H52  1  0.15110820  0.51251029  0.15579160  1  0  0.089478  0  0.976245  0  0  0.109667  0  1.043971  0  0  0.11058  0  1.044821  0  0  0.082228  0.108979  0  1.043424  0
H  H53  1  0.84046687  0.15867134  0.83585400  1  0  0.096007  0  0.957171  0  0  0.116677  0  1.022118  0  0  0.117295  0  1.021912  0  0  0.107606  0.116062  0  1.02243  0
H  H54  1  0.60987636  0.18255977  0.84103114  1  0  0.092351  0  0.967318  0  0  0.109275  0  1.039316  0  0  0.110303  0  1.038183  0  0  0.09823  0.108347  0  1.040318  0
H  H55  1  0.74920501  0.01101699  0.81140468  1  0  0.111444  0  0.947055  0  0  0.128969  0  1.013826  0  0  0.130258  0  1.013569  0  0  0.106243  0.127938  0  1.01421  0
H  H56  1  0.67936759  0.93362495  0.04432201  1  0  0.116112  0  0.960865  0  0  0.133418  0  1.025486  0  0  0.135184  0  1.024155  0  0  0.112224  0.132065  0  1.026606  0
H  H57  1  0.65362496  0.87584784  0.93709953  1  0  0.096625  0  0.93112  0  0  0.122948  0  0.986153  0  0  0.12246  0  0.987576  0  0  0.106249  0.12317  0  0.985132  0
H  H58  1  0.50510194  0.03731040  0.97754288  1  0  0.100682  0  0.945856  0  0  0.121551  0  1.008695  0  0  0.121498  0  1.009737  0  0  0.104333  0.121364  0  1.008154  0
H  H59  1  0.94437527  0.16828476  0.96463074  1  0  0.041397  0  0.956415  0  0  0.050137  0  1.027314  0  0  0.052332  0  1.021298  0  0  0.119337  0.048284  0  1.031898  0
C  C60  1  0.85878250  0.64206925  0.69064438  1  0  -0.013675  0  3.516866  0  0  0.018774  0  3.735693  0  0  0.012954  0  3.753847  0  0  -0.013588  0.022781  0  3.723135  0
C  C61  1  0.72563466  0.55607100  0.65757465  1  0  0.172511  0  3.470254  0  0  0.205606  0  3.689927  0  0  0.206281  0  3.7104  0  0  -0.001814  0.204945  0  3.676512  0
C  C62  1  0.82031775  0.39651637  0.69012541  1  0  -0.167277  0  3.581474  0  0  -0.167977  0  3.808233  0  0  -0.174738  0  3.822326  0  0  -0.088505  -0.163214  0  3.797912  0
C  C63  1  0.04120548  0.53727143  0.67335292  1  0  -0.146982  0  3.647955  0  0  -0.195453  0  3.903729  0  0  -0.19615  0  3.916892  0  0  -0.171825  -0.195082  0  3.89522  0
C  C64  1  0.01962067  0.38116799  0.68323494  1  0  -0.114267  0  3.640847  0  0  -0.16109  0  3.899754  0  0  -0.161292  0  3.912596  0  0  -0.173011  -0.160849  0  3.891393  0
C  C65  1  0.83694979  0.67105587  0.78797466  1  0  -0.316796  0  3.703015  0  0  -0.40611  0  3.950306  0  0  -0.407771  0  3.960382  0  0  -0.245332  -0.404704  0  3.943421  0
C  C66  1  0.71158105  0.56562726  0.55788926  1  0  -0.340282  0  3.669398  0  0  -0.423359  0  3.905041  0  0  -0.426107  0  3.91517  0  0  -0.248795  -0.421354  0  3.897817  0
C  C67  1  0.53980692  0.60910216  0.69485631  1  0  -0.340771  0  3.679871  0  0  -0.425985  0  3.918974  0  0  -0.428682  0  3.929485  0  0  -0.249945  -0.42386  0  3.912137  0
C  C68  1  0.82794439  0.78761757  0.63860959  1  0  0.625088  0  3.86255  0  0  0.579789  0  4.149449  0  0  0.612786  0  4.145557  0  0  0.196452  0.557626  0  4.150506  0
C  C69  1  0.75365417  0.28229220  0.64387209  1  0  0.654431  0  3.859819  0  0  0.60719  0  4.153537  0  0  0.640739  0  4.148897  0  0  0.192054  0.585035  0  4.154549  0
C  C70  1  0.47338876  0.22473928  0.37756465  1  0  0.178512  0  3.758639  0  0  0.17446  0  3.998602  0  0  0.181259  0  4.01972  0  0  0.121525  0.170204  0  3.983494  0
C  C71  1  0.36533412  0.32576278  0.31902012  1  0  -0.14489  0  3.678573  0  0  -0.164234  0  3.929134  0  0  -0.171335  0  3.949904  0  0  -0.080045  -0.159846  0  3.915577  0
C  C72  1  0.24939808  0.45017043  0.35144446  1  0  -0.007096  0  3.73949  0  0  -0.025559  0  3.988365  0  0  -0.022528  0  4.008478  0  0  -0.069526  -0.027642  0  3.974719  0
C  C73  1  0.24176462  0.47186926  0.44071889  1  0  -0.129151  0  3.724561  0  0  -0.140644  0  3.973695  0  0  -0.147802  0  3.995152  0  0  -0.082424  -0.135975  0  3.959612  0
C  C74  1  0.35307434  0.36631425  0.49467432  1  0  0.140547  0  3.70146  0  0  0.108897  0  3.954679  0  0  0.11587  0  3.97331  0  0  0.054876  0.104965  0  3.941264  0
C  C75  1  0.60003429  0.08851312  0.34860694  1  0  0.169665  0  3.761561  0  0  0.165033  0  4.00363  0  0  0.171662  0  4.025857  0  0  0.116792  0.160303  0  3.988427  0
C  C76  1  0.63055518  0.05956965  0.26045464  1  0  -0.127467  0  3.635468  0  0  -0.147567  0  3.884806  0  0  -0.154654  0  3.904239  0  0  -0.072695  -0.143035  0  3.872255  0
C  C77  1  0.74886366  0.92896974  0.23756800  1  0  0.034069  0  3.677728  0  0  0.013624  0  3.928888  0  0  0.01866  0  3.94446  0  0  -0.056232  0.010315  0  3.918815  0
C  C78  1  0.83425903  0.83083795  0.30275479  1  0  -0.123057  0  3.73868  0  0  -0.13422  0  3.988264  0  0  -0.142125  0  4.011255  0  0  -0.085021  -0.129481  0  3.973432  0
C  C79  1  0.80001449  0.86751138  0.38909526  1  0  0.117988  0  3.730128  0  0  0.0862  0  3.982176  0  0  0.092967  0  4.002023  0  0  0.04171  0.08198  0  3.968529  0
C  C80  1  0.25192428  0.02231071  0.83561653  1  0  -0.163857  0  3.679354  0  0  -0.267453  0  3.93413  0  0  -0.263883  0  3.944858  0  0  -0.131064  -0.269558  0  3.926872  0
C  C81  1  0.34785805  0.06547482  0.68970602  1  0  0.40252  0  3.816205  0  0  0.325163  0  4.108708  0  0  0.354581  0  4.107584  0  0  0.170189  0.305389  0  4.10904  0
C  C82  1  0.12335793  0.93354924  0.70861260  1  0  -0.164714  0  3.652948  0  0  -0.267237  0  3.900083  0  0  -0.263263  0  3.910512  0  0  -0.136361  -0.269723  0  3.893078  0
C  C83  1  0.09884638  0.08864924  0.34352655  1  0  0.170138  0  3.75914  0  0  0.165913  0  4.000204  0  0  0.172407  0  4.022575  0  0  0.117417  0.161207  0  3.984968  0
C  C84  1  0.11876438  0.04512275  0.43157128  1  0  -0.121388  0  3.628296  0  0  -0.142727  0  3.877809  0  0  -0.14938  0  3.897209  0  0  -0.072008  -0.138443  0  3.865327  0
C  C85  1  0.23485910  0.91076631  0.45501637  1  0  0.029101  0  3.68034  0  0  0.008987  0  3.931336  0  0  0.013678  0  3.94731  0  0  -0.056852  0.005898  0  3.920997  0
C  C86  1  0.32952477  0.82399199  0.39070660  1  0  -0.126586  0  3.741594  0  0  -0.138331  0  3.99244  0  0  -0.146091  0  4.015325  0  0  -0.086044  -0.133611  0  3.977665  0
C  C87  1  0.30637079  0.87524608  0.30455014  1  0  0.119947  0  3.724409  0  0  0.088764  0  3.97585  0  0  0.095541  0  3.9952  0  0  0.040764  0.084444  0  3.962667  0
C  C88  1  0.97478560  0.22922517  0.31340863  1  0  0.175803  0  3.762752  0  0  0.172926  0  4.001286  0  0  0.179475  0  4.022969  0  0  0.120848  0.168856  0  3.985787  0
C  C89  1  0.86359471  0.32380830  0.37038529  1  0  -0.144227  0  3.678578  0  0  -0.164279  0  3.929048  0  0  -0.171267  0  3.949897  0  0  -0.080073  -0.160007  0  3.915481  0
C  C90  1  0.75042479  0.45267210  0.33651422  1  0  -0.006471  0  3.736102  0  0  -0.024654  0  3.984159  0  0  -0.021672  0  4.004317  0  0  -0.069299  -0.026784  0  3.970442  0
C  C91  1  0.74893317  0.48586333  0.24741963  1  0  -0.128674  0  3.712019  0  0  -0.13923  0  3.961821  0  0  -0.146369  0  3.982735  0  0  -0.081198  -0.13454  0  3.948145  0
C  C92  1  0.86386348  0.38642706  0.19525499  1  0  0.138849  0  3.704105  0  0  0.106981  0  3.957738  0  0  0.113852  0  3.976569  0  0  0.053907  0.10318  0  3.944118  0
C  C93  1  0.34103193  0.43378269  0.00037924  1  0  -0.012438  0  3.515165  0  0  0.019201  0  3.734223  0  0  0.013201  0  3.752573  0  0  -0.012401  0.023382  0  3.721346  0
C  C94  1  0.25155064  0.58972893  0.03693906  1  0  0.171148  0  3.471233  0  0  0.204631  0  3.689853  0  0  0.205382  0  3.710076  0  0  -0.002821  0.203968  0  3.676471  0
C  C95  1  0.38671008  0.67686295  0.00702282  1  0  -0.172627  0  3.584583  0  0  -0.172294  0  3.808015  0  0  -0.179307  0  3.82223  0  0  -0.090334  -0.167493  0  3.798069  0
C  C96  1  0.56953985  0.56650729  0.00532500  1  0  -0.116496  0  3.662146  0  0  -0.163572  0  3.921553  0  0  -0.163735  0  3.934268  0  0  -0.172972  -0.163236  0  3.91308  0
C  C97  1  0.53820158  0.41447794  0.01910050  1  0  -0.143637  0  3.644053  0  0  -0.190083  0  3.896092  0  0  -0.190657  0  3.90942  0  0  -0.173017  -0.189554  0  3.887123  0
C  C98  1  0.30904720  0.43062409  0.90217596  1  0  -0.308624  0  3.686358  0  0  -0.394276  0  3.926348  0  0  -0.396257  0  3.93696  0  0  -0.244468  -0.392721  0  3.918735  0
C  C99  1  0.06691037  0.66065293  0.00062938  1  0  -0.335922  0  3.671162  0  0  -0.419913  0  3.90757  0  0  -0.423002  0  3.918714  0  0  -0.249892  -0.417527  0  3.900074  0
C  C100  1  0.23848408  0.58085773  0.13645346  1  0  -0.340096  0  3.675901  0  0  -0.423204  0  3.910896  0  0  -0.425977  0  3.921229  0  0  -0.248823  -0.421098  0  3.903593  0
C  C101  1  0.26786105  0.31671376  0.04664196  1  0  0.630192  0  3.841927  0  0  0.58369  0  4.131264  0  0  0.616897  0  4.126963  0  0  0.196501  0.561666  0  4.132276  0
C  C102  1  0.73856317  0.10389718  0.85359139  1  0  -0.183102  0  3.681148  0  0  -0.290324  0  3.942656  0  0  -0.286876  0  3.952931  0  0  -0.134349  -0.292346  0  3.935755  0
C  C103  1  0.64279553  0.97083320  0.97750899  1  0  -0.161459  0  3.636517  0  0  -0.263155  0  3.881714  0  0  -0.259323  0  3.89233  0  0  -0.13431  -0.265514  0  3.874512  0
C  C104  1  0.86675933  0.10106042  0.99727744  1  0  0.395222  0  3.816075  0  0  0.318905  0  4.10641  0  0  0.348079  0  4.105688  0  0  0.171121  0.299222  0  4.10663  0
C  C105  1  0.37319860  0.80753170  0.06391412  1  0  0.66103  0  3.89029  0  0  0.614216  0  4.186782  0  0  0.647812  0  4.181196  0  0  0.19737  0.591581  0  4.189077  0
N  N106  1  0.46573272  0.24723520  0.46355333  1  0  -0.350306  0  3.250064  0  0  -0.280498  0  3.508856  0  0  -0.300244  0  3.528038  0  0  -0.321309  -0.266355  0  3.494323  0
N  N107  1  0.68591379  0.99311170  0.41141758  1  0  -0.370214  0  3.249976  0  0  -0.296925  0  3.513346  0  0  -0.318402  0  3.533379  0  0  -0.324787  -0.282221  0  3.499473  0
N  N108  1  0.24402909  0.01003839  0.74231795  1  0  -0.099374  0  3.521861  0  0  0.005555  0  3.755432  0  0  -0.015165  0  3.780707  0  0  -0.290414  0.019409  0  3.737921  0
N  N109  1  0.19348283  0.00390447  0.28174732  1  0  -0.372646  0  3.255577  0  0  -0.299928  0  3.521374  0  0  -0.321064  0  3.540646  0  0  -0.325791  -0.285422  0  3.508159  0
N  N110  1  0.97303026  0.26265203  0.22758309  1  0  -0.355486  0  3.257185  0  0  -0.285649  0  3.51797  0  0  -0.305443  0  3.537059  0  0  -0.323296  -0.27143  0  3.503435  0
N  N111  1  0.75883791  0.05556394  0.94432130  1  0  -0.096532  0  3.511793  0  0  0.007886  0  3.746301  0  0  -0.012824  0  3.771635  0  0  -0.288542  0.021718  0  3.728811  0
O  O112  1  0.35060144  0.05877287  0.60868729  1  0  -0.5406  0  2.051832  0  0  -0.484971  0  2.311104  0  0  -0.510538  0  2.304633  0  0  -0.31029  -0.466953  0  2.314862  0
O  O113  1  0.70007633  0.89304590  0.66470591  1  0  -0.65487  0  2.020478  0  0  -0.579948  0  2.270048  0  0  -0.612162  0  2.262478  0  0  -0.336945  -0.556818  0  2.274329  0
O  O114  1  0.84359166  0.21288782  0.58137072  1  0  -0.655487  0  1.958094  0  0  -0.587131  0  2.201227  0  0  -0.615435  0  2.190711  0  0  -0.335275  -0.566234  0  2.207328  0
O  O115  1  0.60755513  0.26121367  0.66832041  1  0  -0.649264  0  1.923905  0  0  -0.588478  0  2.157635  0  0  -0.616102  0  2.149343  0  0  -0.337399  -0.568418  0  2.162396  0
O  O116  1  0.91914230  0.79892144  0.57256668  1  0  -0.643435  0  1.956444  0  0  -0.59189  0  2.191186  0  0  -0.616811  0  2.183287  0  0  -0.331232  -0.573611  0  2.195574  0
O  O117  1  0.88140324  0.07287501  0.07733714  1  0  -0.530106  0  2.055623  0  0  -0.471739  0  2.313475  0  0  -0.497362  0  2.306453  0  0  -0.305307  -0.45369  0  2.317675  0
O  O118  1  0.47498793  0.79917926  0.12760389  1  0  -0.643753  0  1.937049  0  0  -0.595342  0  2.16671  0  0  -0.619003  0  2.158422  0  0  -0.33298  -0.578  0  2.171498  0
O  O119  1  0.24578409  0.92029537  0.04205127  1  0  -0.669732  0  2.024571  0  0  -0.593399  0  2.282763  0  0  -0.625912  0  2.273586  0  0  -0.345489  -0.570031  0  2.288085  0
O  O120  1  0.12034661  0.30086549  0.02216028  1  0  -0.643531  0  1.921453  0  0  -0.58417  0  2.152236  0  0  -0.611415  0  2.143603  0  0  -0.336493  -0.564406  0  2.157277  0
O  O121  1  0.35671723  0.23934588  0.10969844  1  0  -0.656438  0  1.984549  0  0  -0.587889  0  2.230892  0  0  -0.616375  0  2.220242  0  0  -0.335292  -0.56709  0  2.237253  0
