# generated using pymatgen
data_CdH15C13N2O7
_symmetry_space_group_name_H-M   'P 1'
_cell_length_a   9.07233965
_cell_length_b   10.27670974
_cell_length_c   10.19819864
_cell_angle_alpha   63.33808855
_cell_angle_beta   64.40493622
_cell_angle_gamma   80.10919654
_symmetry_Int_Tables_number   1
_chemical_formula_structural   CdH15C13N2O7
_chemical_formula_sum   'Cd2 H30 C26 N4 O14'
_cell_volume   766.04581061
_cell_formula_units_Z   2
loop_
 _symmetry_equiv_pos_site_id
 _symmetry_equiv_pos_as_xyz
  1  'x, y, z'
loop_
 _atom_site_type_symbol
 _atom_site_label
 _atom_site_symmetry_multiplicity
 _atom_site_fract_x
 _atom_site_fract_y
 _atom_site_fract_z
 _atom_site_occupancy
 _atom_site_hle17_bader_spin_density
 _atom_site_hle17_ddec_charge
 _atom_site_hle17_ddec_spin_density
 _atom_site_hle17_ddec_sum_bond_order
 _atom_site_hle17_magmom
 _atom_site_hse06_10hf_bader_spin_density
 _atom_site_hse06_10hf_ddec_charge
 _atom_site_hse06_10hf_ddec_spin_density
 _atom_site_hse06_10hf_ddec_sum_bond_order
 _atom_site_hse06_10hf_magmom
 _atom_site_hse06_bader_spin_density
 _atom_site_hse06_ddec_charge
 _atom_site_hse06_ddec_spin_density
 _atom_site_hse06_ddec_sum_bond_order
 _atom_site_hse06_magmom
 _atom_site_pbe_bader_spin_density
 _atom_site_pbe_cm5_charge
 _atom_site_pbe_ddec_charge
 _atom_site_pbe_ddec_spin_density
 _atom_site_pbe_ddec_sum_bond_order
 _atom_site_pbe_magmom
Cd  Cd0  1  0.42676201  0.59880343  0.25084757  1  0  1.176362  0  1.596698  0  0  0.997017  0  2.027583  0  0  1.054999  0  1.97321  0  0  0.761809  0.952849  0  2.066707  0
Cd  Cd1  1  0.57324015  0.40120223  0.74914725  1  0  1.176373  0  1.596691  0  0  0.997003  0  2.027574  0  0  1.054982  0  1.973203  0  0  0.761805  0.952831  0  2.066696  0
H  H2  1  0.59716673  0.69884673  0.89861439  1  0  0.421202  0  0.88977  0  0  0.385896  0  0.961538  0  0  0.397646  0  0.944622  0  0  0.28086  0.377478  0  0.973621  0
H  H3  1  0.40283537  0.30114913  0.10138467  1  0  0.421129  0  0.889854  0  0  0.385824  0  0.961625  0  0  0.397571  0  0.944713  0  0  0.280805  0.377406  0  0.973707  0
H  H4  1  0.60951895  0.81520941  0.95660427  1  0  0.422401  0  0.826932  0  0  0.40166  0  0.889064  0  0  0.410529  0  0.878586  0  0  0.311674  0.395232  0  0.896627  0
H  H5  1  0.39049285  0.18478109  0.04339737  1  0  0.422465  0  0.826742  0  0  0.401741  0  0.888855  0  0  0.410609  0  0.878373  0  0  0.311739  0.395311  0  0.896424  0
H  H6  1  0.30475879  0.43631435  0.59048862  1  0  0.429953  0  0.870217  0  0  0.3984  0  0.935032  0  0  0.409899  0  0.918377  0  0  0.28885  0.390165  0  0.946987  0
H  H7  1  0.69523848  0.56368905  0.40950803  1  0  0.42988  0  0.870307  0  0  0.398327  0  0.935124  0  0  0.409824  0  0.918473  0  0  0.288814  0.390089  0  0.947082  0
H  H8  1  0.32810221  0.59417313  0.55513022  1  0  0.423594  0  0.867224  0  0  0.393422  0  0.936813  0  0  0.40391  0  0.921577  0  0  0.293074  0.385878  0  0.94782  0
H  H9  1  0.67189869  0.40582812  0.44486795  1  0  0.423569  0  0.867223  0  0  0.393402  0  0.936835  0  0  0.40389  0  0.921599  0  0  0.293059  0.385857  0  0.947843  0
H  H10  1  0.81076999  0.78933074  0.33964110  1  0  0.109327  0  0.978557  0  0  0.118446  0  1.043888  0  0  0.121839  0  1.042264  0  0  0.105915  0.116074  0  1.0451  0
H  H11  1  0.18923338  0.21067706  0.66035430  1  0  0.109374  0  0.978501  0  0  0.118498  0  1.043833  0  0  0.12189  0  1.042207  0  0  0.105914  0.116119  0  1.045055  0
H  H12  1  0.78974524  0.20168418  0.36143946  1  0  0.106546  0  0.965881  0  0  0.116326  0  1.032239  0  0  0.120447  0  1.028519  0  0  0.106851  0.113341  0  1.034943  0
H  H13  1  0.21025565  0.79832243  0.63855935  1  0  0.10652  0  0.965789  0  0  0.116315  0  1.03213  0  0  0.120435  0  1.028411  0  0  0.106844  0.113327  0  1.034837  0
H  H14  1  0.42860546  0.08233869  0.26292646  1  0  0.095721  0  0.972376  0  0  0.105114  0  1.037666  0  0  0.109385  0  1.033614  0  0  0.104207  0.102022  0  1.040842  0
H  H15  1  0.57138921  0.91766545  0.73708262  1  0  0.095706  0  0.972478  0  0  0.105102  0  1.037765  0  0  0.109371  0  1.033717  0  0  0.104181  0.102015  0  1.040939  0
H  H16  1  0.88845326  0.75065258  0.56029529  1  0  0.079486  0  0.955583  0  0  0.094489  0  1.025213  0  0  0.094804  0  1.024809  0  0  0.093892  0.094321  0  1.025253  0
H  H17  1  0.11153545  0.24934851  0.43970459  1  0  0.079587  0  0.955591  0  0  0.094576  0  1.025211  0  0  0.094892  0  1.024807  0  0  0.093936  0.094398  0  1.025265  0
H  H18  1  0.09042193  0.81913953  0.49400331  1  0  0.098887  0  0.951197  0  0  0.114275  0  1.017265  0  0  0.11518  0  1.016296  0  0  0.102815  0.113576  0  1.017937  0
H  H19  1  0.90957037  0.18085393  0.50600145  1  0  0.098886  0  0.951197  0  0  0.114282  0  1.017248  0  0  0.115187  0  1.016281  0  0  0.102822  0.113589  0  1.017915  0
H  H20  1  0.04327999  0.77389746  0.36682224  1  0  0.076891  0  0.978078  0  0  0.093387  0  1.045846  0  0  0.093538  0  1.046367  0  0  0.092537  0.093214  0  1.045525  0
H  H21  1  0.95671358  0.22610474  0.63317828  1  0  0.076927  0  0.978154  0  0  0.093424  0  1.045899  0  0  0.093576  0  1.046422  0  0  0.092548  0.093255  0  1.045573  0
H  H22  1  0.19400911  0.87564280  0.08036819  1  0  0.111511  0  0.936176  0  0  0.125014  0  0.987575  0  0  0.127112  0  0.987142  0  0  0.122891  0.123409  0  0.988185  0
H  H23  1  0.80598811  0.12434975  0.91963217  1  0  0.111535  0  0.936009  0  0  0.125037  0  0.987411  0  0  0.127136  0  0.986978  0  0  0.122891  0.123433  0  0.988019  0
H  H24  1  0.96234753  0.81997174  0.99810415  1  0  0.12447  0  0.933662  0  0  0.13797  0  0.98561  0  0  0.140724  0  0.984373  0  0  0.129141  0.135946  0  0.986605  0
H  H25  1  0.03765334  0.18001761  0.00189622  1  0  0.124463  0  0.933583  0  0  0.137911  0  0.985598  0  0  0.140664  0  0.984362  0  0  0.129125  0.135894  0  0.98659  0
H  H26  1  0.18033555  0.42667309  0.20316697  1  0  0.102523  0  0.967017  0  0  0.1126  0  1.029353  0  0  0.11519  0  1.026001  0  0  0.136983  0.110665  0  1.031711  0
H  H27  1  0.81967027  0.57332401  0.79682721  1  0  0.102328  0  0.967023  0  0  0.112439  0  1.029354  0  0  0.115028  0  1.026002  0  0  0.136928  0.110503  0  1.031712  0
H  H28  1  0.84560987  0.58926727  0.04706507  1  0  0.105035  0  0.932999  0  0  0.11791  0  0.997233  0  0  0.119533  0  0.996042  0  0  0.117199  0.116533  0  0.998409  0
H  H29  1  0.15439347  0.41072540  0.95293294  1  0  0.105085  0  0.932973  0  0  0.117933  0  0.997204  0  0  0.119556  0  0.996013  0  0  0.117224  0.116554  0  0.998376  0
H  H30  1  0.89263780  0.42316119  0.18102631  1  0  0.084692  0  0.938104  0  0  0.097635  0  1.004156  0  0  0.09856  0  1.003744  0  0  0.113306  0.09675  0  1.004692  0
H  H31  1  0.10736799  0.57683152  0.81897076  1  0  0.084726  0  0.938114  0  0  0.097653  0  1.00417  0  0  0.098582  0  1.003753  0  0  0.113317  0.096756  0  1.00472  0
C  C32  1  0.55061149  0.82350523  0.26631220  1  0  0.631431  0  3.931625  0  0  0.58427  0  4.215669  0  0  0.617933  0  4.210424  0  0  0.191314  0.561298  0  4.218534  0
C  C33  1  0.44938815  0.17649807  0.73368949  1  0  0.631392  0  3.931762  0  0  0.584232  0  4.215785  0  0  0.617897  0  4.210539  0  0  0.191288  0.56126  0  4.218655  0
C  C34  1  0.61636404  0.92857042  0.29398767  1  0  -0.04221  0  3.78884  0  0  -0.017248  0  4.026758  0  0  -0.024374  0  4.049597  0  0  -0.021737  -0.012737  0  4.011866  0
C  C35  1  0.38363558  0.07143607  0.70601559  1  0  -0.041996  0  3.788836  0  0  -0.016988  0  4.026688  0  0  -0.024113  0  4.049524  0  0  -0.021617  -0.012486  0  4.01181  0
C  C36  1  0.75384497  0.89319166  0.33126023  1  0  -0.191839  0  3.718347  0  0  -0.227243  0  3.969926  0  0  -0.229476  0  3.989437  0  0  -0.100029  -0.225029  0  3.956602  0
C  C37  1  0.24615347  0.10681491  0.66873951  1  0  -0.191919  0  3.718406  0  0  -0.227365  0  3.969996  0  0  -0.2296  0  3.989509  0  0  -0.100047  -0.225143  0  3.95667  0
C  C38  1  0.81591797  0.99182672  0.35597478  1  0  0.259747  0  3.834346  0  0  0.256467  0  4.092949  0  0  0.265247  0  4.109775  0  0  0.082523  0.250034  0  4.081446  0
C  C39  1  0.18407802  0.00817978  0.64402690  1  0  0.259713  0  3.834543  0  0  0.256439  0  4.093138  0  0  0.265218  0  4.109966  0  0  0.082523  0.250016  0  4.081628  0
C  C40  1  0.74146330  0.12584803  0.34114616  1  0  -0.163331  0  3.708861  0  0  -0.204674  0  3.971164  0  0  -0.20553  0  3.987813  0  0  -0.090828  -0.203094  0  3.959361  0
C  C41  1  0.25853757  0.87415748  0.65885411  1  0  -0.163276  0  3.708704  0  0  -0.204602  0  3.970968  0  0  -0.205458  0  3.987619  0  0  -0.090807  -0.203023  0  3.959161  0
C  C42  1  0.60407244  0.16075663  0.30473389  1  0  -0.055093  0  3.806119  0  0  -0.028353  0  4.042495  0  0  -0.036113  0  4.066704  0  0  -0.021807  -0.023611  0  4.02672  0
C  C43  1  0.39592718  0.83924770  0.69526932  1  0  -0.055083  0  3.80607  0  0  -0.028362  0  4.042463  0  0  -0.036123  0  4.066674  0  0  -0.0218  -0.023611  0  4.026677  0
C  C44  1  0.54013524  0.06075871  0.28331172  1  0  -0.095434  0  3.732656  0  0  -0.136749  0  3.987297  0  0  -0.135996  0  4.007702  0  0  -0.088369  -0.137557  0  3.974744  0
C  C45  1  0.45986436  0.93924667  0.71669301  1  0  -0.095609  0  3.732944  0  0  -0.136953  0  3.987621  0  0  -0.1362  0  4.008026  0  0  -0.088464  -0.137766  0  3.975071  0
C  C46  1  0.52765346  0.30501198  0.28723219  1  0  0.654269  0  3.8944  0  0  0.601436  0  4.184894  0  0  0.635692  0  4.178696  0  0  0.206271  0.578088  0  4.188478  0
C  C47  1  0.47234618  0.69499133  0.71276950  1  0  0.654367  0  3.894357  0  0  0.601535  0  4.184841  0  0  0.63579  0  4.178648  0  0  0.206378  0.578185  0  4.188425  0
C  C48  1  0.99442323  0.81793152  0.45722418  1  0  -0.068268  0  3.623803  0  0  -0.164345  0  3.88748  0  0  -0.156865  0  3.890582  0  0  -0.144096  -0.169104  0  3.884992  0
C  C49  1  0.00557278  0.18206963  0.54277587  1  0  -0.06843  0  3.623952  0  0  -0.1645  0  3.887626  0  0  -0.157022  0  3.890727  0  0  -0.14415  -0.169253  0  3.88515  0
C  C50  1  0.15573807  0.77409182  0.09488259  1  0  -0.000975  0  3.764597  0  0  -0.036  0  4.038625  0  0  -0.034319  0  4.06019  0  0  -0.002594  -0.037331  0  4.024227  0
C  C51  1  0.84426403  0.22590835  0.90511658  1  0  -0.001049  0  3.764802  0  0  -0.036074  0  4.038811  0  0  -0.034395  0  4.060378  0  0  -0.002592  -0.037405  0  4.024412  0
C  C52  1  0.04238365  0.74882245  0.05246116  1  0  -0.051649  0  3.656597  0  0  -0.094677  0  3.921077  0  0  -0.093149  0  3.939909  0  0  0.006071  -0.095724  0  3.908569  0
C  C53  1  0.95761363  0.25117344  0.94753480  1  0  -0.051639  0  3.657099  0  0  -0.094616  0  3.92159  0  0  -0.093086  0  3.940425  0  0  0.006097  -0.095674  0  3.909086  0
C  C54  1  0.15360439  0.54131314  0.16032259  1  0  0.170651  0  3.652513  0  0  0.110191  0  3.910757  0  0  0.124483  0  3.924015  0  0  0.142834  0.101115  0  3.901027  0
C  C55  1  0.84640017  0.45867740  0.83967489  1  0  0.170773  0  3.652405  0  0  0.110276  0  3.91067  0  0  0.124567  0  3.923931  0  0  0.142804  0.101204  0  3.900937  0
C  C56  1  0.94660184  0.52084243  0.06978872  1  0  -0.025269  0  3.597947  0  0  -0.089705  0  3.857299  0  0  -0.086426  0  3.868303  0  0  -0.049633  -0.091779  0  3.849971  0
C  C57  1  0.05340028  0.47915024  0.93020876  1  0  -0.025235  0  3.597858  0  0  -0.089601  0  3.857131  0  0  -0.086325  0  3.868135  0  0  -0.049542  -0.091668  0  3.849806  0
N  N58  1  0.22397614  0.64334530  0.16251262  1  0  -0.407255  0  3.281225  0  0  -0.328584  0  3.567041  0  0  -0.351667  0  3.584893  0  0  -0.360173  -0.312338  0  3.553712  0
N  N59  1  0.77602596  0.35664841  0.83748638  1  0  -0.407174  0  3.28128  0  0  -0.328487  0  3.567087  0  0  -0.351568  0  3.584941  0  0  -0.360081  -0.312238  0  3.553754  0
N  N60  1  0.04286738  0.60083076  0.09458434  1  0  -0.046299  0  3.5554  0  0  0.049104  0  3.774328  0  0  0.03474  0  3.800152  0  0  -0.238715  0.058671  0  3.75665  0
N  N61  1  0.95713595  0.39915973  0.90541461  1  0  -0.046262  0  3.555556  0  0  0.049123  0  3.774497  0  0  0.03476  0  3.800323  0  0  -0.238746  0.058694  0  3.756814  0
O  O62  1  0.42880418  0.85667414  0.22825103  1  0  -0.641327  0  1.877277  0  0  -0.584814  0  2.095109  0  0  -0.610796  0  2.086037  0  0  -0.340567  -0.565901  0  2.100465  0
O  O63  1  0.57120412  0.14333493  0.77173902  1  0  -0.641328  0  1.877385  0  0  -0.584823  0  2.09522  0  0  -0.610804  0  2.086146  0  0  -0.340528  -0.565909  0  2.100578  0
O  O64  1  0.62238343  0.70125935  0.28114655  1  0  -0.675675  0  2.040246  0  0  -0.604434  0  2.277725  0  0  -0.634287  0  2.26874  0  0  -0.332405  -0.582616  0  2.284321  0
O  O65  1  0.37761003  0.29874370  0.71886247  1  0  -0.675715  0  2.04025  0  0  -0.60445  0  2.277702  0  0  -0.634304  0  2.268711  0  0  -0.332442  -0.582629  0  2.284295  0
O  O66  1  0.42161972  0.34794696  0.22668055  1  0  -0.656088  0  2.001402  0  0  -0.591774  0  2.233342  0  0  -0.619546  0  2.223898  0  0  -0.31957  -0.57146  0  2.238871  0
O  O67  1  0.57837628  0.65205526  0.77332003  1  0  -0.656116  0  2.001358  0  0  -0.591804  0  2.233306  0  0  -0.619575  0  2.223862  0  0  -0.319585  -0.571494  0  2.238837  0
O  O68  1  0.57230471  0.38485110  0.33113575  1  0  -0.658182  0  2.03939  0  0  -0.585721  0  2.283796  0  0  -0.615555  0  2.274451  0  0  -0.318159  -0.564086  0  2.290912  0
O  O69  1  0.42769251  0.61515654  0.66886399  1  0  -0.658253  0  2.039439  0  0  -0.585766  0  2.283818  0  0  -0.615594  0  2.274464  0  0  -0.318234  -0.564122  0  2.290909  0
O  O70  1  0.94814384  0.96681062  0.39370225  1  0  -0.25289  0  2.323068  0  0  -0.178313  0  2.555727  0  0  -0.195451  0  2.557458  0  0  -0.192281  -0.166351  0  2.554124  0
O  O71  1  0.05185699  0.03319051  0.60630091  1  0  -0.252841  0  2.323208  0  0  -0.17827  0  2.555865  0  0  -0.195407  0  2.557597  0  0  -0.192277  -0.166324  0  2.554269  0
O  O72  1  0.62446699  0.71244521  0.97790589  1  0  -0.826025  0  1.848353  0  0  -0.771767  0  2.0437  0  0  -0.792622  0  2.013313  0  0  -0.578044  -0.7569  0  2.065221  0
O  O73  1  0.37553997  0.28754636  0.02209417  1  0  -0.82604  0  1.848213  0  0  -0.771793  0  2.043537  0  0  -0.792647  0  2.013151  0  0  -0.578061  -0.756927  0  2.065067  0
O  O74  1  0.27797588  0.53726753  0.52753526  1  0  -0.826898  0  1.810243  0  0  -0.766663  0  1.996856  0  0  -0.789251  0  1.963807  0  0  -0.592054  -0.751072  0  2.020179  0
O  O75  1  0.72202382  0.46273482  0.47246191  1  0  -0.826828  0  1.810298  0  0  -0.766587  0  1.996925  0  0  -0.789173  0  1.963879  0  0  -0.592021  -0.750995  0  2.020251  0
