# generated using pymatgen
data_CuH16C10Br2(N8O3)2
_symmetry_space_group_name_H-M   'P 1'
_cell_length_a   6.56830629
_cell_length_b   9.96052669
_cell_length_c   16.53020000
_cell_angle_alpha   95.00964249
_cell_angle_beta   90.00000000
_cell_angle_gamma   90.00000000
_symmetry_Int_Tables_number   1
_chemical_formula_structural   CuH16C10Br2(N8O3)2
_chemical_formula_sum   'Cu2 H32 C20 Br4 N32 O12'
_cell_volume   1077.33714376
_cell_formula_units_Z   2
loop_
 _symmetry_equiv_pos_site_id
 _symmetry_equiv_pos_as_xyz
  1  'x, y, z'
loop_
 _atom_site_type_symbol
 _atom_site_label
 _atom_site_symmetry_multiplicity
 _atom_site_fract_x
 _atom_site_fract_y
 _atom_site_fract_z
 _atom_site_occupancy
 _atom_site_hle17_ddec_charge
 _atom_site_hle17_ddec_spin_density
 _atom_site_hle17_ddec_sum_bond_order
 _atom_site_hle17_magmom
 _atom_site_hse06_10hf_ddec_charge
 _atom_site_hse06_10hf_ddec_spin_density
 _atom_site_hse06_10hf_ddec_sum_bond_order
 _atom_site_hse06_10hf_magmom
 _atom_site_hse06_ddec_charge
 _atom_site_hse06_ddec_spin_density
 _atom_site_hse06_ddec_sum_bond_order
 _atom_site_hse06_magmom
 _atom_site_pbe_bader_charge
 _atom_site_pbe_bader_spin_density
 _atom_site_pbe_cm5_charge
 _atom_site_pbe_ddec_charge
 _atom_site_pbe_ddec_spin_density
 _atom_site_pbe_ddec_sum_bond_order
 _atom_site_pbe_magmom
Cu  Cu0  1  0.00000000  0.99999621  0.99999962  1  0.874687  0.697303  1.879424  0.522  0.868768  0.787392  2.260422  0.642  0.956801  0.851934  2.189224  0.729  1.106908  0.58316  0.717645  0.814007  0.738674  2.309472  0.581
Cu  Cu1  1  0.50000104  0.50000012  0.99999961  1  0.874655  0.697307  1.879414  0.522  0.868731  0.787399  2.260443  0.642  0.956809  0.851953  2.189167  0.729  1.107001  0.583169  0.717607  0.813981  0.738684  2.30948  0.581
H  H2  1  0.72678553  0.04847378  0.23882057  1  0.086943  3.4e-05  0.947446  0.0  0.094378  3.7e-05  1.02373  0.0  0.095633  2.7e-05  1.023877  0.0  0.075273  4.1e-05  0.089252  0.093365  4.7e-05  1.023744  0.0
H  H3  1  0.22678297  0.45152936  0.76117980  1  0.086944  3.7e-05  0.947501  0.0  0.094377  3.7e-05  1.02379  0.0  0.095646  2.7e-05  1.023919  0.0  0.075302  4.1e-05  0.089289  0.093361  4.7e-05  1.0238  0.0
H  H4  1  0.27321351  0.95152948  0.76117881  1  0.086877  4.2e-05  0.947524  0.0  0.094309  3.7e-05  1.023817  0.0  0.095564  2.7e-05  1.023963  0.0  0.07531  4.1e-05  0.089248  0.093293  4.7e-05  1.023827  0.0
H  H5  1  0.77321303  0.54846886  0.23881992  1  0.086964  3.6e-05  0.947439  0.0  0.094378  3.6e-05  1.023738  0.0  0.095642  2.6e-05  1.023875  0.0  0.07529  4.1e-05  0.08927  0.093366  4.7e-05  1.02375  0.0
H  H6  1  0.57031902  0.12019276  0.31856252  1  0.088648  1e-06  0.93466  0.0  0.101374  5e-06  1.00167  0.0  0.102923  -0.0  1.000835  0.0  0.051007  1.4e-05  0.100593  0.10013  7e-06  1.002527  0.0
H  H7  1  0.07032254  0.37981038  0.68143605  1  0.088637  -2e-06  0.934607  0.0  0.101363  5e-06  1.001634  0.0  0.102898  -0.0  1.000817  0.0  0.050768  1.4e-05  0.100603  0.100117  7e-06  1.002487  0.0
H  H8  1  0.42967546  0.87980748  0.68143611  1  0.08862  6e-06  0.934641  0.0  0.101342  5e-06  1.001663  0.0  0.102888  -0.0  1.000832  0.0  0.050742  1.4e-05  0.100589  0.100097  7e-06  1.002516  0.0
H  H9  1  0.92967498  0.62019288  0.31856152  1  0.088662  -1e-06  0.934603  0.0  0.101377  5e-06  1.001616  0.0  0.102925  -0.0  1.000785  0.0  0.050647  1.4e-05  0.100577  0.100136  7e-06  1.00247  0.0
H  H10  1  0.36040950  0.85613294  0.09485084  1  0.128333  -0.000117  0.942417  0.0  0.129244  2.5e-05  1.019019  0.0  0.132415  8e-06  1.014714  0.0  0.236846  0.000142  0.140133  0.126717  5.5e-05  1.022381  0.0
H  H11  1  0.86041055  0.64386137  0.90515010  1  0.128453  -0.000116  0.942263  0.0  0.129334  2.5e-05  1.018888  0.0  0.132504  8e-06  1.014583  0.0  0.236948  0.000142  0.140193  0.126807  5.5e-05  1.022251  0.0
H  H12  1  0.63958802  0.14386326  0.90514939  1  0.128355  -0.000121  0.9424  0.0  0.129253  2.5e-05  1.019035  0.0  0.132423  8e-06  1.014729  0.0  0.236873  0.000142  0.140155  0.126725  5.4e-05  1.022398  0.0
H  H13  1  0.13959002  0.35614190  0.09485291  1  0.128469  -0.000119  0.942126  0.0  0.129366  2.5e-05  1.018746  0.0  0.132537  8e-06  1.014439  0.0  0.237058  0.000142  0.140211  0.126838  5.5e-05  1.022108  0.0
H  H14  1  0.52346371  0.83283332  0.23528920  1  0.082651  -3.7e-05  0.949315  0.0  0.090174  1e-05  1.027017  0.0  0.091217  0.0  1.026278  0.0  0.116742  9.1e-05  0.111122  0.089379  2.6e-05  1.027569  0.0
H  H15  1  0.02345506  0.66716905  0.76470974  1  0.082649  -3e-05  0.949365  0.0  0.090172  1e-05  1.027074  0.0  0.091219  0.0  1.026331  0.0  0.116786  9.1e-05  0.111113  0.089373  2.6e-05  1.02763  0.0
H  H16  1  0.47654142  0.16716692  0.76470881  1  0.082689  -3.8e-05  0.949309  0.0  0.090188  1e-05  1.026989  0.0  0.091234  0.0  1.026247  0.0  0.116807  9.1e-05  0.111131  0.089393  2.6e-05  1.027545  0.0
H  H17  1  0.97654246  0.33283421  0.23528904  1  0.082692  -4e-05  0.949307  0.0  0.09019  1e-05  1.026999  0.0  0.091235  0.0  1.026257  0.0  0.116792  9.1e-05  0.111135  0.089394  2.6e-05  1.027554  0.0
H  H18  1  0.37222533  0.90300128  0.31730946  1  0.09716  0.000118  0.941902  0.0  0.103824  8.7e-05  1.016799  0.0  0.10514  6e-05  1.016094  0.0  0.139005  0.000193  0.116779  0.102735  0.00011  1.01753  0.0
H  H19  1  0.87222029  0.59699706  0.68268928  1  0.097166  0.000127  0.941952  0.0  0.10383  8.7e-05  1.016839  0.0  0.105145  6e-05  1.016139  0.0  0.138954  0.000193  0.116795  0.102741  0.00011  1.017569  0.0
H  H20  1  0.62777675  0.09699493  0.68268956  1  0.097182  0.000121  0.941928  0.0  0.103818  8.7e-05  1.016814  0.0  0.105134  6.1e-05  1.016111  0.0  0.138991  0.000193  0.116786  0.10273  0.00011  1.017545  0.0
H  H21  1  0.12777419  0.40300217  0.31731050  1  0.097182  0.000117  0.941927  0.0  0.10383  8.7e-05  1.016803  0.0  0.105145  6e-05  1.016099  0.0  0.138983  0.000193  0.116788  0.102741  0.00011  1.017534  0.0
H  H22  1  0.34710775  0.13811369  0.46348256  1  0.103729  1e-06  0.941927  0.0  0.110447  -2e-06  1.004429  0.0  0.113316  -1e-06  1.001831  0.0  0.158918  -2e-06  0.135337  0.108316  -5e-06  1.00645  0.0
H  H23  1  0.84710575  0.36187837  0.53651904  1  0.103668  0.0  0.941919  0.0  0.110416  -1e-06  1.004399  0.0  0.113275  -1e-06  1.001795  0.0  0.158852  -2e-06  0.135344  0.108287  -5e-06  1.006415  0.0
H  H24  1  0.65288825  0.86188756  0.53651792  1  0.103701  -1e-06  0.941841  0.0  0.11042  -2e-06  1.004354  0.0  0.113288  -1e-06  1.001755  0.0  0.15901  -2e-06  0.135325  0.108288  -5e-06  1.006377  0.0
H  H25  1  0.15289786  0.63811683  0.46348294  1  0.10369  -4e-06  0.941846  0.0  0.110414  -2e-06  1.004358  0.0  0.11328  -1e-06  1.001757  0.0  0.158758  -2e-06  0.135311  0.108281  -5e-06  1.006382  0.0
H  H26  1  0.67738924  0.93212304  0.40424487  1  0.086573  -1e-06  0.941728  0.0  0.100113  1e-06  1.006374  0.0  0.100461  0.0  1.006169  0.0  0.111992  5e-06  0.116799  0.099752  0.0  1.006717  0.0
H  H27  1  0.17739124  0.56788437  0.59575616  1  0.08657  1e-06  0.94174  0.0  0.100088  1e-06  1.006393  0.0  0.100441  -0.0  1.006189  0.0  0.111997  5e-06  0.11681  0.099727  0.0  1.006736  0.0
H  H28  1  0.32260828  0.06787821  0.59575381  1  0.086605  1e-06  0.9417  0.0  0.100181  1e-06  1.006327  0.0  0.100529  0.0  1.006117  0.0  0.111971  5e-06  0.116834  0.099819  0.0  1.006671  0.0
H  H29  1  0.82261237  0.43212292  0.40424525  1  0.086597  -2e-06  0.941695  0.0  0.100116  1e-06  1.006375  0.0  0.10047  0.0  1.006169  0.0  0.112047  5e-06  0.116794  0.099755  0.0  1.006717  0.0
H  H30  1  0.84754878  0.87154744  0.32627740  1  0.105249  -2.1e-05  0.917344  0.0  0.118189  -1.1e-05  0.978638  0.0  0.119986  -8e-06  0.976823  0.0  0.123708  -1e-05  0.120767  0.116715  -1.5e-05  0.980265  0.0
H  H31  1  0.34754926  0.62845493  0.67372518  1  0.105194  -1.3e-05  0.917485  0.0  0.118123  -1.1e-05  0.978777  0.0  0.119921  -9e-06  0.976961  0.0  0.123644  -1e-05  0.120747  0.116649  -1.5e-05  0.980404  0.0
H  H32  1  0.15245026  0.12845380  0.67372249  1  0.105214  -2.6e-05  0.917367  0.0  0.118173  -1.1e-05  0.97867  0.0  0.119969  -8e-06  0.976849  0.0  0.123685  -1e-05  0.120768  0.116698  -1.5e-05  0.980298  0.0
H  H33  1  0.65245130  0.37154631  0.32627713  1  0.105252  -2.6e-05  0.917354  0.0  0.118193  -1.1e-05  0.978654  0.0  0.119994  -8e-06  0.976837  0.0  0.123693  -1e-05  0.120775  0.116718  -1.5e-05  0.980281  0.0
C  C34  1  0.63605895  0.02533944  0.29159235  1  -0.143003  6.1e-05  3.675369  0.0  -0.188183  5.9e-05  3.941497  0.0  -0.190658  3.6e-05  3.955324  0.0  -0.007881  0.000109  -0.162553  -0.186187  8.2e-05  3.931995  0.0
C  C35  1  0.13606247  0.47466270  0.70840737  1  -0.142948  8e-05  3.675423  0.0  -0.188124  6e-05  3.9415  0.0  -0.190594  3.7e-05  3.955331  0.0  -0.007637  0.000109  -0.1626  -0.186111  8.2e-05  3.931974  0.0
C  C36  1  0.36394009  0.97466181  0.70840632  1  -0.142842  4.2e-05  3.675364  0.0  -0.18804  6e-05  3.941505  0.0  -0.190509  3.8e-05  3.955326  0.0  -0.007636  0.000109  -0.162539  -0.186032  8.2e-05  3.931985  0.0
C  C37  1  0.86394114  0.52533754  0.29159126  1  -0.142995  6.5e-05  3.675401  0.0  -0.188127  6e-05  3.941423  0.0  -0.190608  3.8e-05  3.955259  0.0  -0.007552  0.000109  -0.162545  -0.186135  8.2e-05  3.931928  0.0
C  C38  1  0.29136126  0.94173455  0.12956398  1  0.197949  -0.005094  3.594744  -0.002  0.11695  -0.001224  3.868294  0.001  0.133023  -0.002424  3.878629  0.0  1.029063  8.8e-05  0.182924  0.106425  -0.000333  3.861872  0.002
C  C39  1  0.79135165  0.55825573  0.87043494  1  0.197877  -0.005097  3.594908  -0.002  0.116884  -0.001224  3.868553  0.001  0.132961  -0.002425  3.87889  0.0  1.029247  8.8e-05  0.182906  0.106359  -0.000333  3.862131  0.002
C  C40  1  0.70863778  0.05826166  0.87043746  1  0.197959  -0.005082  3.594647  -0.002  0.116909  -0.001223  3.868303  0.001  0.132985  -0.002426  3.878635  0.0  1.02866  8.9e-05  0.182896  0.106383  -0.000333  3.861883  0.002
C  C41  1  0.20865805  0.44174854  0.12956995  1  0.19784  -0.005089  3.595052  -0.002  0.116885  -0.001223  3.868734  0.001  0.13296  -0.002422  3.879073  0.0  1.029221  8.8e-05  0.182959  0.106361  -0.000332  3.862313  0.002
C  C42  1  0.46492655  0.92751129  0.26527128  1  -0.008575  0.000483  3.589768  0.0  -0.080612  0.00035  3.837033  0.0  -0.07811  0.000265  3.849492  0.0  0.238002  0.000564  -0.045741  -0.082187  0.000428  3.828637  0.0
C  C43  1  0.96492303  0.57249008  0.73472701  1  -0.008596  0.000442  3.589809  0.0  -0.08061  0.000348  3.837084  0.0  -0.078109  0.000264  3.849539  0.0  0.238051  0.000564  -0.045729  -0.082188  0.000428  3.828682  0.0
C  C44  1  0.53507553  0.07248694  0.73472784  1  -0.008735  0.000472  3.589949  0.0  -0.080605  0.00035  3.836971  0.0  -0.078107  0.000266  3.849431  0.0  0.238015  0.000564  -0.045762  -0.082186  0.000428  3.828575  0.0
C  C45  1  0.03507754  0.42751318  0.26527298  1  -0.008715  0.000482  3.589845  0.0  -0.080597  0.000349  3.83699  0.0  -0.07809  0.000265  3.849445  0.0  0.238062  0.000564  -0.045745  -0.082172  0.000428  3.828598  0.0
C  C46  1  0.19392366  0.12945456  0.43888143  1  0.151679  1.6e-05  3.712447  0.0  0.105088  2.5e-05  4.010958  0.0  0.111305  1.3e-05  4.023495  0.0  0.928841  2.3e-05  0.14542  0.100987  3.5e-05  4.002463  0.0
C  C47  1  0.69391709  0.37054354  0.56112049  1  0.151765  3.4e-05  3.712494  0.0  0.105146  2.2e-05  4.011037  0.0  0.111382  1.1e-05  4.023555  0.0  0.929129  2.3e-05  0.145463  0.101044  3.5e-05  4.002541  0.0
C  C48  1  0.80607690  0.87054668  0.56111905  1  0.151697  2.9e-05  3.712604  0.0  0.1051  2.5e-05  4.011119  0.0  0.111318  1.5e-05  4.023657  0.0  0.929272  2.3e-05  0.145451  0.101  3.5e-05  4.002622  0.0
C  C49  1  0.30608500  0.62945569  0.43888110  1  0.151743  3.9e-05  3.712472  0.0  0.105145  2.5e-05  4.011003  0.0  0.11137  1.4e-05  4.023531  0.0  0.929236  2.3e-05  0.145443  0.101044  3.5e-05  4.002507  0.0
C  C50  1  0.76929117  0.96165598  0.35323686  1  -0.046357  5.6e-05  3.605518  0.0  -0.104132  2.9e-05  3.860676  0.0  -0.101161  1.8e-05  3.871124  0.0  0.275358  7.2e-05  -0.043169  -0.105998  4.4e-05  3.853687  0.0
C  C51  1  0.26929317  0.53834941  0.64676406  1  -0.046362  2e-05  3.605603  0.0  -0.104074  3e-05  3.860709  0.0  -0.101116  1.9e-05  3.871176  0.0  0.275286  7.2e-05  -0.043139  -0.105946  4.4e-05  3.853718  0.0
C  C52  1  0.23070635  0.03834627  0.64676187  1  -0.046368  5.2e-05  3.605409  0.0  -0.104265  3e-05  3.860728  0.0  -0.101288  1.7e-05  3.871173  0.0  0.275344  7.2e-05  -0.043215  -0.106133  4.4e-05  3.853732  0.0
C  C53  1  0.73071044  0.46165486  0.35323598  1  -0.046407  6.2e-05  3.605443  0.0  -0.104204  2.9e-05  3.860645  0.0  -0.101252  1.7e-05  3.871118  0.0  0.2753  7.2e-05  -0.043175  -0.10607  4.4e-05  3.853659  0.0
Br  Br54  1  0.69212363  0.24663296  0.09127586  1  1.229347  -0.010095  3.888498  -0.007  1.184067  -0.002033  4.456377  0.0  1.232369  -0.002632  4.428347  0.0  1.877463  0.000244  0.779032  1.148641  -0.001081  4.475449  0.0
Br  Br55  1  0.19211954  0.25336212  0.90872289  1  1.229186  -0.010098  3.888475  -0.007  1.183932  -0.002034  4.456345  0.0  1.232236  -0.002634  4.428316  0.0  1.877335  0.000245  0.778968  1.148505  -0.001081  4.475417  0.0
Br  Br56  1  0.30787998  0.75336728  0.90872458  1  1.22932  -0.010092  3.888526  -0.007  1.184031  -0.002033  4.456407  0.0  1.232334  -0.002632  4.428375  0.0  1.877444  0.000246  0.779  1.148605  -0.001079  4.475481  0.0
Br  Br57  1  0.80787798  0.74663207  0.09127481  1  1.229268  -0.010097  3.888486  -0.007  1.183996  -0.002033  4.456355  0.0  1.232296  -0.002633  4.428322  0.0  1.877345  0.000244  0.778982  1.148568  -0.001079  4.475432  0.0
N  N58  1  0.15023051  0.02260222  0.10306222  1  -0.261538  0.060855  3.300979  0.079  -0.23099  0.043344  3.638336  0.059  -0.262532  0.035093  3.658551  0.051  -0.744856  0.071581  -0.262667  -0.211992  0.047993  3.626409  0.062
N  N59  1  0.65022851  0.47739286  0.89693652  1  -0.261593  0.060863  3.301129  0.079  -0.23102  0.043345  3.638482  0.059  -0.262569  0.03509  3.658694  0.051  -0.74493  0.071584  -0.262707  -0.212023  0.047995  3.626559  0.062
N  N60  1  0.84977006  0.97739197  0.89693669  1  -0.261592  0.060867  3.30093  0.079  -0.23101  0.043346  3.638285  0.059  -0.262549  0.035092  3.658496  0.051  -0.744406  0.07158  -0.262697  -0.212013  0.047994  3.626359  0.062
N  N61  1  0.34977053  0.52260637  0.10306568  1  -0.261601  0.060851  3.301243  0.079  -0.231053  0.043341  3.638616  0.059  -0.262603  0.035088  3.658832  0.051  -0.744874  0.071576  -0.262738  -0.212061  0.04799  3.626697  0.062
N  N62  1  0.20756949  0.09150739  0.22901187  1  -0.05377  0.005372  2.819997  0.007  -0.072176  0.003049  3.098977  0.004  -0.070224  0.001684  3.10848  0.003  -0.050529  0.00707  -0.055625  -0.07319  0.004363  3.092477  0.006
N  N63  1  0.70756749  0.40849072  0.77098522  1  -0.05381  0.005308  2.819919  0.007  -0.072166  0.003053  3.09887  0.004  -0.070212  0.001688  3.108369  0.003  -0.050734  0.00707  -0.055608  -0.073181  0.004363  3.09237  0.006
N  N64  1  0.79242955  0.90849184  0.77098731  1  -0.053812  0.00535  2.819969  0.007  -0.072201  0.003049  3.098942  0.004  -0.070248  0.001685  3.108443  0.003  -0.050718  0.00707  -0.055618  -0.073215  0.004363  3.09244  0.006
N  N65  1  0.29243612  0.59151254  0.22901658  1  -0.053797  0.005344  2.819709  0.007  -0.072099  0.003049  3.09867  0.004  -0.070147  0.001683  3.108173  0.003  -0.050126  0.007068  -0.055521  -0.073113  0.004362  3.092171  0.006
N  N66  1  0.92728471  0.05379201  0.38608290  1  0.219467  1.7e-05  3.542492  0.0  0.270022  2.1e-05  3.820296  0.0  0.266181  1.4e-05  3.841953  0.0  -0.323514  3.9e-05  -0.004544  0.272382  2.7e-05  3.805803  0.0
N  N67  1  0.42728519  0.44621113  0.61391687  1  0.219633  5.1e-05  3.542473  0.0  0.270145  2.4e-05  3.820269  0.0  0.266312  1.5e-05  3.841925  0.0  -0.323243  3.9e-05  -0.004516  0.272504  2.7e-05  3.805777  0.0
N  N68  1  0.07271281  0.94621025  0.61391583  1  0.219618  3.4e-05  3.542423  0.0  0.270185  1.9e-05  3.82024  0.0  0.266344  1.3e-05  3.841894  0.0  -0.32347  3.9e-05  -0.004502  0.272543  2.7e-05  3.805749  0.0
N  N69  1  0.57271537  0.55379112  0.38608246  1  0.219643  7e-06  3.542518  0.0  0.270197  2e-05  3.820311  0.0  0.266364  1.3e-05  3.841968  0.0  -0.323622  3.9e-05  -0.004466  0.272556  2.7e-05  3.805818  0.0
N  N70  1  0.32732487  0.98344792  0.20737076  1  0.04214  0.001777  3.49912  0.002  0.168899  0.001066  3.677509  0.001  0.159835  0.000973  3.694422  0.001  -0.794605  0.00195  -0.108473  0.174591  0.001144  3.666146  0.002
N  N71  1  0.82732135  0.51655042  0.79263039  1  0.042094  0.00182  3.499164  0.002  0.168808  0.001065  3.677596  0.001  0.159746  0.000973  3.694504  0.001  -0.794492  0.00195  -0.108558  0.1745  0.001144  3.666235  0.002
N  N72  1  0.67267265  0.01655030  0.79262957  1  0.042164  0.0018  3.499151  0.002  0.168891  0.001068  3.677525  0.001  0.159829  0.000975  3.694436  0.001  -0.794438  0.00195  -0.108479  0.174582  0.001144  3.666163  0.002
N  N73  1  0.17268379  0.48345284  0.20737021  1  0.042136  0.001797  3.499093  0.002  0.168696  0.001067  3.67762  0.001  0.159631  0.000976  3.694531  0.001  -0.7952  0.001951  -0.108689  0.174388  0.001144  3.66626  0.002
N  N74  1  0.11022781  0.01320436  0.40880116  1  -0.269501  8.1e-05  2.856712  0.0  -0.26097  5.2e-05  3.137252  0.0  -0.266383  3.1e-05  3.149581  0.0  -0.624854  0.000107  -0.203798  -0.257261  7.1e-05  3.129072  0.0
N  N75  1  0.61022733  0.48679374  0.59119895  1  -0.269495  5.4e-05  2.856695  0.0  -0.260985  5.3e-05  3.137298  0.0  -0.266398  3.1e-05  3.149619  0.0  -0.625001  0.000107  -0.203811  -0.257276  7.1e-05  3.129119  0.0
N  N76  1  0.88976819  0.98679487  0.59119801  1  -0.269504  7.5e-05  2.856815  0.0  -0.260974  5.4e-05  3.137364  0.0  -0.266387  3.1e-05  3.149693  0.0  -0.625058  0.000107  -0.203781  -0.257265  7.1e-05  3.129183  0.0
N  N77  1  0.38977628  0.51320751  0.40880154  1  -0.269552  7.7e-05  2.85689  0.0  -0.261034  5.2e-05  3.137451  0.0  -0.266447  3e-05  3.149775  0.0  -0.624964  0.000107  -0.203838  -0.257324  7.1e-05  3.12927  0.0
N  N78  1  0.10139296  0.11430109  0.16555200  1  -0.06447  -0.002508  2.964541  -0.001  -0.059432  -9.1e-05  3.287603  0.0  -0.05746  -0.000914  3.300029  0.0  -0.077945  0.001761  -0.075478  -0.06043  0.000613  3.279486  0.001
N  N79  1  0.60138943  0.38569500  0.83444499  1  -0.064394  -0.002476  2.964405  -0.001  -0.059366  -9.1e-05  3.287443  0.0  -0.057395  -0.000913  3.299872  0.0  -0.078098  0.001761  -0.075437  -0.060366  0.000613  3.279329  0.001
N  N80  1  0.89860761  0.88569613  0.83444647  1  -0.064367  -0.002521  2.964465  -0.001  -0.059331  -9.4e-05  3.287509  0.0  -0.057361  -0.000914  3.299934  0.0  -0.078011  0.001761  -0.075424  -0.060329  0.000613  3.27939  0.001
N  N81  1  0.39861265  0.61430625  0.16555550  1  -0.064372  -0.002498  2.964391  -0.001  -0.059328  -9.2e-05  3.287414  0.0  -0.057358  -0.000914  3.299847  0.0  -0.07817  0.001761  -0.075414  -0.060325  0.000613  3.2793  0.001
N  N82  1  0.89641831  0.18518560  0.40111203  1  -0.113361  -1.3e-05  2.884075  0.0  -0.104988  -2e-06  3.171738  0.0  -0.103219  -3e-06  3.182795  0.0  -0.085495  0.0  -0.072741  -0.105817  -4e-06  3.164264  0.0
N  N83  1  0.39641270  0.31481754  0.59888956  1  -0.113501  -2.1e-05  2.884125  0.0  -0.105088  -3e-06  3.171761  0.0  -0.10332  -3e-06  3.182816  0.0  -0.085781  0.0  -0.072757  -0.105918  -4e-06  3.164287  0.0
N  N84  1  0.10357921  0.81481665  0.59888610  1  -0.113504  -8e-06  2.884222  0.0  -0.105109  -5e-06  3.171858  0.0  -0.10334  -3e-06  3.182912  0.0  -0.085418  0.0  -0.072748  -0.105938  -4e-06  3.164384  0.0
N  N85  1  0.60358635  0.68518471  0.40110977  1  -0.113509  3e-06  2.884147  0.0  -0.105128  -2e-06  3.171804  0.0  -0.10336  -2e-06  3.182861  0.0  -0.085429  0.0  -0.072834  -0.105957  -4e-06  3.16433  0.0
N  N86  1  0.06589370  0.23535654  0.43487617  1  -0.248221  2.1e-05  2.972835  0.0  -0.233644  1.5e-05  3.276211  0.0  -0.240536  9e-06  3.286269  0.0  -0.607753  2.6e-05  -0.207294  -0.228793  1.7e-05  3.269283  0.0
N  N87  1  0.56589170  0.26464459  0.56512471  1  -0.248238  1.1e-05  2.972919  0.0  -0.233679  1.2e-05  3.276304  0.0  -0.240577  7e-06  3.286367  0.0  -0.607737  2.6e-05  -0.207354  -0.228828  1.7e-05  3.269378  0.0
N  N88  1  0.93410382  0.76464571  0.56512135  1  -0.24822  6e-06  2.972986  0.0  -0.233643  1.5e-05  3.276352  0.0  -0.240538  9e-06  3.286415  0.0  -0.608185  2.6e-05  -0.207374  -0.228792  1.7e-05  3.269422  0.0
N  N89  1  0.43410734  0.73535767  0.43487523  1  -0.248186  7e-06  2.972811  0.0  -0.233609  1.5e-05  3.276182  0.0  -0.240505  1e-05  3.286246  0.0  -0.607805  2.6e-05  -0.207226  -0.228756  1.7e-05  3.269252  0.0
O  O90  1  0.68322484  0.07901252  0.06926983  1  -0.609074  0.018719  1.591143  0.027  -0.593324  0.011337  1.87277  0.018  -0.617646  0.006511  1.855277  0.012  -0.869697  0.026946  -0.380264  -0.575343  0.016524  1.884425  0.024
O  O91  1  0.18322379  0.42098457  0.93072902  1  -0.609042  0.018711  1.591085  0.027  -0.593304  0.011337  1.872712  0.018  -0.617631  0.006512  1.855217  0.012  -0.869632  0.026946  -0.380256  -0.575324  0.016524  1.884367  0.024
O  O92  1  0.31677420  0.92098570  0.93072869  1  -0.609058  0.018708  1.591219  0.027  -0.593303  0.011335  1.87283  0.018  -0.617624  0.006511  1.855334  0.012  -0.869668  0.026942  -0.380244  -0.575321  0.016521  1.884484  0.024
O  O93  1  0.81677220  0.57900962  0.06926928  1  -0.609034  0.01871  1.59105  0.027  -0.593303  0.011337  1.872715  0.018  -0.617632  0.006512  1.855219  0.012  -0.869502  0.026946  -0.380248  -0.575324  0.016524  1.884372  0.024
O  O94  1  0.54085937  0.30114454  0.01302353  1  -0.665566  0.088026  1.727492  0.12  -0.656155  0.052094  2.050781  0.077  -0.690245  0.037295  2.033131  0.06  -0.883858  0.098066  -0.409903  -0.632729  0.061998  2.062844  0.086
O  O95  1  0.04085528  0.19885255  0.98697592  1  -0.665531  0.088037  1.727511  0.12  -0.656117  0.052097  2.050792  0.077  -0.690197  0.037298  2.033142  0.06  -0.883702  0.098066  -0.409875  -0.63269  0.062  2.062853  0.086
O  O96  1  0.45914728  0.69885670  0.98697635  1  -0.665506  0.088034  1.727463  0.12  -0.656093  0.052094  2.050758  0.077  -0.690182  0.037294  2.033103  0.06  -0.883733  0.098063  -0.40987  -0.632668  0.061996  2.062823  0.086
O  O97  1  0.95914376  0.80114164  0.01302238  1  -0.665571  0.08803  1.727572  0.12  -0.656145  0.052093  2.050856  0.077  -0.690227  0.037296  2.033206  0.06  -0.883917  0.098063  -0.409877  -0.632717  0.061996  2.062918  0.086
O  O98  1  0.56334005  0.28193664  0.17681424  1  -0.573775  -0.006399  1.555645  -0.005  -0.542541  -0.00194  1.802238  -0.001  -0.564049  -0.002027  1.791684  -0.001  -0.844703  -0.000645  -0.364726  -0.527202  -0.001429  1.80923  -0.001
O  O99  1  0.06334205  0.21805844  0.82318450  1  -0.573677  -0.006403  1.555632  -0.005  -0.542488  -0.001941  1.80227  -0.001  -0.563996  -0.002028  1.791704  -0.001  -0.844783  -0.000645  -0.364702  -0.527148  -0.00143  1.809261  -0.001
O  O100  1  0.43665899  0.71806158  0.82318669  1  -0.573808  -0.006404  1.555621  -0.005  -0.542565  -0.001941  1.802225  -0.001  -0.564075  -0.002027  1.791669  -0.001  -0.844826  -0.000645  -0.36474  -0.527227  -0.001429  1.809217  -0.001
O  O101  1  0.93665547  0.78193575  0.17681320  1  -0.573728  -0.0064  1.555605  -0.005  -0.542534  -0.001941  1.80227  -0.001  -0.564014  -0.002028  1.791657  -0.001  -0.844799  -0.000645  -0.364732  -0.5272  -0.00143  1.809269  -0.001
