# generated using pymatgen
data_CoH17C23N2O7
_symmetry_space_group_name_H-M   'P 1'
_cell_length_a   7.38901210
_cell_length_b   10.80127192
_cell_length_c   13.01266376
_cell_angle_alpha   104.84565244
_cell_angle_beta   95.81061724
_cell_angle_gamma   96.03256427
_symmetry_Int_Tables_number   1
_chemical_formula_structural   CoH17C23N2O7
_chemical_formula_sum   'Co2 H34 C46 N4 O14'
_cell_volume   989.41016060
_cell_formula_units_Z   2
loop_
 _symmetry_equiv_pos_site_id
 _symmetry_equiv_pos_as_xyz
  1  'x, y, z'
loop_
 _atom_site_type_symbol
 _atom_site_label
 _atom_site_symmetry_multiplicity
 _atom_site_fract_x
 _atom_site_fract_y
 _atom_site_fract_z
 _atom_site_occupancy
 _atom_site_hle17_ddec_charge
 _atom_site_hle17_ddec_spin_density
 _atom_site_hle17_ddec_sum_bond_order
 _atom_site_hle17_magmom
 _atom_site_hse06_10hf_ddec_charge
 _atom_site_hse06_10hf_ddec_spin_density
 _atom_site_hse06_10hf_ddec_sum_bond_order
 _atom_site_hse06_10hf_magmom
 _atom_site_hse06_ddec_charge
 _atom_site_hse06_ddec_spin_density
 _atom_site_hse06_ddec_sum_bond_order
 _atom_site_hse06_magmom
 _atom_site_pbe_cm5_charge
 _atom_site_pbe_ddec_charge
 _atom_site_pbe_ddec_spin_density
 _atom_site_pbe_ddec_sum_bond_order
 _atom_site_pbe_magmom
Co  Co0  1  0.92348829  0.75101939  0.66438464  1  0.765303  1.213202  2.410605  1.091  0.759355  1.05943  2.835721  0.985  0.816179  1.032032  2.764852  0.969  0.657231  0.728328  1.073414  2.877296  0.988
Co  Co1  1  0.07624153  0.24922645  0.33592518  1  0.764151  1.211875  2.419819  1.09  0.758747  1.058895  2.844932  0.984  0.815281  1.031778  2.774146  0.969  0.658716  0.727833  1.072277  2.886486  0.987
H  H2  1  0.64583131  0.63634253  0.78904043  1  0.091207  0.000158  0.950224  0.001  0.0965  -0.000201  1.01587  0.0  0.100379  -0.000111  1.010378  0.0  0.120429  0.093185  -0.000258  1.020754  0.0
H  H3  1  0.35422190  0.36404670  0.21114846  1  0.090223  0.000159  0.949001  0.001  0.09596  -0.0002  1.0145  0.0  0.09981  -0.000111  1.008981  0.0  0.120613  0.092677  -0.000257  1.01939  0.0
H  H4  1  0.53004278  0.73117180  0.96144590  1  0.098126  -0.000322  0.976655  -0.001  0.106717  0.00015  1.040931  0.0  0.108942  7.7e-05  1.042129  0.0  0.101815  0.105017  0.000219  1.040451  0.0
H  H5  1  0.46763334  0.26936663  0.03793915  1  0.098572  -0.000332  0.977165  -0.001  0.10714  0.000146  1.041488  0.0  0.109304  7.5e-05  1.042784  0.0  0.101733  0.105515  0.000214  1.040897  0.0
H  H6  1  0.63071711  0.96561076  0.05935490  1  0.10625  3.1e-05  0.931601  0.001  0.12052  -0.00035  0.984461  0.0  0.123942  -0.000162  0.981191  0.0  0.109743  0.117696  -0.000525  0.98749  0.0
H  H7  1  0.36533773  0.03523762  0.93975193  1  0.10576  4e-05  0.930975  0.001  0.120403  -0.000348  0.983481  0.0  0.123712  -0.000161  0.980363  0.0  0.109694  0.11767  -0.00052  0.986425  0.0
H  H8  1  0.81403281  0.18219981  0.05671705  1  0.124974  -3.7e-05  0.973394  0.0  0.134401  8.1e-05  1.03397  0.0  0.138497  2.3e-05  1.032434  0.0  0.104419  0.131215  0.000142  1.035043  0.0
H  H9  1  0.18190376  0.81867074  0.94256497  1  0.12604  -4.8e-05  0.974374  0.0  0.135658  6.6e-05  1.034488  0.0  0.139792  1.1e-05  1.032918  0.0  0.104603  0.132449  0.000123  1.0356  0.0
H  H10  1  0.00146602  0.30452746  0.95800243  1  0.103738  -0.000183  0.940347  0.0  0.114166  -3.8e-05  1.001201  0.0  0.117513  -2.8e-05  0.999729  0.0  0.104738  0.111464  -4.1e-05  1.002848  0.0
H  H11  1  0.99718997  0.69609672  0.04223820  1  0.103819  -0.000185  0.941809  0.0  0.114791  -3.8e-05  1.002019  0.0  0.118046  -2.8e-05  1.000648  0.0  0.105003  0.112159  -4.1e-05  1.003582  0.0
H  H12  1  0.13515274  0.30741442  0.78011769  1  0.108796  0.000275  0.968769  0.001  0.115901  -0.000185  1.035865  0.0  0.119939  -7.7e-05  1.031499  0.0  0.106533  0.112723  -0.000304  1.039377  0.0
H  H13  1  0.86659951  0.69312072  0.22120826  1  0.109022  0.000274  0.968177  0.001  0.116265  -0.000186  1.034762  0.0  0.12028  -7.8e-05  1.030494  0.0  0.106666  0.113097  -0.000303  1.038218  0.0
H  H14  1  0.19670198  0.17643385  0.60160568  1  0.127377  -0.000442  0.946029  -0.001  0.135597  1.5e-05  1.004711  0.0  0.140243  -4.3e-05  1.002376  0.0  0.111324  0.132009  8.1e-05  1.006741  0.0
H  H15  1  0.80840786  0.82406707  0.40050847  1  0.126885  -0.000449  0.947007  -0.001  0.135283  7e-06  1.005776  0.0  0.140077  -4.9e-05  1.003268  0.0  0.110945  0.131584  7.2e-05  1.007937  0.0
H  H16  1  0.10405790  0.93861183  0.54704345  1  0.072639  -0.00021  0.985468  0.001  0.080519  -0.000432  1.053421  0.0  0.082415  -0.000247  1.050687  0.0  0.117517  0.078784  -0.000594  1.056116  0.0
H  H17  1  0.90090088  0.06194452  0.45477932  1  0.073512  -0.000213  0.984732  0.001  0.081337  -0.000435  1.05213  0.0  0.083159  -0.00025  1.049519  0.0  0.118243  0.07969  -0.000596  1.054752  0.0
H  H18  1  0.60796039  0.06746998  0.50651095  1  0.089444  -6.2e-05  0.98133  0.0  0.099632  -4.9e-05  1.047169  0.0  0.101719  -2.4e-05  1.0466  0.0  0.102134  0.098187  -7.9e-05  1.047667  0.0
H  H19  1  0.39328948  0.93131463  0.49354820  1  0.088697  -5.7e-05  0.981673  0.0  0.099677  -4.5e-05  1.04677  0.0  0.101751  -2.2e-05  1.046278  0.0  0.102105  0.098231  -7.3e-05  1.047229  0.0
H  H20  1  0.50500928  0.03317215  0.67523966  1  0.097017  -0.000152  0.938673  0.0  0.107787  -9.4e-05  0.996214  0.0  0.110574  -4.4e-05  0.995181  0.0  0.10343  0.10585  -0.000156  0.996942  0.0
H  H21  1  0.49700532  0.96583469  0.32523774  1  0.097628  -0.000147  0.938949  0.0  0.10847  -9.2e-05  0.996367  0.0  0.111343  -4.4e-05  0.995223  0.0  0.103508  0.106446  -0.000152  0.997177  0.0
H  H22  1  0.56159220  0.21738252  0.84136716  1  0.105206  -6.5e-05  0.957494  0.0  0.11686  -5.3e-05  1.016537  0.0  0.118496  -2.8e-05  1.017636  0.0  0.103768  0.116026  -8e-05  1.015413  0.0
H  H23  1  0.44037022  0.78201984  0.15881507  1  0.106688  -6.6e-05  0.955057  0.0  0.118318  -5.3e-05  1.013939  0.0  0.119958  -2.9e-05  1.015046  0.0  0.10436  0.117466  -8e-05  1.012847  0.0
H  H24  1  0.82360001  0.48793154  0.06847704  1  0.128649  2.4e-05  0.935656  0.0  0.136575  2.3e-05  0.998512  0.0  0.140957  1.5e-05  0.995225  0.0  0.112287  0.133398  3.1e-05  1.000867  0.0
H  H25  1  0.17726863  0.51189587  0.93062213  1  0.128689  2.6e-05  0.935501  0.0  0.13706  2.4e-05  0.997734  0.0  0.141465  1.5e-05  0.994422  0.0  0.11234  0.133837  3.2e-05  1.000156  0.0
H  H26  1  0.59917237  0.54668575  0.19582424  1  0.124026  3.1e-05  0.934717  0.0  0.136486  5.6e-05  0.988355  0.0  0.14051  4e-05  0.985975  0.0  0.113474  0.133395  7.4e-05  0.990373  0.0
H  H27  1  0.40167103  0.45288012  0.80331430  1  0.124703  3.2e-05  0.933153  0.0  0.1369  5.8e-05  0.987156  0.0  0.140887  4.1e-05  0.984805  0.0  0.113717  0.13381  7.6e-05  0.98917  0.0
H  H28  1  0.15500148  0.65189935  0.76332208  1  0.400635  -0.000951  0.916628  -0.001  0.370549  -0.000308  0.9808  0.0  0.382217  -0.000409  0.964178  0.0  0.279306  0.362314  -0.000175  0.992344  0.0
H  H29  1  0.84496196  0.34714899  0.23642608  1  0.399819  -0.000969  0.917742  -0.001  0.369869  -0.000321  0.981858  0.0  0.381532  -0.00042  0.965213  0.0  0.278974  0.361615  -0.000188  0.993439  0.0
H  H30  1  0.26480990  0.75630039  0.71905970  1  0.400727  -0.000973  0.915102  -0.001  0.369743  -0.000279  0.980251  0.0  0.380906  -0.000371  0.964322  0.0  0.277813  0.362077  -0.000163  0.991007  0.0
H  H31  1  0.73485475  0.24276470  0.28095904  1  0.400686  -0.000975  0.915261  -0.001  0.369697  -0.00028  0.980428  0.0  0.380898  -0.000371  0.964449  0.0  0.277838  0.361993  -0.000163  0.991233  0.0
H  H32  1  0.67612500  0.64691269  0.50269993  1  0.42099  -0.000917  0.813604  -0.001  0.408297  -0.000299  0.863051  0.0  0.417097  -0.000389  0.853518  0.0  0.321725  0.402174  -0.000184  0.869475  0.0
H  H33  1  0.32292482  0.35434760  0.49703201  1  0.420904  -0.000938  0.81371  -0.001  0.408035  -0.000319  0.863564  0.0  0.416833  -0.000407  0.854047  0.0  0.321307  0.401926  -0.000206  0.869939  0.0
H  H34  1  0.55921253  0.74622739  0.56608606  1  0.409663  -0.000303  0.898107  0.0  0.378811  1.6e-05  0.962955  0.0  0.38884  -9.4e-05  0.948664  0.0  0.284692  0.372097  0.00013  0.972417  0.0
H  H35  1  0.43982079  0.25426031  0.43432128  1  0.410731  -0.00033  0.896496  0.0  0.380265  -5e-06  0.960884  0.0  0.390265  -0.000113  0.946601  0.0  0.285387  0.373558  0.000109  0.970358  0.0
C  C36  1  0.84819963  0.93488127  0.83770319  1  0.122647  -0.020195  3.763774  -0.013  0.118569  -0.008371  4.000788  -0.005  0.126089  -0.005108  4.017653  -0.003  0.113241  0.11347  -0.010207  3.990294  -0.006
C  C37  1  0.15034785  0.06576201  0.16224759  1  0.122547  -0.020226  3.761217  -0.013  0.118983  -0.008402  3.997804  -0.005  0.126456  -0.005147  4.014746  -0.003  0.112774  0.113953  -0.010203  3.987228  -0.006
C  C38  1  0.68576922  0.73753486  0.83204822  1  0.143775  -0.042186  3.623134  -0.027  0.113935  -0.014775  3.880299  -0.009  0.131107  -0.009401  3.885487  -0.006  0.054139  0.10127  -0.018627  3.879727  -0.011
C  C39  1  0.31327912  0.26300915  0.16795740  1  0.145788  -0.042391  3.62183  -0.027  0.115416  -0.014843  3.879507  -0.009  0.13269  -0.009485  3.884652  -0.006  0.053358  0.102691  -0.018653  3.878964  -0.011
C  C40  1  0.62194099  0.79275911  0.92928319  1  -0.110099  0.008124  3.736131  0.013  -0.124694  0.000768  3.993651  0.002  -0.130898  0.001231  4.008448  0.002  -0.084882  -0.121573  -1e-05  3.985763  0.002
C  C41  1  0.37591075  0.20784032  0.07030735  1  -0.111461  0.008192  3.740403  0.013  -0.126006  0.000773  3.998169  0.002  -0.132199  0.001243  4.012945  0.002  -0.084517  -0.122912  -4e-06  3.990297  0.002
C  C42  1  0.67565190  0.92209162  0.98264760  1  -0.064611  -0.047081  3.700727  -0.03  -0.089947  -0.01563  3.952893  -0.009  -0.081305  -0.008774  3.96333  -0.005  -0.071269  -0.09675  -0.021286  3.947643  -0.012
C  C43  1  0.32131723  0.07866150  0.01676150  1  -0.06445  -0.047258  3.703313  -0.03  -0.089962  -0.015726  3.955693  -0.009  -0.081232  -0.008867  3.966166  -0.005  -0.07125  -0.096821  -0.021339  3.950382  -0.012
C  C44  1  0.79011235  0.99837561  0.93528849  1  0.030292  0.003978  3.805565  0.008  0.046804  0.000161  4.03691  0.002  0.043438  0.000449  4.058781  0.001  -0.001288  0.048727  -0.000348  4.022948  0.001
C  C45  1  0.20720490  0.00238406  0.06428775  1  0.030737  0.004006  3.805393  0.008  0.046851  0.000164  4.037279  0.002  0.043516  0.000456  4.059154  0.001  -0.001453  0.048749  -0.000349  4.023305  0.001
C  C46  1  0.85182262  0.13421908  0.97874751  1  -0.109012  0.000386  3.69909  0.0  -0.132925  0.000252  3.955806  0.0  -0.136559  0.000209  3.977315  0.0  -0.086773  -0.130642  0.000102  3.942176  0.0
C  C47  1  0.14518121  0.86660929  0.02083548  1  -0.11073  0.000361  3.70196  0.0  -0.134867  0.000246  3.959353  0.0  -0.138562  0.000208  3.980909  0.0  -0.087655  -0.132541  8.9e-05  3.945693  0.0
C  C48  1  0.95713595  0.20114106  0.92467045  1  -0.091692  0.001209  3.725252  0.001  -0.114324  0.00023  3.984397  0.0  -0.116988  0.000257  4.006208  0.0  -0.082468  -0.112914  -5e-05  3.970796  0.0
C  C49  1  0.04132097  0.79950248  0.07548006  1  -0.092679  0.001235  3.727037  0.001  -0.115861  0.000233  3.986548  0.0  -0.118446  0.000261  4.008388  0.0  -0.082868  -0.114518  -4.7e-05  3.972909  0.0
C  C50  1  0.00891083  0.13912912  0.82250952  1  0.026681  0.003076  3.807515  0.007  0.043083  -4.9e-05  4.038216  0.001  0.039525  0.000294  4.060511  0.001  -0.001421  0.045509  -0.000536  4.023725  0.001
C  C51  1  0.99104199  0.86139432  0.17804935  1  0.027342  0.00306  3.806909  0.007  0.043959  -5.2e-05  4.037328  0.001  0.040426  0.000297  4.059577  0.001  -0.001009  0.046389  -0.000543  4.022825  0.001
C  C52  1  0.09969905  0.20272561  0.75615350  1  -0.050665  -0.043413  3.665252  -0.027  -0.076134  -0.014603  3.914919  -0.008  -0.066582  -0.008363  3.925073  -0.005  -0.069397  -0.083998  -0.020492  3.909886  -0.012
C  C53  1  0.90211663  0.79778300  0.24507365  1  -0.051635  -0.043517  3.665455  -0.027  -0.076896  -0.014691  3.914937  -0.008  -0.067359  -0.008471  3.925063  -0.005  -0.069626  -0.084741  -0.020498  3.909896  -0.012
C  C54  1  0.13238281  0.13050124  0.65683335  1  -0.114797  0.007521  3.716948  0.012  -0.126323  0.00057  3.972421  0.002  -0.133057  0.000975  3.986313  0.002  -0.082434  -0.122718  -6.1e-05  3.965332  0.002
C  C55  1  0.87122354  0.87000506  0.34480835  1  -0.113822  0.007556  3.72004  0.012  -0.126062  0.000572  3.97529  0.002  -0.13291  0.000989  3.989163  0.002  -0.08265  -0.122354  -6.1e-05  3.96816  0.002
C  C56  1  0.08033617  0.99609935  0.62489990  1  0.124892  -0.039077  3.6623  -0.025  0.095107  -0.013805  3.919284  -0.008  0.10989  -0.00889  3.929809  -0.005  0.048669  0.084348  -0.01771  3.914456  -0.01
C  C57  1  0.92301516  0.00441008  0.37659091  1  0.122933  -0.039233  3.66436  -0.025  0.093945  -0.01391  3.921157  -0.008  0.1088  -0.009006  3.931668  -0.005  0.047993  0.083135  -0.017749  3.916258  -0.01
C  C58  1  0.95701185  0.00430020  0.78237700  1  0.118831  -0.018733  3.766411  -0.012  0.113036  -0.008004  4.004774  -0.005  0.119861  -0.004824  4.022314  -0.003  0.110996  0.108128  -0.009954  3.994069  -0.005
C  C59  1  0.04270383  0.99621219  0.21798591  1  0.120703  -0.018732  3.765055  -0.012  0.114762  -0.008038  4.003398  -0.005  0.121641  -0.004873  4.020943  -0.003  0.11181  0.109816  -0.009949  3.992672  -0.005
C  C60  1  0.90477908  0.48687661  0.68449857  1  0.681401  -0.003784  3.850198  -0.002  0.628753  -0.002281  4.16728  -0.001  0.667114  -0.001568  4.156805  -0.001  0.220796  0.60224  -0.003015  4.173752  -0.002
C  C61  1  0.09493772  0.51257365  0.31481025  1  0.680081  -0.003896  3.851561  -0.002  0.629013  -0.00233  4.166361  -0.001  0.667342  -0.001606  4.155888  -0.001  0.22067  0.602519  -0.003065  4.172854  -0.002
C  C62  1  0.78207844  0.36210544  0.67453514  1  -0.14857  -0.004308  3.692429  -0.003  -0.144429  -0.001529  3.935721  -0.001  -0.148947  -0.001024  3.950979  -0.001  -0.014596  -0.14132  -0.001738  3.925008  -0.001
C  C63  1  0.21788673  0.63716109  0.32484759  1  -0.149162  -0.004226  3.693302  -0.003  -0.14574  -0.001517  3.936683  -0.001  -0.150304  -0.001018  3.95201  -0.001  -0.015291  -0.142585  -0.00172  3.925908  -0.001
C  C64  1  0.78527995  0.26966315  0.47197314  1  0.642995  -0.00443  3.864314  -0.002  0.592954  -0.002273  4.171963  -0.001  0.62923  -0.001548  4.164092  -0.001  0.221478  0.568017  -0.002946  4.177016  -0.002
C  C65  1  0.21361958  0.72932994  0.52749665  1  0.643594  -0.004446  3.863924  -0.002  0.593053  -0.002298  4.171885  -0.001  0.629398  -0.00156  4.163953  -0.001  0.221233  0.568075  -0.002999  4.176973  -0.002
C  C66  1  0.73592297  0.26205181  0.57961084  1  -0.05532  -0.001618  3.75842  -0.001  -0.04314  -0.000166  3.997163  0.0  -0.046023  -5.2e-05  4.015105  0.0  -0.013672  -0.04156  -0.000214  3.985416  0.0
C  C67  1  0.26383668  0.73705297  0.41995899  1  -0.056528  -0.001648  3.754641  -0.001  -0.043681  -0.000179  3.993017  0.0  -0.04667  -6.1e-05  4.011154  0.0  -0.012774  -0.042035  -0.000231  3.981132  0.0
C  C68  1  0.63742639  0.14438966  0.58086088  1  -0.099488  -0.000495  3.758736  0.0  -0.129258  -8.7e-05  4.019835  0.0  -0.131016  -2.1e-05  4.040906  0.0  -0.096127  -0.128258  -9.3e-05  4.005796  0.0
C  C69  1  0.36325009  0.85457146  0.41907452  1  -0.097984  -0.000461  3.758268  0.0  -0.128364  -7.2e-05  4.019264  0.0  -0.130156  -1e-05  4.040409  0.0  -0.096122  -0.127351  -7.3e-05  4.005184  0.0
C  C70  1  0.57832915  0.12596231  0.67458966  1  -0.038313  -0.000582  3.779093  0.0  -0.055061  1.3e-05  4.042581  0.0  -0.056393  6.1e-05  4.064463  0.0  -0.090285  -0.053791  -4.6e-05  4.027228  0.0
C  C71  1  0.42307456  0.87309287  0.32555216  1  -0.038793  -0.00057  3.779497  0.0  -0.055601  1.8e-05  4.042983  0.0  -0.056902  6.3e-05  4.064817  0.0  -0.09021  -0.054335  -4.4e-05  4.027703  0.0
C  C72  1  0.61081393  0.22774531  0.76758018  1  -0.178684  -0.000735  3.786082  0.0  -0.203523  -0.000314  4.044656  0.0  -0.20916  -0.000172  4.06888  0.0  -0.10176  -0.199293  -0.000449  4.02745  0.0
C  C73  1  0.39050179  0.77150021  0.23238905  1  -0.180691  -0.000732  3.787691  0.0  -0.205447  -0.000303  4.046648  0.0  -0.211125  -0.000164  4.070854  0.0  -0.102994  -0.201212  -0.000434  4.029477  0.0
C  C74  1  0.71287187  0.34364067  0.76688459  1  0.241761  -0.000397  3.774007  0.0  0.226092  -8.9e-05  4.039247  0.0  0.234496  -2.5e-05  4.056206  0.0  0.082661  0.220359  -0.000122  4.027577  0.0
C  C75  1  0.28772094  0.65569046  0.23264283  1  0.243503  -0.000399  3.775328  0.0  0.227331  -9.2e-05  4.04089  0.0  0.235655  -2.8e-05  4.057857  0.0  0.083297  0.221553  -0.000127  4.029231  0.0
C  C76  1  0.62620401  0.46736762  0.92846148  1  0.240761  -0.000106  3.819571  0.0  0.229764  -5e-05  4.086975  0.0  0.237877  -2.3e-05  4.10502  0.0  0.073245  0.22413  -8e-05  4.074672  0.0
C  C77  1  0.37459863  0.53255279  0.07078244  1  0.240601  -9e-05  3.819791  0.0  0.229926  -5.2e-05  4.086471  0.0  0.237905  -2.3e-05  4.104597  0.0  0.073695  0.224298  -7.8e-05  4.074118  0.0
C  C78  1  0.68262618  0.49430700  0.03845585  1  -0.156553  -2e-05  3.740846  0.0  -0.180282  2.9e-05  4.002341  0.0  -0.182845  3.2e-05  4.020117  0.0  -0.097987  -0.178174  1.5e-05  3.989891  0.0
C  C79  1  0.31824350  0.50567643  0.96074914  1  -0.155104  -3.6e-05  3.73753  0.0  -0.179239  3.2e-05  3.998454  0.0  -0.181838  3.4e-05  4.016271  0.0  -0.096758  -0.177114  1.7e-05  3.986067  0.0
C  C80  1  0.55620640  0.52737384  0.10996064  1  -0.168851  -2.9e-05  3.770631  0.0  -0.189796  3.6e-05  4.025634  0.0  -0.193614  4e-05  4.045043  0.0  -0.096432  -0.187056  3.1e-05  4.012533  0.0
C  C81  1  0.44464308  0.47250805  0.88922311  1  -0.169535  -1.8e-05  3.766815  0.0  -0.190085  3.4e-05  4.022411  0.0  -0.19387  3.9e-05  4.041754  0.0  -0.096794  -0.187334  2.9e-05  4.009292  0.0
N  N82  1  0.99572363  0.93219349  0.68621452  1  -0.27306  -0.013128  3.347251  -0.005  -0.232462  -0.009191  3.631968  -0.006  -0.254973  -0.006705  3.644118  -0.004  -0.335598  -0.219937  -0.010316  3.624805  -0.007
N  N83  1  0.00541161  0.06828536  0.31452269  1  -0.271705  -0.013133  3.351624  -0.005  -0.231816  -0.00923  3.6365  -0.006  -0.254344  -0.006753  3.648658  -0.004  -0.336288  -0.219283  -0.010311  3.629343  -0.007
N  N84  1  0.80057110  0.80594334  0.78716803  1  -0.270554  -0.012719  3.33845  -0.004  -0.231561  -0.008701  3.625178  -0.005  -0.253033  -0.006141  3.634456  -0.003  -0.332586  -0.219624  -0.009873  3.619591  -0.006
N  N85  1  0.19872246  0.19460847  0.21297645  1  -0.271853  -0.012508  3.3372  -0.004  -0.233079  -0.008617  3.624293  -0.005  -0.254518  -0.00607  3.633563  -0.003  -0.332489  -0.221183  -0.009768  3.618733  -0.006
O  O86  1  0.82838552  0.57044369  0.64651947  1  -0.57394  -0.020496  2.108914  -0.017  -0.551565  -0.006791  2.387692  -0.006  -0.590409  -0.006479  2.376126  -0.005  -0.307143  -0.524822  -0.005175  2.39372  -0.004
O  O87  1  0.17046589  0.42969687  0.35412789  1  -0.572713  -0.020076  2.11253  -0.017  -0.550655  -0.006753  2.390718  -0.006  -0.589374  -0.006484  2.379105  -0.005  -0.306439  -0.524027  -0.005136  2.396786  -0.004
O  O88  1  0.06483966  0.50029562  0.73266077  1  -0.59036  -0.002239  1.939168  -0.002  -0.538871  -0.00133  2.153613  -0.001  -0.565838  -0.000931  2.143173  -0.001  -0.298851  -0.519836  -0.001584  2.16025  -0.001
O  O89  1  0.93556250  0.49852956  0.26550345  1  -0.590277  -0.002251  1.938628  -0.002  -0.539627  -0.001334  2.152911  -0.001  -0.566579  -0.000936  2.142433  -0.001  -0.299429  -0.520621  -0.001588  2.159589  -0.001
O  O90  1  0.95565835  0.29462946  0.46456088  1  -0.53382  -0.01376  2.105897  -0.011  -0.506465  -0.003766  2.378474  -0.003  -0.544372  -0.004185  2.370646  -0.003  -0.295579  -0.480646  -0.001982  2.382489  -0.001
O  O91  1  0.04306166  0.70565909  0.53505118  1  -0.533872  -0.014019  2.104274  -0.011  -0.506635  -0.003874  2.377476  -0.003  -0.544599  -0.004232  2.36962  -0.003  -0.29464  -0.480783  -0.00211  2.381507  -0.001
O  O92  1  0.65369864  0.24036618  0.39517339  1  -0.613748  -0.002521  1.986255  -0.002  -0.553616  -0.001208  2.195227  -0.001  -0.580166  -0.00098  2.184434  -0.001  -0.298387  -0.535496  -0.001309  2.20244  -0.001
O  O93  1  0.34505759  0.75756647  0.60430520  1  -0.614246  -0.002484  1.988327  -0.002  -0.553726  -0.001185  2.197614  -0.001  -0.580186  -0.000958  2.186684  -0.001  -0.298996  -0.535691  -0.001291  2.204936  -0.001
O  O94  1  0.75922128  0.44371585  0.86040136  1  -0.304667  -0.000247  2.359186  0.0  -0.238867  -0.000121  2.593136  0.0  -0.256767  -6.3e-05  2.596836  0.0  -0.156615  -0.226173  -0.000186  2.590607  0.0
O  O95  1  0.24152515  0.55591391  0.13890208  1  -0.306433  -0.00025  2.360391  0.0  -0.240128  -0.000126  2.593995  0.0  -0.257732  -6.6e-05  2.597506  0.0  -0.157749  -0.227406  -0.00019  2.591447  0.0
O  O96  1  0.18194045  0.74789321  0.77377978  1  -0.820126  0.034253  1.903325  0.06  -0.784827  0.029695  2.0857  0.05  -0.816059  0.022658  2.05631  0.039  -0.580699  -0.758364  0.037454  2.103568  0.061
O  O97  1  0.81762950  0.25122880  0.22617960  1  -0.819668  0.03444  1.903613  0.06  -0.78449  0.02984  2.085373  0.05  -0.815739  0.022756  2.056033  0.039  -0.580725  -0.757981  0.037644  2.103265  0.062
O  O98  1  0.68104097  0.73815125  0.53945700  1  -0.78143  0.025265  1.891243  0.044  -0.748607  0.02429  2.075979  0.041  -0.773133  0.019217  2.048971  0.033  -0.561713  -0.729327  0.02977  2.092898  0.049
O  O99  1  0.31840792  0.26278409  0.46137145  1  -0.781463  0.025439  1.888839  0.044  -0.748989  0.024445  2.072479  0.041  -0.773436  0.019328  2.045492  0.033  -0.561497  -0.729771  0.029962  2.089393  0.049
