# generated using pymatgen
data_Mo2H11C9N7O8
_symmetry_space_group_name_H-M   'P 1'
_cell_length_a   7.67630350
_cell_length_b   9.31227464
_cell_length_c   21.96199565
_cell_angle_alpha   90.00008854
_cell_angle_beta   90.00007989
_cell_angle_gamma   99.95258164
_symmetry_Int_Tables_number   1
_chemical_formula_structural   Mo2H11C9N7O8
_chemical_formula_sum   'Mo8 H44 C36 N28 O32'
_cell_volume   1546.30227858
_cell_formula_units_Z   4
loop_
 _symmetry_equiv_pos_site_id
 _symmetry_equiv_pos_as_xyz
  1  'x, y, z'
loop_
 _atom_site_type_symbol
 _atom_site_label
 _atom_site_symmetry_multiplicity
 _atom_site_fract_x
 _atom_site_fract_y
 _atom_site_fract_z
 _atom_site_occupancy
 _atom_site_pbe_bader_spin_density
 _atom_site_pbe_cm5_charge
 _atom_site_pbe_ddec_charge
 _atom_site_pbe_ddec_spin_density
 _atom_site_pbe_ddec_sum_bond_order
 _atom_site_pbe_magmom
Mo  Mo0  1  0.49894541  0.85228286  0.79025236  1  0  1.544488  2.079224  0  4.737965  0
Mo  Mo1  1  0.00105299  0.64771586  0.29025161  1  0  1.544484  2.079177  0  4.738045  0
Mo  Mo2  1  0.50105445  0.14771532  0.20974841  1  0  1.544507  2.079184  0  4.738003  0
Mo  Mo3  1  0.99894447  0.35228339  0.70974870  1  0  1.544537  2.079236  0  4.73796  0
Mo  Mo4  1  0.76650390  0.57126596  0.79726353  1  0  1.563114  2.107019  0  4.711009  0
Mo  Mo5  1  0.73349423  0.92873370  0.29726309  1  0  1.563068  2.106893  0  4.711253  0
Mo  Mo6  1  0.23349356  0.42873329  0.20273815  1  0  1.563078  2.106936  0  4.711332  0
Mo  Mo7  1  0.26650344  0.07126664  0.70273768  1  0  1.563065  2.106914  0  4.711362  0
H  H8  1  0.28321234  0.64957567  0.86705628  1  0  0.290844  0.339896  0  1.022654  0
H  H9  1  0.21678403  0.85042445  0.36705577  1  0  0.290843  0.33992  0  1.022638  0
H  H10  1  0.71678491  0.35042249  0.13294495  1  0  0.290868  0.339931  0  1.022612  0
H  H11  1  0.78321168  0.14957914  0.63294500  1  0  0.290907  0.339966  0  1.022553  0
H  H12  1  0.21341559  0.61344085  0.79986973  1  0  0.3004  0.410099  0  0.909595  0
H  H13  1  0.28658285  0.88655791  0.29986928  1  0  0.300416  0.410138  0  0.909541  0
H  H14  1  0.78658448  0.38655842  0.20013149  1  0  0.300402  0.410096  0  0.909603  0
H  H15  1  0.71341483  0.11344243  0.70013194  1  0  0.300401  0.410099  0  0.909596  0
H  H16  1  0.45181473  0.39541820  0.86272102  1  0  0.290378  0.363732  0  0.981044  0
H  H17  1  0.04818545  0.10458136  0.36272027  1  0  0.290402  0.363727  0  0.981047  0
H  H18  1  0.54818795  0.60458109  0.13728021  1  0  0.290416  0.36376  0  0.980996  0
H  H19  1  0.95181113  0.89542006  0.63728095  1  0  0.29037  0.363716  0  0.981068  0
H  H20  1  0.48945726  0.31848791  0.79932239  1  0  0.295887  0.421995  0  0.896175  0
H  H21  1  0.01054044  0.18151353  0.29932304  1  0  0.295902  0.421992  0  0.89616  0
H  H22  1  0.51054063  0.68151352  0.20067747  1  0  0.29589  0.421956  0  0.896232  0
H  H23  1  0.98945636  0.81848898  0.70067818  1  0  0.295854  0.421933  0  0.896264  0
H  H24  1  0.32237223  0.04003865  0.56606523  1  0  0.314442  0.308899  0  0.999656  0
H  H25  1  0.17762607  0.45995745  0.06606523  1  0  0.314434  0.308912  0  0.999617  0
H  H26  1  0.67762545  0.95996169  0.43393646  1  0  0.314457  0.308961  0  0.999543  0
H  H27  1  0.82237596  0.54003858  0.93393600  1  0  0.314436  0.308919  0  0.999598  0
H  H28  1  0.27145454  0.71938288  0.64932973  1  0  0.154307  0.139088  0  0.977303  0
H  H29  1  0.22854750  0.78061745  0.14932918  1  0  0.154378  0.139213  0  0.977238  0
H  H30  1  0.72854335  0.28061856  0.35067195  1  0  0.154336  0.139107  0  0.977288  0
H  H31  1  0.77145843  0.21938514  0.85067204  1  0  0.154355  0.139175  0  0.977252  0
H  H32  1  0.59521347  0.39019850  0.65465435  1  0  0.154004  0.14139  0  0.985844  0
H  H33  1  0.90477867  0.10979339  0.15465287  1  0  0.153992  0.141342  0  0.985836  0
H  H34  1  0.40478029  0.60980181  0.34534551  1  0  0.153985  0.141378  0  0.985796  0
H  H35  1  0.09521814  0.89020259  0.84534517  1  0  0.153993  0.141367  0  0.985869  0
H  H36  1  0.37032712  0.26639677  0.58853913  1  0  0.112524  0.12374  0  1.047262  0
H  H37  1  0.12967150  0.23360051  0.08853805  1  0  0.112529  0.123758  0  1.047293  0
H  H38  1  0.62966902  0.73360900  0.41146164  1  0  0.112505  0.123705  0  1.047215  0
H  H39  1  0.87033858  0.76639667  0.91146180  1  0  0.112499  0.123715  0  1.047276  0
H  H40  1  0.12794218  0.35916760  0.41800679  1  0  0.108757  0.121821  0  1.006647  0
H  H41  1  0.37206589  0.14083118  0.91800779  1  0  0.108767  0.121762  0  1.006649  0
H  H42  1  0.87207115  0.64083288  0.58199170  1  0  0.108773  0.121802  0  1.006601  0
H  H43  1  0.62793331  0.85917026  0.08199071  1  0  0.108789  0.121838  0  1.006568  0
H  H44  1  0.16091650  0.61734480  0.44705297  1  0  0.108094  0.116794  0  1.008766  0
H  H45  1  0.33909028  0.88265357  0.94705365  1  0  0.108103  0.116812  0  1.008794  0
H  H46  1  0.83909748  0.38265894  0.55294279  1  0  0.108118  0.116876  0  1.008771  0
H  H47  1  0.66090153  0.11734345  0.05294165  1  0  0.108121  0.116853  0  1.00881  0
H  H48  1  0.29965447  0.70438164  0.54463569  1  0  0.103926  0.097539  0  1.062701  0
H  H49  1  0.20034554  0.79561713  0.04463514  1  0  0.103918  0.09754  0  1.062739  0
H  H50  1  0.70034863  0.29562637  0.45536144  1  0  0.103967  0.097588  0  1.062696  0
H  H51  1  0.79964866  0.20437883  0.95536062  1  0  0.103934  0.097536  0  1.062699  0
C  C52  1  0.37048764  0.65486011  0.66235450  1  0  0.18084  0.141793  0  3.814443  0
C  C53  1  0.12951252  0.84513699  0.16235441  1  0  0.180749  0.141676  0  3.814409  0
C  C54  1  0.62951068  0.34514351  0.33764672  1  0  0.1808  0.141856  0  3.814289  0
C  C55  1  0.87048886  0.15486229  0.83764636  1  0  0.180762  0.141679  0  3.814357  0
C  C56  1  0.53425039  0.48419239  0.66536787  1  0  0.182435  0.142496  0  3.797055  0
C  C57  1  0.96574593  0.01580067  0.16536590  1  0  0.182408  0.14254  0  3.797204  0
C  C58  1  0.46574707  0.51580686  0.33463244  1  0  0.182436  0.14252  0  3.796966  0
C  C59  1  0.03425501  0.98419644  0.83463259  1  0  0.182364  0.142422  0  3.79719  0
C  C60  1  0.23618399  0.14332521  0.48356545  1  0  0.242978  0.258688  0  4.009593  0
C  C61  1  0.26381354  0.35667158  0.98356517  1  0  0.242923  0.258633  0  4.00964  0
C  C62  1  0.76381934  0.85667736  0.51643578  1  0  0.243012  0.258861  0  4.009536  0
C  C63  1  0.73618176  0.64332330  0.01643469  1  0  0.242995  0.258797  0  4.009447  0
C  C64  1  0.34068244  0.48908922  0.57281158  1  0  0.09896  0.183679  0  4.007813  0
C  C65  1  0.15931763  0.01090910  0.07281082  1  0  0.098933  0.183716  0  4.007722  0
C  C66  1  0.65932263  0.51091554  0.42718828  1  0  0.098985  0.183739  0  4.007631  0
C  C67  1  0.84068070  0.98908799  0.92718813  1  0  0.098989  0.183721  0  4.007815  0
C  C68  1  0.32609798  0.34303234  0.55708390  1  0  -0.076962  -0.176492  0  3.894782  0
C  C69  1  0.17390070  0.15696590  0.05708279  1  0  -0.076927  -0.176464  0  3.894882  0
C  C70  1  0.67390468  0.65697349  0.44291596  1  0  -0.076961  -0.176466  0  3.894643  0
C  C71  1  0.82610003  0.84303012  0.94291570  1  0  -0.076955  -0.176478  0  3.894929  0
C  C72  1  0.25062066  0.29585117  0.50075019  1  0  -0.005493  0.024288  0  4.039419  0
C  C73  1  0.24937863  0.20414466  0.00075006  1  0  -0.005468  0.02425  0  4.039498  0
C  C74  1  0.74938810  0.70415254  0.49925013  1  0  -0.005439  0.024266  0  4.039535  0
C  C75  1  0.75061515  0.79584912  0.99924843  1  0  -0.005444  0.024234  0  4.039514  0
C  C76  1  0.19022264  0.39502930  0.46122966  1  0  -0.07959  -0.107017  0  3.927793  0
C  C77  1  0.30978173  0.10496963  0.96123061  1  0  -0.079616  -0.106909  0  3.92779  0
C  C78  1  0.80979134  0.60497444  0.53876746  1  0  -0.079595  -0.106937  0  3.927827  0
C  C79  1  0.69020920  0.89502957  0.03876698  1  0  -0.079591  -0.106951  0  3.927728  0
C  C80  1  0.20849242  0.54107843  0.47780153  1  0  -0.081461  -0.051476  0  3.983744  0
C  C81  1  0.29151320  0.95892007  0.97780224  1  0  -0.081429  -0.051451  0  3.983721  0
C  C82  1  0.79152177  0.45892641  0.52219424  1  0  -0.081446  -0.051595  0  3.983865  0
C  C83  1  0.70847709  0.04107586  0.02219398  1  0  -0.081449  -0.051568  0  3.983927  0
C  C84  1  0.28469096  0.58922678  0.53324097  1  0  -0.080629  -0.150557  0  3.966619  0
C  C85  1  0.21531095  0.91076869  0.03324096  1  0  -0.080636  -0.150665  0  3.966683  0
C  C86  1  0.71532019  0.41077585  0.46675707  1  0  -0.080727  -0.150674  0  3.966873  0
C  C87  1  0.78468021  0.08922506  0.96675617  1  0  -0.080697  -0.150633  0  3.966854  0
N  N88  1  0.46363492  0.67108209  0.71281488  1  0  -0.244847  -0.211044  0  3.485764  0
N  N89  1  0.03636527  0.82891414  0.21281427  1  0  -0.244834  -0.210986  0  3.485779  0
N  N90  1  0.53636102  0.32891606  0.28718543  1  0  -0.244868  -0.211122  0  3.485668  0
N  N91  1  0.96363741  0.17108516  0.78718604  1  0  -0.244888  -0.211037  0  3.485722  0
N  N92  1  0.56595752  0.56480497  0.71482972  1  0  -0.241759  -0.21735  0  3.466221  0
N  N93  1  0.93404043  0.93518889  0.21482846  1  0  -0.241762  -0.217457  0  3.466324  0
N  N94  1  0.43403777  0.43518991  0.28517060  1  0  -0.241724  -0.217354  0  3.466233  0
N  N95  1  0.06596246  0.06481150  0.78517094  1  0  -0.241678  -0.217311  0  3.466215  0
N  N96  1  0.41213582  0.53861417  0.63057458  1  0  -0.202554  -0.02111  0  3.741363  0
N  N97  1  0.08786048  0.96138385  0.13057408  1  0  -0.202486  -0.021043  0  3.741379  0
N  N98  1  0.58786250  0.46138945  0.36942483  1  0  -0.202547  -0.021161  0  3.741317  0
N  N99  1  0.91213959  0.03861542  0.86942487  1  0  -0.20249  -0.021009  0  3.74125  0
N  N100  1  0.28004830  0.03677715  0.51928668  1  0  -0.237909  -0.168455  0  3.596418  0
N  N101  1  0.21994847  0.46321873  0.01928579  1  0  -0.237897  -0.168477  0  3.596545  0
N  N102  1  0.71994981  0.96322537  0.48071546  1  0  -0.237933  -0.168577  0  3.596312  0
N  N103  1  0.78005096  0.53677727  0.98071498  1  0  -0.237926  -0.168549  0  3.596371  0
N  N104  1  0.25502018  0.91106365  0.48832666  1  0  -0.066167  -0.045996  0  3.171322  0
N  N105  1  0.24497876  0.58893375  0.98832710  1  0  -0.066162  -0.04599  0  3.171373  0
N  N106  1  0.74497292  0.08893992  0.51167502  1  0  -0.066257  -0.04612  0  3.171293  0
N  N107  1  0.75502458  0.41106229  0.01167503  1  0  -0.066187  -0.046009  0  3.171211  0
N  N108  1  0.19641208  0.93998014  0.43477414  1  0  -0.061634  -0.02716  0  3.32427  0
N  N109  1  0.30358789  0.56001704  0.93477414  1  0  -0.061644  -0.027144  0  3.324185  0
N  N110  1  0.80358254  0.06002453  0.56522754  1  0  -0.061477  -0.026964  0  3.324108  0
N  N111  1  0.69641414  0.43997898  0.06522708  1  0  -0.061558  -0.027062  0  3.324059  0
N  N112  1  0.18274717  0.08215166  0.42989270  1  0  -0.197656  -0.25532  0  3.196492  0
N  N113  1  0.31725161  0.41784600  0.92989294  1  0  -0.197617  -0.255282  0  3.196476  0
N  N114  1  0.81725397  0.91785307  0.57010807  1  0  -0.197756  -0.25548  0  3.196501  0
N  N115  1  0.68274520  0.58214998  0.07010737  1  0  -0.197736  -0.255422  0  3.19632  0
O  O116  1  0.61212549  0.69880235  0.82290192  1  0  -0.600828  -0.895358  0  2.126228  0
O  O117  1  0.88787125  0.80119631  0.32290101  1  0  -0.600823  -0.895295  0  2.126217  0
O  O118  1  0.38787045  0.30119580  0.17709976  1  0  -0.60082  -0.895283  0  2.126178  0
O  O119  1  0.11212578  0.19880076  0.67709840  1  0  -0.600804  -0.895294  0  2.126185  0
O  O120  1  0.30340587  0.90054089  0.74462396  1  0  -0.599641  -0.865704  0  2.158385  0
O  O121  1  0.19659425  0.59946091  0.24462328  1  0  -0.599655  -0.865752  0  2.158479  0
O  O122  1  0.69659354  0.09946164  0.25537727  1  0  -0.599649  -0.86573  0  2.158456  0
O  O123  1  0.80341017  0.40054058  0.75537749  1  0  -0.599648  -0.865731  0  2.158477  0
O  O124  1  0.66902236  0.94551931  0.74637390  1  0  -0.521619  -0.706362  0  1.787848  0
O  O125  1  0.83097661  0.55447905  0.24637326  1  0  -0.521638  -0.706372  0  1.787909  0
O  O126  1  0.33097750  0.05447888  0.25362687  1  0  -0.521651  -0.706379  0  1.787848  0
O  O127  1  0.16902433  0.44551805  0.75362706  1  0  -0.521651  -0.706397  0  1.787899  0
O  O128  1  0.49462105  0.95775777  0.85442279  1  0  -0.52171  -0.667666  0  1.700158  0
O  O129  1  0.00537917  0.54224233  0.35442243  1  0  -0.521693  -0.667639  0  1.700193  0
O  O130  1  0.50537923  0.04224259  0.14557844  1  0  -0.521706  -0.667634  0  1.700233  0
O  O131  1  0.99462111  0.45775804  0.64557834  1  0  -0.52173  -0.667695  0  1.700167  0
O  O132  1  0.25622251  0.69557161  0.82773609  1  0  -0.583646  -0.757917  0  2.195751  0
O  O133  1  0.24377498  0.80442835  0.32773648  1  0  -0.583649  -0.757968  0  2.195732  0
O  O134  1  0.74377495  0.30442764  0.17226559  1  0  -0.583662  -0.75795  0  2.195767  0
O  O135  1  0.75622161  0.19557307  0.67226611  1  0  -0.583699  -0.757999  0  2.195738  0
O  O136  1  0.91291474  0.69754911  0.75712518  1  0  -0.504161  -0.681478  0  1.824057  0
O  O137  1  0.58708123  0.80245363  0.25712413  1  0  -0.504151  -0.681459  0  1.82416  0
O  O138  1  0.08708206  0.30245341  0.24287696  1  0  -0.504137  -0.681468  0  1.824199  0
O  O139  1  0.41291688  0.19754890  0.74287619  1  0  -0.504151  -0.68146  0  1.824205  0
O  O140  1  0.87368453  0.55281802  0.86682645  1  0  -0.546411  -0.731451  0  1.803934  0
O  O141  1  0.62631567  0.94718413  0.36682551  1  0  -0.546415  -0.731439  0  1.803949  0
O  O142  1  0.12631597  0.44718343  0.13317523  1  0  -0.546422  -0.731473  0  1.803971  0
O  O143  1  0.37368592  0.05281625  0.63317481  1  0  -0.546441  -0.731514  0  1.804006  0
O  O144  1  0.54429362  0.38512606  0.83214048  1  0  -0.591695  -0.784188  0  2.109461  0
O  O145  1  0.95570700  0.11487210  0.33214085  1  0  -0.591737  -0.784163  0  2.109468  0
O  O146  1  0.45570645  0.61487321  0.16786029  1  0  -0.591751  -0.784172  0  2.109441  0
O  O147  1  0.04429134  0.88512498  0.66786037  1  0  -0.591667  -0.784105  0  2.109564  0
