# generated using pymatgen
data_MnH16C14(N7O)2
_symmetry_space_group_name_H-M   'P 1'
_cell_length_a   9.58962714
_cell_length_b   9.49189262
_cell_length_c   12.23414392
_cell_angle_alpha   96.31288779
_cell_angle_beta   95.53019495
_cell_angle_gamma   117.62693397
_symmetry_Int_Tables_number   1
_chemical_formula_structural   MnH16C14(N7O)2
_chemical_formula_sum   'Mn2 H32 C28 N28 O4'
_cell_volume   966.82110290
_cell_formula_units_Z   2
loop_
 _symmetry_equiv_pos_site_id
 _symmetry_equiv_pos_as_xyz
  1  'x, y, z'
loop_
 _atom_site_type_symbol
 _atom_site_label
 _atom_site_symmetry_multiplicity
 _atom_site_fract_x
 _atom_site_fract_y
 _atom_site_fract_z
 _atom_site_occupancy
 _atom_site_hle17_ddec_charge
 _atom_site_hle17_ddec_spin_density
 _atom_site_hle17_ddec_sum_bond_order
 _atom_site_hle17_magmom
 _atom_site_hse06_10hf_ddec_charge
 _atom_site_hse06_10hf_ddec_spin_density
 _atom_site_hse06_10hf_ddec_sum_bond_order
 _atom_site_hse06_10hf_magmom
 _atom_site_hse06_ddec_charge
 _atom_site_hse06_ddec_spin_density
 _atom_site_hse06_ddec_sum_bond_order
 _atom_site_hse06_magmom
 _atom_site_pbe_cm5_charge
 _atom_site_pbe_ddec_charge
 _atom_site_pbe_ddec_spin_density
 _atom_site_pbe_ddec_sum_bond_order
 _atom_site_pbe_magmom
Mn  Mn0  1  0.00000656  0.50001050  0.00000215  1  1.14422  -4.790129  1.862864  -4.67  0.986737  -4.707719  2.364319  -4.518  1.036547  -4.751575  2.301773  -4.58  0.638139  0.948009  -4.664149  2.41099  -4.458
Mn  Mn1  1  0.99999435  0.49999677  0.49999955  1  1.143169  -4.790421  1.866742  -4.671  0.98489  -4.708441  2.369347  -4.52  1.03466  -4.751644  2.306741  -4.582  0.633885  0.946555  -4.66495  2.415794  -4.46
H  H2  1  0.47593832  0.11075574  0.32093012  1  0.290097  -8e-06  0.933773  0.0  0.277094  -2.3e-05  1.003403  0.0  0.281993  -1.1e-05  0.999222  0.0  0.298327  0.273462  -2e-05  1.006411  0.0
H  H3  1  0.52405730  0.88923964  0.67906886  1  0.290073  3e-06  0.933842  0.0  0.277082  -2.3e-05  1.003445  0.0  0.281979  -9e-06  0.999271  0.0  0.298356  0.273451  -2e-05  1.006455  0.0
H  H4  1  0.41853875  0.05039422  0.18298496  1  0.287914  -0.0  0.92135  0.0  0.27424  -6e-06  0.9931  0.0  0.278685  3e-06  0.989425  0.0  0.298824  0.270969  -2.4e-05  0.995802  0.0
H  H5  1  0.58146544  0.94960807  0.81700938  1  0.287942  1.2e-05  0.921364  0.0  0.274184  -7e-06  0.993218  0.0  0.278628  4e-06  0.989544  0.0  0.298791  0.270917  -2.4e-05  0.995912  0.0
H  H6  1  0.57236582  0.56600200  0.34070625  1  0.109045  -1.7e-05  0.951288  0.0  0.114175  -0.00013  1.023585  0.0  0.115892  -8.6e-05  1.023342  0.0  0.119843  0.112718  -0.000167  1.024341  0.0
H  H7  1  0.42763092  0.43399571  0.65929133  1  0.109026  -2e-05  0.951238  0.0  0.114218  -0.00013  1.023485  0.0  0.115937  -8.7e-05  1.023247  0.0  0.119854  0.112773  -0.000167  1.024249  0.0
H  H8  1  0.62071342  0.40832998  0.34873236  1  0.111695  0.000414  0.938821  0.0  0.123123  0.000357  1.002166  0.0  0.124564  0.0004  1.001374  0.0  0.125644  0.122209  0.000272  1.002199  0.0
H  H9  1  0.37928138  0.59167019  0.65126525  1  0.111667  0.000423  0.938771  0.0  0.123111  0.000357  1.002112  0.0  0.124554  0.000401  1.00132  0.0  0.125638  0.122212  0.000272  1.002151  0.0
H  H10  1  0.92117184  0.93250441  0.16791500  1  0.104988  -2.3e-05  0.943819  0.0  0.111947  -0.00014  1.012864  0.0  0.113372  -9.3e-05  1.012697  0.0  0.119463  0.110735  -0.000189  1.013447  0.0
H  H11  1  0.07882580  0.06749082  0.83208166  1  0.105009  -3e-06  0.943863  0.0  0.111974  -0.00014  1.012904  0.0  0.1134  -9.2e-05  1.012733  0.0  0.119485  0.110774  -0.000189  1.01349  0.0
H  H12  1  0.07102370  0.87606835  0.15211658  1  0.116344  0.000418  0.936  0.0  0.127572  0.000327  0.998322  0.0  0.128801  0.000367  0.998076  0.0  0.12858  0.126751  0.000254  0.998054  0.0
H  H13  1  0.92897148  0.12391966  0.84788024  1  0.116332  0.000405  0.935995  0.0  0.1276  0.000328  0.99829  0.0  0.128831  0.000366  0.998041  0.0  0.128591  0.126786  0.000254  0.998029  0.0
H  H14  1  0.79148184  0.38105247  0.21801455  1  0.103321  0.000647  0.987629  0.0  0.110468  0.00031  1.054224  0.0  0.113681  0.000425  1.050583  0.0  0.131091  0.10822  0.000176  1.056569  0.0
H  H15  1  0.20851734  0.61895021  0.78198681  1  0.103283  0.000659  0.987647  0.0  0.110427  0.00031  1.05425  0.0  0.113642  0.000425  1.050604  0.0  0.131091  0.108183  0.000176  1.056591  0.0
H  H16  1  0.76381873  0.67058289  0.98708882  1  0.101491  9.7e-05  0.958062  0.0  0.106299  -0.000175  1.026002  0.0  0.109031  -6.6e-05  1.024838  0.0  0.114276  0.104448  -0.000349  1.026889  0.0
H  H17  1  0.23618159  0.32942218  0.01291197  1  0.101486  0.000118  0.958084  0.0  0.106305  -0.000174  1.026028  0.0  0.109038  -6.5e-05  1.024863  0.0  0.114288  0.104451  -0.000349  1.026914  0.0
H  H18  1  0.54578952  0.63717015  0.13048177  1  0.118885  -0.000162  0.971594  0.0  0.128195  -0.000239  1.032698  0.0  0.130539  -0.000176  1.032189  0.0  0.11982  0.125983  -0.000429  1.033985  0.0
H  H19  1  0.45420244  0.36282634  0.86951376  1  0.118844  -0.000169  0.971612  0.0  0.128157  -0.00024  1.032705  0.0  0.130518  -0.000175  1.032175  0.0  0.119803  0.125946  -0.000429  1.033989  0.0
H  H20  1  0.11687649  0.71606917  0.28436118  1  0.104634  0.000627  0.97877  0.0  0.110441  0.000296  1.048458  0.0  0.113428  0.000399  1.044917  0.0  0.132301  0.108348  0.000172  1.050751  0.0
H  H21  1  0.88312906  0.28393363  0.71564556  1  0.104737  0.000623  0.978672  0.0  0.110457  0.000296  1.048489  0.0  0.113451  0.000399  1.044929  0.0  0.132326  0.108377  0.000172  1.050758  0.0
H  H22  1  0.82522532  0.73061523  0.51838009  1  0.099145  0.000103  0.960047  0.0  0.105463  -0.000168  1.025576  0.0  0.107879  -6.8e-05  1.024837  0.0  0.113559  0.103779  -0.00034  1.0263  0.0
H  H23  1  0.17477604  0.26938982  0.48162077  1  0.099044  0.000112  0.959987  0.0  0.10539  -0.000168  1.025496  0.0  0.107808  -6.8e-05  1.024742  0.0  0.113518  0.103707  -0.000341  1.026219  0.0
H  H24  1  0.84902590  0.94831116  0.37612969  1  0.117067  -0.000157  0.97735  0.0  0.127872  -0.000226  1.035776  0.0  0.130098  -0.000165  1.035332  0.0  0.11923  0.125691  -0.000407  1.037091  0.0
H  H25  1  0.15096868  0.05168422  0.62386922  1  0.117085  -0.000159  0.977337  0.0  0.12787  -0.000226  1.035782  0.0  0.130112  -0.000165  1.035319  0.0  0.119239  0.12569  -0.000407  1.037093  0.0
H  H26  1  0.22466218  0.53338654  0.19686977  1  0.400699  -2.2e-05  0.897809  -0.001  0.361097  -0.000644  0.982287  -0.002  0.371727  -0.000386  0.967051  -0.001  0.290298  0.353809  -0.000948  0.992789  -0.002
H  H27  1  0.77534010  0.46661606  0.80313099  1  0.400685  -2e-05  0.897807  -0.001  0.361087  -0.000644  0.982293  -0.002  0.371717  -0.000386  0.967058  -0.001  0.290318  0.353802  -0.000948  0.992792  -0.002
H  H28  1  0.28948845  0.69186927  0.14160235  1  0.418133  0.000345  0.886015  0.0  0.383038  -0.000214  0.958111  -0.001  0.393675  -3.5e-05  0.942576  -0.001  0.287965  0.375666  -0.000515  0.968767  -0.001
H  H29  1  0.71052620  0.30813937  0.85840298  1  0.418199  0.000344  0.885934  0.0  0.383099  -0.000213  0.95804  -0.001  0.393735  -3.5e-05  0.942505  -0.001  0.288011  0.375724  -0.000514  0.968702  -0.001
H  H30  1  0.81612339  0.21284196  0.35512073  1  0.414515  0.00032  0.892892  0.0  0.378759  -0.000282  0.965805  -0.001  0.389616  -7.9e-05  0.949903  -0.001  0.285919  0.371279  -0.000574  0.976623  -0.001
H  H31  1  0.18386881  0.78714631  0.64488080  1  0.41461  0.000318  0.892766  0.0  0.378845  -0.000282  0.965696  -0.001  0.389702  -7.9e-05  0.949793  -0.001  0.285951  0.371364  -0.000574  0.976513  -0.001
H  H32  1  0.97500506  0.28184695  0.29945020  1  0.398149  -3.5e-05  0.906755  -0.001  0.357603  -0.000679  0.989482  -0.002  0.368411  -0.00041  0.974146  -0.001  0.288263  0.350052  -0.000979  1.00024  -0.002
H  H33  1  0.02498955  0.71814848  0.70054953  1  0.398252  -3.6e-05  0.906672  -0.001  0.35768  -0.000678  0.989384  -0.002  0.368486  -0.00041  0.974049  -0.001  0.28832  0.350132  -0.000978  1.000139  -0.002
C  C34  1  0.38447855  0.33761224  0.26610586  1  0.255975  7.3e-05  3.68732  0.0  0.219327  -0.000115  3.973411  0.0  0.231886  -2e-05  3.987224  0.0  0.223495  0.21089  -0.000501  3.964056  0.0
C  C35  1  0.61551830  0.66238786  0.73389108  1  0.255974  6e-06  3.687367  0.0  0.219316  -0.000114  3.973484  0.0  0.23188  -2.3e-05  3.98729  0.0  0.223416  0.210899  -0.000501  3.964138  0.0
C  C36  1  0.15375790  0.11560679  0.23733569  1  0.273865  9.1e-05  3.68692  0.0  0.2353  -0.000108  3.971589  0.0  0.247832  -1.9e-05  3.985513  0.0  0.230218  0.226815  -0.000503  3.962337  0.0
C  C37  1  0.84624084  0.88438853  0.76266351  1  0.273899  6.8e-05  3.686746  0.0  0.23534  -0.000115  3.971451  0.0  0.247875  -1.3e-05  3.985371  0.0  0.230192  0.226871  -0.000503  3.962204  0.0
C  C38  1  0.55873694  0.45347394  0.29407899  1  -0.093511  -0.000542  3.669537  -0.001  -0.152158  -0.000743  3.915344  -0.001  -0.149247  -0.000516  3.923322  0.0  -0.040157  -0.154529  -0.001111  3.910553  -0.001
C  C39  1  0.44126272  0.54652756  0.70592314  1  -0.093542  -0.000545  3.669404  -0.001  -0.152265  -0.000743  3.915278  -0.001  -0.149364  -0.000513  3.923256  0.0  -0.040178  -0.154704  -0.001112  3.910578  -0.001
C  C40  1  0.03193163  0.94158009  0.21023051  1  -0.088424  -0.000614  3.666311  -0.001  -0.147301  -0.000743  3.911198  -0.001  -0.144207  -0.000533  3.919368  0.0  -0.037177  -0.149688  -0.001104  3.906133  -0.001
C  C41  1  0.96807047  0.05842001  0.78976844  1  -0.088455  -0.000641  3.666322  -0.001  -0.147411  -0.000743  3.911327  -0.001  -0.144317  -0.000529  3.91949  0.0  -0.03722  -0.14985  -0.001104  3.90633  -0.001
C  C42  1  0.75266158  0.45083471  0.17048740  1  0.158468  -0.003759  3.647457  -0.004  0.098405  -0.006003  3.914302  -0.006  0.110877  -0.005069  3.928554  -0.005  0.140381  0.090762  -0.007225  3.903597  -0.007
C  C43  1  0.24734083  0.54917033  0.82951353  1  0.15864  -0.003876  3.647565  -0.004  0.098586  -0.006001  3.914417  -0.006  0.111059  -0.005073  3.928663  -0.005  0.140491  0.090944  -0.007223  3.90371  -0.007
C  C44  1  0.73573305  0.60372387  0.05538583  1  -0.000788  -0.001163  3.766119  -0.002  -0.032705  -0.002734  4.04151  -0.003  -0.030584  -0.002187  4.060538  -0.003  -0.003288  -0.034931  -0.003121  4.029273  -0.003
C  C45  1  0.26426576  0.39627377  0.94461108  1  -0.000817  -0.001354  3.766144  -0.002  -0.032741  -0.002731  4.041534  -0.003  -0.030618  -0.002193  4.060561  -0.003  -0.003293  -0.034963  -0.00312  4.029295  -0.003
C  C46  1  0.62807549  0.58899045  0.12545310  1  -0.073051  0.000393  3.671901  0.0  -0.115014  -0.00014  3.932333  0.0  -0.113642  0.000324  3.951496  0.0  -0.005801  -0.11599  -0.000828  3.920194  -0.001
C  C47  1  0.37192126  0.41100727  0.87454449  1  -0.072975  0.000644  3.671855  0.0  -0.114942  -0.000144  3.932279  0.0  -0.113583  0.000336  3.951429  0.0  -0.005795  -0.115918  -0.000828  3.920134  -0.001
C  C48  1  0.04377164  0.74993184  0.33226872  1  0.169556  -0.003973  3.63667  -0.004  0.10792  -0.006131  3.905419  -0.006  0.120997  -0.005214  3.919296  -0.005  0.145193  0.099864  -0.00744  3.895098  -0.007
C  C49  1  0.95622730  0.25006602  0.66773312  1  0.169459  -0.003956  3.636608  -0.004  0.107867  -0.006133  3.905386  -0.006  0.120945  -0.005207  3.919264  -0.005  0.145158  0.099809  -0.007439  3.895073  -0.007
C  C50  1  0.89024298  0.76088835  0.44930372  1  -0.003547  -0.001344  3.771679  -0.002  -0.035752  -0.002873  4.047433  -0.003  -0.03364  -0.002319  4.066543  -0.003  -0.005933  -0.037988  -0.003206  4.035389  -0.003
C  C51  1  0.10975401  0.23911197  0.55069815  1  -0.003397  -0.001431  3.77178  -0.002  -0.035638  -0.002872  4.047534  -0.003  -0.033517  -0.002325  4.066642  -0.003  -0.005883  -0.037873  -0.003205  4.035487  -0.003
C  C52  1  0.89987932  0.86780632  0.37976140  1  -0.073415  0.000513  3.682927  0.0  -0.115491  -0.000103  3.942801  0.0  -0.11383  0.00038  3.96171  0.0  -0.006251  -0.116747  -0.00085  3.931094  -0.001
C  C53  1  0.10011535  0.13219143  0.62023604  1  -0.073509  0.000602  3.68305  0.0  -0.115565  -0.000102  3.942949  0.0  -0.113918  0.000379  3.961846  0.0  -0.006283  -0.116817  -0.00085  3.931233  -0.001
C  C54  1  0.82004123  0.12669836  0.03758690  1  0.51457  -0.021476  3.980505  -0.022  0.473253  -0.026995  4.269444  -0.026  0.499933  -0.023879  4.279486  -0.024  0.313477  0.455079  -0.030646  4.261864  -0.03
C  C55  1  0.17997598  0.87331546  0.96242714  1  0.5149  -0.021473  3.980218  -0.022  0.473554  -0.026993  4.269147  -0.026  0.500242  -0.023863  4.279181  -0.024  0.313584  0.455383  -0.030637  4.261574  -0.03
C  C56  1  0.59006990  0.91845187  0.07545110  1  0.474886  -0.000498  4.010102  -0.001  0.440397  -0.001526  4.296227  -0.001  0.463797  -0.000923  4.308415  -0.001  0.292256  0.424582  -0.002363  4.287527  -0.002
C  C57  1  0.40995609  0.08157143  0.92456175  1  0.47488  -0.000614  4.010306  -0.001  0.440354  -0.001528  4.296435  -0.001  0.463755  -0.00092  4.30863  -0.001  0.292236  0.424541  -0.002363  4.287734  -0.002
C  C58  1  0.36509759  0.68164292  0.44738194  1  0.512812  -0.01978  3.993899  -0.02  0.469313  -0.02525  4.285213  -0.025  0.496291  -0.022255  4.295383  -0.022  0.312887  0.450994  -0.028751  4.277652  -0.028
C  C59  1  0.63489553  0.31834737  0.55261080  1  0.512772  -0.01977  3.994076  -0.02  0.469303  -0.025256  4.285396  -0.025  0.496259  -0.022226  4.295568  -0.022  0.312883  0.450977  -0.028748  4.277836  -0.028
C  C60  1  0.57166765  0.91057954  0.40283806  1  0.498624  -0.000645  3.993099  -0.001  0.461481  -0.001516  4.278083  -0.001  0.485724  -0.000972  4.289929  -0.001  0.302016  0.44521  -0.002346  4.269505  -0.002
C  C61  1  0.42832179  0.08940963  0.59715516  1  0.498814  -0.000608  3.993048  -0.001  0.461701  -0.001555  4.278037  -0.001  0.485927  -0.000891  4.289881  -0.001  0.302178  0.445426  -0.002345  4.269462  -0.002
N  N62  1  0.26974779  0.37877420  0.25854667  1  -0.276302  -9.1e-05  3.001663  0.0  -0.242803  -0.000382  3.277681  -0.001  -0.253796  -0.000137  3.29253  -0.001  -0.210652  -0.235938  -0.000551  3.268295  -0.001
N  N63  1  0.73024672  0.62122108  0.74144978  1  -0.276228  -5.5e-05  3.001587  0.0  -0.242715  -0.000375  3.277589  -0.001  -0.253706  -0.000158  3.292433  -0.001  -0.210582  -0.235845  -0.000551  3.268192  -0.001
N  N64  1  0.12502590  0.23944376  0.24057356  1  -0.282594  -1.1e-05  3.017352  0.0  -0.24538  -0.00028  3.290308  -0.001  -0.25685  -4.5e-05  3.3051  -0.001  -0.211974  -0.238053  -0.000473  3.28102  -0.001
N  N65  1  0.87497115  0.76055027  0.75942298  1  -0.282677  3.2e-05  3.017442  0.0  -0.245473  -0.000288  3.290403  -0.001  -0.256942  -2.2e-05  3.305192  -0.001  -0.211957  -0.238142  -0.000473  3.281107  -0.001
N  N66  1  0.31546532  0.17172423  0.25323241  1  -0.005888  -0.00013  3.562728  0.0  0.072488  -0.000228  3.795017  0.0  0.059015  -0.000138  3.818184  0.0  -0.139089  0.080664  -0.000427  3.779624  0.0
N  N67  1  0.68452976  0.82827222  0.74676334  1  -0.005989  -9.6e-05  3.562817  0.0  0.0724  -0.000223  3.795087  0.0  0.058926  -0.000146  3.818253  0.0  -0.139123  0.080581  -0.000427  3.779685  0.0
N  N68  1  0.38215817  0.06913974  0.25663896  1  -0.515882  7.9e-05  2.967337  0.0  -0.521098  -2.3e-05  3.211821  0.0  -0.528275  1.1e-05  3.212665  0.0  -0.497347  -0.515572  -7.9e-05  3.21113  0.0
N  N69  1  0.61783908  0.93085904  0.74335546  1  -0.515774  1e-06  2.967509  0.0  -0.520912  -2.4e-05  3.212034  0.0  -0.528094  1.4e-05  3.212886  0.0  -0.49727  -0.515388  -7.9e-05  3.211341  0.0
N  N70  1  0.64012476  0.49149586  0.19786163  1  -0.055097  -0.001124  3.564011  -0.001  0.037745  -0.00228  3.783708  -0.002  0.023288  -0.001754  3.809708  -0.002  -0.244063  0.047736  -0.002616  3.765243  -0.003
N  N71  1  0.35986949  0.50850318  0.80213750  1  -0.055133  -0.001113  3.564041  -0.001  0.037726  -0.002281  3.783747  -0.002  0.023268  -0.001753  3.80975  -0.002  -0.244044  0.047738  -0.002616  3.765298  -0.003
N  N72  1  0.81292406  0.51771054  0.08447767  1  -0.396774  -0.028165  3.258191  -0.015  -0.32918  -0.032272  3.549645  -0.014  -0.350502  -0.029164  3.566246  -0.012  -0.347126  -0.313224  -0.034819  3.537511  -0.016
N  N73  1  0.18708050  0.48229678  0.91552112  1  -0.396827  -0.028091  3.258292  -0.015  -0.329266  -0.032273  3.549781  -0.014  -0.350591  -0.029168  3.566383  -0.012  -0.347204  -0.313303  -0.03482  3.537639  -0.016
N  N74  1  0.99750299  0.85935165  0.30604107  1  -0.053269  -0.001104  3.564597  -0.001  0.03896  -0.002296  3.783793  -0.002  0.024329  -0.001765  3.809763  -0.002  -0.243014  0.049072  -0.002639  3.765428  -0.003
N  N75  1  0.00249102  0.14064256  0.69395854  1  -0.053203  -0.001111  3.564662  -0.001  0.039054  -0.002293  3.783824  -0.002  0.024425  -0.001766  3.809797  -0.002  -0.24302  0.049179  -0.002638  3.76547  -0.003
N  N76  1  0.97986535  0.68784887  0.41872592  1  -0.401221  -0.028297  3.256202  -0.015  -0.332444  -0.032253  3.547116  -0.014  -0.354035  -0.029114  3.563746  -0.012  -0.349642  -0.316334  -0.034734  3.535179  -0.016
N  N77  1  0.02013729  0.31215015  0.58127626  1  -0.401236  -0.028285  3.256333  -0.015  -0.332458  -0.032254  3.547265  -0.014  -0.354052  -0.029116  3.563894  -0.012  -0.349627  -0.31635  -0.034735  3.535331  -0.016
N  N78  1  0.72887085  0.97753757  0.04416876  1  -0.470976  -0.004819  3.299848  -0.004  -0.414558  -0.00778  3.560057  -0.006  -0.437711  -0.00632  3.56432  -0.005  -0.315412  -0.398374  -0.008925  3.556533  -0.007
N  N79  1  0.27115606  0.02248748  0.95585654  1  -0.471141  -0.004815  3.299226  -0.004  -0.414674  -0.007786  3.559416  -0.006  -0.437844  -0.006313  3.563687  -0.005  -0.315427  -0.398479  -0.008925  3.555872  -0.007
N  N80  1  0.91559921  0.25710336  0.02722465  1  -0.608332  -0.016377  2.855267  0.002  -0.561986  -0.023814  3.158489  0.001  -0.584798  -0.018995  3.15872  0.004  -0.379234  -0.545358  -0.028216  3.157768  -0.002
N  N81  1  0.08441809  0.74291726  0.97277840  1  -0.608547  -0.016392  2.855485  0.002  -0.562165  -0.023811  3.158653  0.001  -0.584971  -0.01902  3.158873  0.004  -0.379331  -0.545544  -0.028224  3.157947  -0.002
N  N82  1  0.46364024  0.84950772  0.10227937  1  -0.589121  -0.002085  2.711912  -0.003  -0.551282  -0.003303  2.951581  -0.004  -0.569754  -0.002587  2.959393  -0.003  -0.357897  -0.5385  -0.003957  2.946073  -0.004
N  N83  1  0.53636789  0.15050695  0.89772263  1  -0.589079  -0.001983  2.71229  -0.002  -0.5512  -0.003297  2.951923  -0.004  -0.569667  -0.002588  2.959735  -0.003  -0.357909  -0.538422  -0.003955  2.946416  -0.004
N  N84  1  0.50291634  0.76281861  0.41938952  1  -0.466775  -0.004378  3.327658  -0.004  -0.407902  -0.007138  3.588717  -0.006  -0.431584  -0.005834  3.593124  -0.005  -0.309821  -0.391663  -0.008527  3.585407  -0.007
N  N85  1  0.49706638  0.23716543  0.58059469  1  -0.466778  -0.004318  3.327448  -0.004  -0.407936  -0.0072  3.58849  -0.006  -0.431601  -0.005739  3.592925  -0.005  -0.309884  -0.391691  -0.008527  3.58518  -0.007
N  N86  1  0.24390231  0.59282964  0.47422078  1  -0.611436  -0.017497  2.850058  0.0  -0.56492  -0.02503  3.153417  0.0  -0.587828  -0.02036  3.153903  0.002  -0.379622  -0.548143  -0.029033  3.152388  -0.003
N  N87  1  0.75608951  0.40715359  0.52577630  1  -0.611409  -0.017544  2.85043  0.0  -0.564901  -0.024987  3.153777  0.0  -0.587808  -0.020444  3.154269  0.002  -0.379647  -0.548124  -0.029036  3.152749  -0.003
N  N88  1  0.64890409  0.04270923  0.38535342  1  -0.604218  -0.001809  2.714133  -0.002  -0.564913  -0.003178  2.953975  -0.004  -0.583886  -0.002404  2.960629  -0.003  -0.363714  -0.551645  -0.003928  2.948943  -0.004
N  N89  1  0.35108773  0.95728263  0.61464668  1  -0.604393  -0.001866  2.714117  -0.002  -0.565104  -0.003118  2.953973  -0.003  -0.584075  -0.002513  2.960635  -0.003  -0.3638  -0.551832  -0.003928  2.948943  -0.004
O  O90  1  0.19112928  0.60297657  0.15946503  1  -0.811831  -0.026428  1.897905  -0.017  -0.749651  -0.037065  2.102905  -0.025  -0.771304  -0.032839  2.06898  -0.022  -0.559705  -0.733502  -0.040715  2.12563  -0.028
O  O91  1  0.80888082  0.39703568  0.84053776  1  -0.811912  -0.02643  1.897826  -0.017  -0.749743  -0.037067  2.102858  -0.025  -0.771393  -0.03284  2.068935  -0.022  -0.559784  -0.733602  -0.040717  2.125584  -0.028
O  O92  1  0.90450262  0.31316897  0.33859366  1  -0.816115  -0.027319  1.916662  -0.018  -0.753269  -0.037979  2.124949  -0.025  -0.775506  -0.03377  2.090556  -0.022  -0.562399  -0.73692  -0.041752  2.147967  -0.028
O  O93  1  0.09548916  0.68682060  0.66140956  1  -0.816293  -0.027312  1.916495  -0.018  -0.753373  -0.037979  2.124758  -0.025  -0.775625  -0.033768  2.090396  -0.022  -0.562489  -0.737039  -0.041752  2.147795  -0.028
