# generated using pymatgen
data_Cu5H16C24(N3O10)2
_symmetry_space_group_name_H-M   'P 1'
_cell_length_a   7.44381647
_cell_length_b   13.89564412
_cell_length_c   15.77872919
_cell_angle_alpha   108.18035947
_cell_angle_beta   89.97402867
_cell_angle_gamma   105.51489106
_symmetry_Int_Tables_number   1
_chemical_formula_structural   Cu5H16C24(N3O10)2
_chemical_formula_sum   'Cu10 H32 C48 N12 O40'
_cell_volume   1487.96496870
_cell_formula_units_Z   2
loop_
 _symmetry_equiv_pos_site_id
 _symmetry_equiv_pos_as_xyz
  1  'x, y, z'
loop_
 _atom_site_type_symbol
 _atom_site_label
 _atom_site_symmetry_multiplicity
 _atom_site_fract_x
 _atom_site_fract_y
 _atom_site_fract_z
 _atom_site_occupancy
 _atom_site_pbe_cm5_charge
 _atom_site_pbe_ddec_charge
 _atom_site_pbe_ddec_spin_density
 _atom_site_pbe_ddec_sum_bond_order
 _atom_site_pbe_magmom
Cu  Cu0  1  0.61687064  0.72589438  0.58038901  1  0.728437  0.946386  -0.665502  2.176404  -0.526
Cu  Cu1  1  0.89014153  0.27380517  0.91948705  1  0.729228  0.947852  0.66123  2.17455  0.521
Cu  Cu2  1  0.38308283  0.27418236  0.41968997  1  0.728516  0.945716  -0.661171  2.176722  -0.523
Cu  Cu3  1  0.11081341  0.72677932  0.08163967  1  0.712365  0.920954  -0.007657  2.19168  -0.006
Cu  Cu4  1  0.62337886  0.49294195  0.58572094  1  0.719522  0.890838  0.637023  2.221451  0.501
Cu  Cu5  1  0.13279178  0.50676668  0.91415828  1  0.707794  0.868198  0.006632  2.248725  0.005
Cu  Cu6  1  0.37662491  0.50717900  0.41434738  1  0.719319  0.890895  0.637693  2.221689  0.501
Cu  Cu7  1  0.86719604  0.49229243  0.08574537  1  0.718562  0.884219  -0.630647  2.219096  -0.498
Cu  Cu8  1  0.51206675  0.99981392  0.74994210  1  0.723855  0.934375  -0.702118  2.11171  -0.556
Cu  Cu9  1  0.48802559  0.00016419  0.24998235  1  0.724784  0.934858  0.706736  2.113623  0.557
H  H10  1  0.67127642  0.79393965  0.27734280  1  0.323294  0.315184  0.000188  0.958479  0.0
H  H11  1  0.87758957  0.20557150  0.22234563  1  0.323269  0.315505  0.00016  0.957345  0.0
H  H12  1  0.32860132  0.20607953  0.72261705  1  0.323366  0.315262  -0.000158  0.957681  0.0
H  H13  1  0.12260161  0.79417191  0.77793318  1  0.323184  0.314776  -0.000163  0.955473  0.0
H  H14  1  0.30326886  0.59504749  0.56679023  1  0.270853  0.36386  -0.000173  0.989367  -0.001
H  H15  1  0.70762425  0.40495347  0.93310111  1  0.271754  0.365133  0.000139  0.986978  0.001
H  H16  1  0.69663737  0.40503953  0.43325230  1  0.270645  0.363454  -0.000177  0.989975  -0.001
H  H17  1  0.29165600  0.59518138  0.06626574  1  0.271901  0.361434  5.6e-05  0.991404  0.0
H  H18  1  0.81651247  0.92611218  0.64285628  1  0.293976  0.402229  -0.000723  0.9294  -0.001
H  H19  1  0.89037951  0.07363816  0.85713670  1  0.294476  0.40395  0.000629  0.926892  0.001
H  H20  1  0.18350408  0.07386204  0.35697648  1  0.294137  0.402769  -0.000641  0.928357  -0.001
H  H21  1  0.10881548  0.92685089  0.14282762  1  0.293544  0.402223  4e-05  0.929502  0.0
H  H22  1  0.93894102  0.84776321  0.64640273  1  0.291485  0.390113  -0.000389  0.947429  0.0
H  H23  1  0.09095172  0.15210598  0.85353970  1  0.291143  0.389722  0.000422  0.948162  0.0
H  H24  1  0.06114075  0.15223144  0.35358838  1  0.291476  0.389947  -0.000425  0.947628  0.0
H  H25  1  0.90842187  0.84818106  0.14616687  1  0.291075  0.389543  -2e-05  0.948864  0.0
H  H26  1  0.49439233  0.59732794  0.24219094  1  0.149732  0.132388  -0.000289  0.997307  0.0
H  H27  1  0.89701352  0.40219571  0.25772366  1  0.150365  0.133104  0.000299  0.995892  0.0
H  H28  1  0.50572857  0.40276384  0.75776604  1  0.150213  0.132858  -0.000263  0.996484  0.0
H  H29  1  0.10322732  0.59732185  0.74262738  1  0.149922  0.132982  4.5e-05  0.997401  0.0
H  H30  1  0.76801006  0.87714646  0.45066773  1  0.159283  0.135179  0.000267  0.943045  0.0
H  H31  1  0.89118812  0.12251046  0.04894829  1  0.160116  0.13646  -0.00031  0.942223  0.0
H  H32  1  0.23192698  0.12290269  0.54932001  1  0.159213  0.135017  0.000281  0.943119  0.0
H  H33  1  0.10824630  0.87698749  0.95139870  1  0.158855  0.135835  3.5e-05  0.94398  0.0
H  H34  1  0.56659822  0.92449489  0.01104236  1  0.107223  0.117181  -6.9e-05  1.001812  0.0
H  H35  1  0.64217849  0.07514491  0.48883235  1  0.108065  0.118664  -1.1e-05  1.000918  0.0
H  H36  1  0.43346891  0.07547052  0.98900155  1  0.107562  0.11791  0.000172  1.000705  0.0
H  H37  1  0.35760125  0.92473702  0.51089013  1  0.107864  0.118481  5.6e-05  1.000556  0.0
H  H38  1  0.65417299  0.56951821  0.87035041  1  0.108852  0.123275  0.000165  1.013941  0.0
H  H39  1  0.08373633  0.43017596  0.62956353  1  0.109245  0.125077  -1.8e-05  1.012519  0.0
H  H40  1  0.34595688  0.43048421  0.12987036  1  0.108786  0.123165  0.000191  1.015459  0.0
H  H41  1  0.91585114  0.56966012  0.37032888  1  0.109177  0.125089  -0.000171  1.012806  0.0
C  C42  1  0.54527084  0.65284721  0.30858028  1  0.179147  0.176265  -0.001236  3.838557  -0.001
C  C43  1  0.89242943  0.34672669  0.19127920  1  0.180269  0.178033  0.001216  3.837913  0.001
C  C44  1  0.45476142  0.34719088  0.69141328  1  0.179428  0.176287  -0.001192  3.838705  -0.001
C  C45  1  0.10753091  0.65288808  0.80897629  1  0.179371  0.171869  -3.3e-05  3.839065  0.0
C  C46  1  0.68629355  0.79704492  0.41514743  1  0.185797  0.18275  0.001134  3.852751  0.001
C  C47  1  0.88946229  0.20259613  0.08457006  1  0.185463  0.182208  -0.000871  3.852612  -0.001
C  C48  1  0.31367905  0.20299475  0.58484910  1  0.186033  0.183006  0.000913  3.852446  0.001
C  C49  1  0.11001726  0.79692479  0.91563558  1  0.184629  0.175995  -0.000173  3.851466  0.0
C  C50  1  0.62885214  0.71062259  0.84761906  1  -0.015759  -0.06624  0.000662  3.938052  0.001
C  C51  1  0.91749389  0.28906194  0.65230573  1  -0.016028  -0.065522  0.005295  3.936278  0.006
C  C52  1  0.37115802  0.28933645  0.15254036  1  -0.015577  -0.064686  -0.000886  3.936884  -0.001
C  C53  1  0.08242294  0.71067231  0.34745724  1  -0.016372  -0.065481  -0.005166  3.934898  -0.006
C  C54  1  0.61151488  0.81320113  0.88844377  1  -0.002847  -0.011856  -0.00538  3.92994  -0.006
C  C55  1  0.79791870  0.18647773  0.61146677  1  -0.001758  -0.009685  -0.002418  3.929001  -0.003
C  C56  1  0.38858426  0.18679346  0.11165570  1  -0.002261  -0.010624  0.004811  3.929307  0.006
C  C57  1  0.20201398  0.81328020  0.38831221  1  -0.001873  -0.010474  0.005668  3.929229  0.006
C  C58  1  0.58609979  0.84660186  0.97924592  1  -0.083283  -0.125322  0.000942  3.944199  0.001
C  C59  1  0.73937811  0.15303916  0.52064666  1  -0.084475  -0.127904  0.000795  3.945578  0.001
C  C60  1  0.41390536  0.15337934  0.02082579  1  -0.083035  -0.125179  -0.000321  3.942373  0.0
C  C61  1  0.26044316  0.84681037  0.47914422  1  -0.084037  -0.127347  -0.000948  3.945593  -0.001
C  C62  1  0.59046833  0.78292363  0.03169092  1  -0.007257  -0.037348  0.002046  3.980823  0.003
C  C63  1  0.80722788  0.21674902  0.46822470  1  -0.008254  -0.03921  0.005819  3.985024  0.006
C  C64  1  0.40928085  0.21707496  0.96840652  1  -0.007528  -0.038755  -0.004124  3.980902  -0.005
C  C65  1  0.19264053  0.78318415  0.53163799  1  -0.007979  -0.038466  -0.001913  3.983538  -0.003
C  C66  1  0.62062438  0.68385942  0.99315748  1  -0.008509  -0.048356  -0.00459  3.956276  -0.005
C  C67  1  0.93613045  0.31585502  0.50678456  1  -0.009487  -0.052077  0.005422  3.960923  0.006
C  C68  1  0.37913054  0.31614542  0.00707223  1  -0.009469  -0.051558  -0.000805  3.961859  -0.001
C  C69  1  0.06363409  0.68411764  0.49308963  1  -0.009175  -0.050614  0.003904  3.958561  0.005
C  C70  1  0.63689997  0.64783800  0.90105430  1  -0.077063  -0.108637  -0.00254  3.938381  -0.003
C  C71  1  0.98818616  0.35187259  0.59888385  1  -0.077645  -0.111135  0.001551  3.939958  0.002
C  C72  1  0.36323019  0.35217310  0.09918596  1  -0.077961  -0.110263  -8.2e-05  3.942273  -0.001
C  C73  1  0.01144780  0.64797851  0.40096516  1  -0.077933  -0.11213  0.001807  3.938451  0.002
C  C74  1  0.63184770  0.66814262  0.74775619  1  0.22009  0.596166  -0.000366  4.143637  -0.001
C  C75  1  0.96305155  0.33171968  0.75214324  1  0.219436  0.596212  0.001561  4.145141  0.0
C  C76  1  0.36818224  0.33187485  0.25240344  1  0.219329  0.59446  -0.000532  4.14512  -0.001
C  C77  1  0.03802123  0.66786520  0.24755190  1  0.221048  0.596674  -0.001104  4.141572  0.001
C  C78  1  0.62846407  0.89470147  0.84285927  1  0.202533  0.58604  -0.000817  4.235698  0.002
C  C79  1  0.73364383  0.10499524  0.65706058  1  0.203647  0.588083  -0.000763  4.235592  0.002
C  C80  1  0.37187721  0.10546593  0.15734285  1  0.201878  0.585192  0.000645  4.237623  -0.002
C  C81  1  0.26634425  0.89481713  0.34275999  1  0.203959  0.58823  0.000607  4.234645  -0.002
C  C82  1  0.57585282  0.83028754  0.12933218  1  0.220268  0.586023  0.002976  4.177683  0.001
C  C83  1  0.74538443  0.16960659  0.37061320  1  0.220424  0.587845  0.003328  4.178599  0.001
C  C84  1  0.42386557  0.16973005  0.87070458  1  0.220398  0.586538  -0.003199  4.178839  -0.001
C  C85  1  0.25460131  0.83041893  0.62926157  1  0.220708  0.586873  -0.002833  4.180626  -0.001
C  C86  1  0.63823410  0.61857738  0.05113000  1  0.216626  0.593484  -0.001353  4.187033  0.0
C  C87  1  0.01925097  0.38108843  0.44880291  1  0.216886  0.594838  0.001713  4.1889  0.0
C  C88  1  0.36119030  0.38168314  0.94945907  1  0.217219  0.593093  -0.000327  4.188987  0.0
C  C89  1  0.98062479  0.61895365  0.55114677  1  0.216703  0.593874  0.001482  4.18969  0.0
N  N90  1  0.61305288  0.72403436  0.45247971  1  -0.253467  -0.197824  -0.042015  3.561579  -0.056
N  N91  1  0.88888261  0.27566189  0.04734892  1  -0.253031  -0.19655  0.042165  3.562428  0.056
N  N92  1  0.38693164  0.27600767  0.54752318  1  -0.253599  -0.197684  -0.041725  3.561979  -0.055
N  N93  1  0.11018136  0.72356475  0.95256351  1  -0.245906  -0.181343  -0.001096  3.566066  -0.001
N  N94  1  0.52469285  0.63348881  0.38570365  1  -0.259148  -0.202863  0.03714  3.57642  0.049
N  N95  1  0.89090540  0.36615413  0.11420506  1  -0.25916  -0.202468  -0.036632  3.575619  -0.048
N  N96  1  0.47532749  0.36654690  0.61429116  1  -0.258817  -0.202132  0.036901  3.575702  0.049
N  N97  1  0.10851208  0.63379934  0.88623491  1  -0.252992  -0.188905  0.00016  3.58272  0.0
N  N98  1  0.64569553  0.75474048  0.32518049  1  -0.343426  -0.203016  0.00056  3.592641  0.001
N  N99  1  0.89122584  0.24483966  0.17456685  1  -0.343891  -0.205047  0.000556  3.594321  0.001
N  N100  1  0.35431547  0.24530076  0.67481584  1  -0.343257  -0.203027  -0.000538  3.592979  -0.001
N  N101  1  0.10884584  0.75484461  0.82559810  1  -0.342803  -0.202303  -0.00054  3.59293  -0.001
O  O102  1  0.65547146  0.57636530  0.71489455  1  -0.322537  -0.555366  0.045138  2.372078  0.063
O  O103  1  0.07834845  0.42339834  0.78478797  1  -0.322712  -0.554984  0.000819  2.374242  0.002
O  O104  1  0.34434483  0.42361434  0.28518563  1  -0.322919  -0.555444  0.044581  2.372684  0.063
O  O105  1  0.92135552  0.57663293  0.21474427  1  -0.322569  -0.555424  -0.043485  2.375111  -0.062
O  O106  1  0.60608440  0.72818708  0.70518479  1  -0.306278  -0.513753  -0.041167  2.413038  -0.059
O  O107  1  0.87719490  0.27179410  0.79488027  1  -0.306637  -0.515754  0.041777  2.413683  0.06
O  O108  1  0.39438918  0.27197084  0.29500013  1  -0.305796  -0.512479  -0.041615  2.415949  -0.06
O  O109  1  0.12672204  0.72706790  0.20480270  1  -0.305447  -0.510964  -0.000715  2.421386  -0.001
O  O110  1  0.47421803  0.91571407  0.82992755  1  -0.33244  -0.556616  -0.058624  2.3463  -0.083
O  O111  1  0.55836450  0.08392180  0.66997956  1  -0.332781  -0.557844  -0.058106  2.346014  -0.082
O  O112  1  0.52606791  0.08427507  0.16996569  1  -0.33214  -0.556762  0.058582  2.347266  0.083
O  O113  1  0.44174348  0.91620070  0.33012023  1  -0.332823  -0.558082  0.058863  2.346854  0.083
O  O114  1  0.78809224  0.94204776  0.82822094  1  -0.315435  -0.551711  -0.00084  2.171998  -0.002
O  O115  1  0.84621123  0.05779243  0.67168597  1  -0.316188  -0.552367  -0.001108  2.172404  -0.002
O  O116  1  0.21238814  0.05849523  0.17240452  1  -0.315243  -0.5511  0.000616  2.173432  0.001
O  O117  1  0.15351737  0.94174773  0.32787026  1  -0.316668  -0.553078  0.000602  2.168939  0.002
O  O118  1  0.43946462  0.87124903  0.14635146  1  -0.316632  -0.568917  0.051538  2.459996  0.072
O  O119  1  0.56803823  0.12919596  0.35361974  1  -0.317729  -0.572189  0.052097  2.45859  0.072
O  O120  1  0.56053221  0.12900854  0.85366128  1  -0.316388  -0.570174  -0.051417  2.458854  -0.072
O  O121  1  0.43203772  0.87072772  0.64619849  1  -0.316953  -0.571318  -0.050686  2.457324  -0.072
O  O122  1  0.69987693  0.83379803  0.18621303  1  -0.297264  -0.53497  0.002175  2.223385  0.004
O  O123  1  0.86593582  0.16575055  0.31368797  1  -0.296508  -0.534368  0.001886  2.22211  0.003
O  O124  1  0.29964143  0.16604508  0.81383914  1  -0.29742  -0.534951  -0.001897  2.222169  -0.003
O  O125  1  0.13419981  0.83446205  0.68621352  1  -0.296898  -0.534087  -0.002654  2.221304  -0.004
O  O126  1  0.79720888  0.59775281  0.04721486  1  -0.328825  -0.567768  -0.044795  2.520826  -0.065
O  O127  1  0.19900018  0.40181054  0.45267221  1  -0.329026  -0.569821  0.044627  2.519044  0.064
O  O128  1  0.20257237  0.40313406  0.95430126  1  -0.328324  -0.565535  -0.000377  2.525475  0.0
O  O129  1  0.80088771  0.59825047  0.54730549  1  -0.32869  -0.569061  0.044423  2.519518  0.063
O  O130  1  0.50980331  0.59090931  0.09743827  1  -0.298941  -0.526132  -0.000592  2.202979  -0.001
O  O131  1  0.91860077  0.40872132  0.40246125  1  -0.298374  -0.525513  0.000224  2.203449  0.001
O  O132  1  0.48855626  0.40892688  0.90263366  1  -0.296953  -0.523478  0.000157  2.204519  0.0
O  O133  1  0.08138576  0.59130577  0.59741395  1  -0.298008  -0.524753  0.000287  2.202687  0.001
O  O134  1  0.42427898  0.59350118  0.53939992  1  -0.58212  -0.847951  0.000569  2.337982  0.001
O  O135  1  0.82915415  0.40590957  0.96091232  1  -0.582356  -0.846982  -0.001726  2.337983  -0.002
O  O136  1  0.57567273  0.40661504  0.46067091  1  -0.581958  -0.847558  0.000268  2.338592  0.0
O  O137  1  0.17387852  0.59665986  0.03646006  1  -0.573271  -0.827133  0.001445  2.364421  0.001
O  O138  1  0.83363780  0.85494359  0.61147721  1  -0.587939  -0.775797  -0.037444  2.201667  -0.051
O  O139  1  0.97847898  0.14484278  0.88849991  1  -0.588081  -0.777581  0.037441  2.200087  0.051
O  O140  1  0.16634511  0.14496344  0.38850249  1  -0.587532  -0.775546  -0.037141  2.200286  -0.051
O  O141  1  0.02093732  0.85569921  0.11132050  1  -0.587862  -0.776748  -0.000353  2.197459  0.0
