# generated using pymatgen
data_ZnH10C20NO5
_symmetry_space_group_name_H-M   'P 1'
_cell_length_a   11.80519257
_cell_length_b   13.17241482
_cell_length_c   15.26817046
_cell_angle_alpha   90.53687460
_cell_angle_beta   84.78632478
_cell_angle_gamma   83.44971111
_symmetry_Int_Tables_number   1
_chemical_formula_structural   ZnH10C20NO5
_chemical_formula_sum   'Zn2 H20 C40 N2 O10'
_cell_volume   2348.51971709
_cell_formula_units_Z   2
loop_
 _symmetry_equiv_pos_site_id
 _symmetry_equiv_pos_as_xyz
  1  'x, y, z'
loop_
 _atom_site_type_symbol
 _atom_site_label
 _atom_site_symmetry_multiplicity
 _atom_site_fract_x
 _atom_site_fract_y
 _atom_site_fract_z
 _atom_site_occupancy
 _atom_site_pbe_bader_charge
 _atom_site_pbe_bader_spin_density
 _atom_site_pbe_cm5_charge
 _atom_site_pbe_ddec_charge
 _atom_site_pbe_ddec_spin_density
 _atom_site_pbe_ddec_sum_bond_order
 _atom_site_pbe_magmom
Zn  Zn0  1  0.61935393  0.49768079  0.49069422  1  1.285283  0  0.667368  0.816255  0  2.438824  0
Zn  Zn1  1  0.38065249  0.50232057  0.50930845  1  1.283804  0  0.667332  0.816362  0  2.43883  0
H  H2  1  0.68185311  0.51074966  0.76550840  1  0.078639  0  0.101005  0.107642  0  1.010688  0
H  H3  1  0.78711861  0.51846769  0.90002801  1  0.058351  0  0.100631  0.101942  0  0.994893  0
H  H4  1  0.36497691  0.18616536  0.53273202  1  0.157389  0  0.109743  0.122939  0  1.041174  0
H  H5  1  0.63505369  0.81382467  0.46726259  1  0.157319  0  0.109803  0.123047  0  1.04112  0
H  H6  1  0.72505455  0.16172146  0.45459568  1  0.09194  0  0.108061  0.106813  0  1.011366  0
H  H7  1  0.27497646  0.83827936  0.54541466  1  0.091626  0  0.108106  0.106833  0  1.011347  0
H  H8  1  0.81984236  0.39174860  0.56201823  1  0.148266  0  0.133346  0.110668  0  0.966812  0
H  H9  1  0.18017503  0.60824922  0.43795690  1  0.148223  0  0.133414  0.110708  0  0.966762  0
H  H10  1  0.76909850  0.64489602  0.40524935  1  0.161166  0  0.132963  0.11437  0  0.973307  0
H  H11  1  0.23091036  0.35510823  0.59474205  1  0.161652  0  0.132872  0.11432  0  0.973237  0
H  H12  1  0.16547209  0.98077192  0.57567989  1  0.054391  0  0.095869  0.024081  0  0.969325  0
H  H13  1  0.31812038  0.48924946  0.23449432  1  0.079871  0  0.100945  0.10755  0  1.010697  0
H  H14  1  0.83456428  0.01922864  0.42431505  1  0.053929  0  0.095802  0.02402  0  0.969272  0
H  H15  1  0.02362610  0.32745295  0.60501896  1  0.116384  0  0.123567  0.13342  0  0.974685  0
H  H16  1  0.97637761  0.67255291  0.39496555  1  0.116087  0  0.123631  0.13352  0  0.974594  0
H  H17  1  0.32031350  0.49023659  0.78963527  1  0.085407  0  0.102749  0.110625  0  1.007465  0
H  H18  1  0.67965246  0.50976047  0.21037314  1  0.08546  0  0.102632  0.11052  0  1.007647  0
H  H19  1  0.21381191  0.48179072  0.93787710  1  0.064628  0  0.101561  0.103091  0  0.993958  0
H  H20  1  0.78615433  0.51819562  0.06212537  1  0.064821  0  0.10161  0.103122  0  0.993974  0
H  H21  1  0.21285577  0.48152227  0.09997529  1  0.057871  0  0.100621  0.101949  0  0.995044  0
C  C22  1  0.46213571  0.70079875  0.50268628  1  1.599304  0  0.21423  0.592205  0  4.173896  0
C  C23  1  0.64836543  0.12383010  0.47057271  1  -0.086438  0  -0.063338  -0.104097  0  3.941397  0
C  C24  1  0.55474286  0.86134896  0.48510724  1  -0.03019  0  -0.061582  -0.102264  0  3.87035  0
C  C25  1  0.44529717  0.13865471  0.51490648  1  -0.029175  0  -0.061594  -0.102219  0  3.870253  0
C  C26  1  0.55310336  0.96882985  0.48726331  1  0.067554  0  0.008243  0.058999  0  3.931084  0
C  C27  1  0.44693087  0.03117389  0.51274028  1  0.009682  0  0.007888  0.05827  0  3.931346  0
C  C28  1  0.05403861  0.39120147  0.56834837  1  -0.101424  0  -0.06382  -0.149436  0  3.941135  0
C  C29  1  0.94596297  0.60880060  0.43163299  1  -0.101546  0  -0.063747  -0.149376  0  3.940964  0
C  C30  1  0.16798073  0.40564631  0.56317144  1  0.490399  0  0.055799  0.090907  0  3.900859  0
C  C31  1  0.83201825  0.59435512  0.43681728  1  0.490687  0  0.055655  0.09084  0  3.90067  0
C  C32  1  0.14084861  0.54833168  0.47441140  1  0.536116  0  0.082893  0.075519  0  3.847198  0
C  C33  1  0.53790680  0.29919941  0.49731220  1  1.598618  0  0.214386  0.592309  0  4.173482  0
C  C34  1  0.85916072  0.45167783  0.52557147  1  0.535228  0  0.082937  0.075438  0  3.847168  0
C  C35  1  0.02209229  0.54052371  0.47557234  1  0.052932  0  0.012503  0.050994  0  4.009017  0
C  C36  1  0.97791934  0.45948110  0.52440121  1  -0.00549  0  0.012752  0.051663  0  4.008376  0
C  C37  1  0.49916177  0.49960110  0.32908006  1  1.535997  0  0.214486  0.596788  0  4.161756  0
C  C38  1  0.50080708  0.50040122  0.67092754  1  1.535918  0  0.214467  0.596901  0  4.161578  0
C  C39  1  0.60314795  0.50608770  0.80782268  1  -0.002814  0  -0.084581  -0.145382  0  3.940842  0
C  C40  1  0.39682058  0.49391768  0.19218626  1  0.011885  0  -0.084486  -0.145356  0  3.941094  0
C  C41  1  0.50107801  0.50023380  0.76904861  1  -0.034044  0  -0.021443  -0.031359  0  4.012977  0
C  C42  1  0.49888636  0.49977018  0.23096320  1  -0.050861  0  -0.021404  -0.031003  0  4.012666  0
C  C43  1  0.39864839  0.49434844  0.82156880  1  -0.038325  0  -0.083747  -0.144058  0  3.935308  0
C  C44  1  0.29224953  0.48681371  0.05851408  1  -0.067639  0  -0.092641  -0.134403  0  4.025821  0
C  C45  1  0.60131692  0.50565475  0.17844229  1  -0.037967  0  -0.083766  -0.144251  0  3.935363  0
C  C46  1  0.39620159  0.49368200  0.91349814  1  -0.037914  0  -0.00943  0.075409  0  4.046973  0
C  C47  1  0.60376117  0.50632126  0.08651245  1  0.017828  0  -0.009409  0.075336  0  4.047153  0
C  C48  1  0.50022579  0.50003652  0.95345797  1  0.001024  0  0.004154  0.004281  0  3.907068  0
C  C49  1  0.49973494  0.49996984  0.04655407  1  0.020196  0  0.004133  0.004659  0  3.907006  0
C  C50  1  0.60473707  0.50651134  0.89956141  1  0.00677  0  -0.008885  0.075121  0  4.045457  0
C  C51  1  0.39523544  0.49349626  0.10045057  1  0.006886  0  -0.008953  0.074847  0  4.045739  0
C  C52  1  0.29269228  0.48691646  0.96905377  1  -0.049781  0  -0.093075  -0.136595  0  4.027112  0
C  C53  1  0.70727208  0.51307913  0.03095671  1  -0.050209  0  -0.093071  -0.136439  0  4.027203  0
C  C54  1  0.23101755  0.03525136  0.56329880  1  0.88082  0  0.094842  0.271912  0  3.996053  0
C  C55  1  0.70773136  0.51317769  0.94149864  1  -0.067689  0  -0.092639  -0.134507  0  4.025682  0
C  C56  1  0.76901226  0.96474490  0.43670832  1  0.881472  0  0.094863  0.271609  0  3.996319  0
C  C57  1  0.54402348  0.18460783  0.49462066  1  -0.036191  0  -0.008596  -0.013444  0  3.959927  0
C  C58  1  0.45600779  0.81539141  0.50538310  1  -0.036231  0  -0.008784  -0.013994  0  3.960493  0
C  C59  1  0.34550457  0.98207360  0.53442420  1  0.007508  0  -0.016919  -0.036482  0  3.983544  0
C  C60  1  0.65452840  0.01792487  0.46558404  1  0.00756  0  -0.016912  -0.03632  0  3.983668  0
C  C61  1  0.35166943  0.87616606  0.52943803  1  -0.084777  0  -0.063244  -0.103813  0  3.941396  0
N  N62  1  0.79030123  0.51615428  0.48305252  1  -1.235522  0  -0.310556  -0.180356  0  3.523634  0
N  N63  1  0.20970234  0.48384469  0.51692936  1  -1.236131  0  -0.310548  -0.1804  0  3.523618  0
O  O64  1  0.56208970  0.65245115  0.49359518  1  -1.16927  0  -0.313014  -0.550273  0  2.350681  0
O  O65  1  0.79714827  0.87244385  0.42530965  1  -1.076438  0  -0.274475  -0.374618  0  2.138471  0
O  O66  1  0.43793325  0.34754674  0.50640516  1  -1.16841  0  -0.313057  -0.550474  0  2.350088  0
O  O67  1  0.36806249  0.66165853  0.51005064  1  -1.160093  0  -0.316344  -0.540711  0  2.282992  0
O  O68  1  0.63196503  0.33834242  0.48996515  1  -1.160211  0  -0.316386  -0.540719  0  2.283194  0
O  O69  1  0.59636908  0.49490745  0.35994907  1  -1.162894  0  -0.320296  -0.546862  0  2.328619  0
O  O70  1  0.40359006  0.50508210  0.64005254  1  -1.162628  0  -0.320503  -0.547075  0  2.328198  0
O  O71  1  0.40247093  0.50399410  0.37440958  1  -1.17031  0  -0.321166  -0.553426  0  2.329739  0
O  O72  1  0.59748565  0.49602072  0.62559816  1  -1.170362  0  -0.320991  -0.553338  0  2.330094  0
O  O73  1  0.20288916  0.12755442  0.57468652  1  -1.075911  0  -0.27446  -0.374755  0  2.138224  0
