# generated using pymatgen
data_ZnH11C16I2NO5
_symmetry_space_group_name_H-M   'P 1'
_cell_length_a   9.70186396
_cell_length_b   10.96698016
_cell_length_c   16.17269484
_cell_angle_alpha   88.83399518
_cell_angle_beta   90.86659889
_cell_angle_gamma   89.53712718
_symmetry_Int_Tables_number   1
_chemical_formula_structural   ZnH11C16I2NO5
_chemical_formula_sum   'Zn2 H22 C32 I4 N2 O10'
_cell_volume   1720.16351748
_cell_formula_units_Z   2
loop_
 _symmetry_equiv_pos_site_id
 _symmetry_equiv_pos_as_xyz
  1  'x, y, z'
loop_
 _atom_site_type_symbol
 _atom_site_label
 _atom_site_symmetry_multiplicity
 _atom_site_fract_x
 _atom_site_fract_y
 _atom_site_fract_z
 _atom_site_occupancy
 _atom_site_pbe_bader_charge
 _atom_site_pbe_bader_spin_density
 _atom_site_pbe_cm5_charge
 _atom_site_pbe_ddec_charge
 _atom_site_pbe_ddec_spin_density
 _atom_site_pbe_ddec_sum_bond_order
 _atom_site_pbe_magmom
Zn  Zn0  1  0.64633493  0.49916371  0.50302015  1  1.301868  0  0.674637  0.838051  0  2.404196  0
Zn  Zn1  1  0.35450160  0.50323731  0.49819625  1  1.299723  0  0.674574  0.838348  0  2.404287  0
H  H2  1  0.32918010  0.64740003  0.94582850  1  0.093213  0  0.115108  0.132688  0  0.950869  0
H  H3  1  0.66970601  0.35227961  0.05599392  1  0.131257  0  0.115578  0.133269  0  0.951512  0
H  H4  1  0.29858794  0.88023631  0.54435334  1  0.080339  0  0.103502  0.106772  0  1.005218  0
H  H5  1  0.70456588  0.12303184  0.45828697  1  0.092185  0  0.104669  0.110879  0  1.001557  0
H  H6  1  0.28855809  0.10978770  0.54386661  1  0.079075  0  0.101445  0.104125  0  1.005671  0
H  H7  1  0.71436762  0.89324556  0.45839799  1  0.086298  0  0.098893  0.098954  0  1.016941  0
H  H8  1  0.14483529  0.37374359  0.59244945  1  0.14492  0  0.136966  0.133672  0  0.981448  0
H  H9  1  0.85579650  0.62352792  0.40564462  1  0.149823  0  0.137143  0.134387  0  0.983037  0
H  H10  1  0.80989135  0.39264467  0.73049810  1  0.08815  0  0.106006  0.08234  0  0.979895  0
H  H11  1  0.98072267  0.43951773  0.70684036  1  0.037444  0  0.10279  0.0638  0  0.980768  0
H  H12  1  0.88421556  0.17368231  0.72020029  1  0.048105  0  0.098514  0.098516  0  0.959378  0
H  H13  1  0.05421729  0.21971859  0.69784727  1  0.012297  0  0.091342  0.083632  0  0.979237  0
H  H14  1  0.07233973  0.32137895  0.83714452  1  0.005951  0  0.076188  0.101932  0  1.029846  0
H  H15  1  0.03458797  0.16438758  0.84900747  1  0.020385  0  0.085887  0.119202  0  1.000372  0
H  H16  1  0.90200024  0.27534360  0.85968212  1  0.030988  0  0.077295  0.103693  0  1.028276  0
H  H17  1  0.18649427  0.83103476  0.40133169  1  0.089864  0  0.11093  0.084844  0  0.973018  0
H  H18  1  0.01743505  0.79797010  0.43666705  1  0.041477  0  0.103469  0.060044  0  0.987954  0
H  H19  1  0.11182243  0.78774247  0.25633400  1  0.043821  0  0.099353  0.098382  0  0.962804  0
H  H20  1  0.94320838  0.75486926  0.28969785  1  0.036679  0  0.093633  0.086377  0  0.978908  0
H  H21  1  0.91784624  0.96998834  0.34210808  1  0.03332  0  0.086014  0.110652  0  1.010039  0
H  H22  1  0.95669343  0.97154898  0.23534046  1  0.013238  0  0.091493  0.121088  0  0.997963  0
H  H23  1  0.08757146  0.00355766  0.30933454  1  0.060561  0  0.090102  0.116298  0  0.998132  0
C  C24  1  0.51129105  0.73772203  0.50071106  1  1.559527  0  0.216872  0.595111  0  4.166281  0
C  C25  1  0.49165530  0.26546099  0.50140665  1  1.513774  0  0.216577  0.592814  0  4.168589  0
C  C26  1  0.38107919  0.06135413  0.52503279  1  -0.096053  0  -0.085926  -0.097086  0  3.990795  0
C  C27  1  0.62175094  0.94179998  0.47695576  1  -0.004164  0  -0.086699  -0.099457  0  3.992301  0
C  C28  1  0.49611135  0.12907242  0.50092088  1  0.071371  0  -0.014002  -0.020721  0  3.956896  0
C  C29  1  0.50668181  0.87406630  0.50093646  1  0.012083  0  -0.014704  -0.021382  0  3.963757  0
C  C30  1  0.07890005  0.43155603  0.55283342  1  0.564145  0  0.062515  -0.033088  0  3.880079  0
C  C31  1  0.92179261  0.57172169  0.44889753  1  0.576155  0  0.061187  -0.035789  0  3.875853  0
C  C32  1  0.93484555  0.43048423  0.55779323  1  1.114981  0  0.223834  0.338964  0  4.084204  0
C  C33  1  0.06593376  0.57844155  0.44755452  1  1.099924  0  0.225322  0.340447  0  4.077718  0
C  C34  1  0.51224102  0.50168391  0.33883679  1  1.73654  0  0.217905  0.661391  0  4.246708  0
C  C35  1  0.48571127  0.50039147  0.66306414  1  1.66591  0  0.21895  0.663044  0  4.250347  0
C  C36  1  0.62658929  0.53020677  0.97431548  1  -0.132593  0  -0.038919  0.024371  0  3.567344  0
C  C37  1  0.37213049  0.46943068  0.02742270  1  -0.146646  0  -0.039063  0.021966  0  3.567912  0
C  C38  1  0.53018096  0.61283039  0.02755670  1  -0.156363  0  -0.036303  0.027027  0  3.557169  0
C  C39  1  0.46872753  0.38686507  0.97423977  1  -0.133311  0  -0.036814  0.026043  0  3.56182  0
C  C40  1  0.50745393  0.50010146  0.24920181  1  0.019886  0  -0.034725  -0.148091  0  3.948602  0
C  C41  1  0.49099005  0.50012921  0.75267805  1  0.190779  0  -0.037188  -0.156874  0  3.957658  0
C  C42  1  0.59407338  0.41793457  0.03109966  1  -0.037442  0  -0.071869  -0.107127  0  3.634202  0
C  C43  1  0.40482613  0.58172432  0.97070506  1  0.02218  0  -0.073117  -0.105782  0  3.634688  0
C  C44  1  0.49914226  0.49888956  0.08684893  1  0.168656  0  0.006  0.113503  0  3.799204  0
C  C45  1  0.49969779  0.50077606  0.91500545  1  0.080983  0  0.003954  0.106001  0  3.813747  0
C  C46  1  0.50245926  0.49866239  0.17398463  1  -0.378173  0  -0.053122  -0.071799  0  4.117696  0
C  C47  1  0.49654314  0.50097032  0.82791246  1  -0.419738  0  -0.052226  -0.069668  0  4.126483  0
C  C48  1  0.38639232  0.93459937  0.52504815  1  -0.040907  0  -0.088204  -0.107699  0  4.001304  0
C  C49  1  0.61645874  0.06856593  0.47685451  1  -0.092387  0  -0.084621  -0.097338  0  3.980628  0
C  C50  1  0.90496610  0.36616477  0.69898134  1  0.38772  0  -0.056362  0.043695  0  3.831446  0
C  C51  1  0.96102337  0.24486049  0.73187932  1  -0.004916  0  -0.167142  -0.135052  0  3.984365  0
C  C52  1  0.99422628  0.25181964  0.82447653  1  -0.046366  0  -0.248346  -0.357453  0  3.985977  0
C  C53  1  0.09271428  0.77861896  0.38816805  1  0.369192  0  -0.055164  0.039518  0  3.84845  0
C  C54  1  0.03461286  0.81056016  0.30280229  1  -0.01003  0  -0.166308  -0.140129  0  3.989887  0
C  C55  1  0.99720142  0.94635792  0.29710335  1  -0.086276  0  -0.238686  -0.350091  0  3.973053  0
I  I56  1  0.57469709  0.78907495  0.06877135  1  0.10151  0  0.042013  -0.054891  0  1.295851  0
I  I57  1  0.42460124  0.21068808  0.93269506  1  0.102095  0  0.052292  -0.044592  0  1.314813  0
I  I58  1  0.82502410  0.57478993  0.93369602  1  0.103346  0  0.058715  -0.044142  0  1.41379  0
I  I59  1  0.17320345  0.42500751  0.06699838  1  0.106328  0  0.052408  -0.043183  0  1.372999  0
N  N60  1  0.85914473  0.49907349  0.50386665  1  -1.230711  0  -0.303657  -0.223234  0  3.504306  0
N  N61  1  0.14162862  0.50515627  0.49855907  1  -1.21678  0  -0.303604  -0.223443  0  3.504214  0
O  O62  1  0.62924687  0.68614105  0.49952436  1  -1.15521  0  -0.319487  -0.549905  0  2.324453  0
O  O63  1  0.37479529  0.31698628  0.51041994  1  -1.170077  0  -0.319018  -0.550722  0  2.325897  0
O  O64  1  0.39540185  0.68381537  0.50165147  1  -1.158487  0  -0.31541  -0.549102  0  2.365205  0
O  O65  1  0.60627302  0.31976990  0.49272997  1  -1.157728  0  -0.315198  -0.54347  0  2.361243  0
O  O66  1  0.63031602  0.51361813  0.37263570  1  -1.144528  0  -0.313241  -0.543692  0  2.248617  0
O  O67  1  0.36682312  0.50125135  0.62919353  1  -1.149416  0  -0.31307  -0.542628  0  2.248178  0
O  O68  1  0.39673138  0.49076279  0.37427916  1  -1.136851  0  -0.30813  -0.533153  0  2.280404  0
O  O69  1  0.60214041  0.49983105  0.62784592  1  -1.142314  0  -0.306283  -0.536735  0  2.287559  0
O  O70  1  0.86486716  0.36123674  0.61152306  1  -1.072369  0  -0.171196  -0.214381  0  2.527326  0
O  O71  1  0.13672586  0.65139101  0.39655202  1  -1.068228  0  -0.16627  -0.203937  0  2.530857  0
