# generated using pymatgen
data_ZnH10C14N2O5
_symmetry_space_group_name_H-M   'P 1'
_cell_length_a   6.03583601
_cell_length_b   7.53123074
_cell_length_c   14.50822355
_cell_angle_alpha   92.40754263
_cell_angle_beta   88.41060046
_cell_angle_gamma   92.34998023
_symmetry_Int_Tables_number   1
_chemical_formula_structural   ZnH10C14N2O5
_chemical_formula_sum   'Zn2 H20 C28 N4 O10'
_cell_volume   658.14442180
_cell_formula_units_Z   2
loop_
 _symmetry_equiv_pos_site_id
 _symmetry_equiv_pos_as_xyz
  1  'x, y, z'
loop_
 _atom_site_type_symbol
 _atom_site_label
 _atom_site_symmetry_multiplicity
 _atom_site_fract_x
 _atom_site_fract_y
 _atom_site_fract_z
 _atom_site_occupancy
 _atom_site_hle17_bader_spin_density
 _atom_site_hle17_ddec_charge
 _atom_site_hle17_ddec_spin_density
 _atom_site_hle17_ddec_sum_bond_order
 _atom_site_hle17_magmom
 _atom_site_hse06_10hf_bader_spin_density
 _atom_site_hse06_10hf_ddec_charge
 _atom_site_hse06_10hf_ddec_spin_density
 _atom_site_hse06_10hf_ddec_sum_bond_order
 _atom_site_hse06_10hf_magmom
 _atom_site_hse06_bader_spin_density
 _atom_site_hse06_ddec_charge
 _atom_site_hse06_ddec_spin_density
 _atom_site_hse06_ddec_sum_bond_order
 _atom_site_hse06_magmom
 _atom_site_pbe_bader_spin_density
 _atom_site_pbe_cm5_charge
 _atom_site_pbe_ddec_charge
 _atom_site_pbe_ddec_spin_density
 _atom_site_pbe_ddec_sum_bond_order
 _atom_site_pbe_magmom
Zn  Zn0  1  0.80804406  0.24771254  0.50281838  1  0  1.22571  0  1.673571  0  0  1.056986  0  2.144163  0  0  1.105061  0  2.079639  0  0  0.701764  1.022952  0  2.18905  0
Zn  Zn1  1  0.19191903  0.75234802  0.49717209  1  0  1.225818  0  1.673788  0  0  1.057141  0  2.144362  0  0  1.10522  0  2.07982  0  0  0.70193  1.023106  0  2.18927  0
H  H2  1  0.49815848  0.60145128  0.67187470  1  0  0.102354  0  0.937424  0  0  0.112825  0  0.995713  0  0  0.116301  0  0.993457  0  0  0.10667  0.110203  0  0.99752  0
H  H3  1  0.47310274  0.90737216  0.32200521  1  0  0.107318  0  0.949373  0  0  0.114468  0  1.013364  0  0  0.118241  0  1.010558  0  0  0.105109  0.111689  0  1.015492  0
H  H4  1  0.50186078  0.39859287  0.32810819  1  0  0.102309  0  0.937728  0  0  0.112735  0  0.996034  0  0  0.116271  0  0.993712  0  0  0.106648  0.11014  0  0.9978  0
H  H5  1  0.52690742  0.09269299  0.67801750  1  0  0.107469  0  0.949231  0  0  0.114613  0  1.013224  0  0  0.118383  0  1.010421  0  0  0.105128  0.111792  0  1.015398  0
H  H6  1  0.63616665  0.67781502  0.82972477  1  0  0.092141  0  0.965736  0  0  0.100728  0  1.027839  0  0  0.102547  0  1.029587  0  0  0.098856  0.099205  0  1.027182  0
H  H7  1  0.61006637  0.82601174  0.16246663  1  0  0.094658  0  0.95506  0  0  0.103866  0  1.015215  0  0  0.105917  0  1.016516  0  0  0.099954  0.102155  0  1.014898  0
H  H8  1  0.36389356  0.32214999  0.17025818  1  0  0.09187  0  0.965747  0  0  0.100484  0  1.027823  0  0  0.1023  0  1.029572  0  0  0.098738  0.098967  0  1.027161  0
H  H9  1  0.38989899  0.17399421  0.83755982  1  0  0.094716  0  0.954936  0  0  0.103902  0  1.015078  0  0  0.105963  0  1.016389  0  0  0.099949  0.102189  0  1.014766  0
H  H10  1  0.39167704  0.61829082  0.96770158  1  0  0.101623  0  0.967679  0  0  0.108165  0  1.037192  0  0  0.111469  0  1.034345  0  0  0.10692  0.105837  0  1.039195  0
H  H11  1  0.37587867  0.88031104  0.02763165  1  0  0.099487  0  0.974466  0  0  0.104671  0  1.047054  0  0  0.107927  0  1.044257  0  0  0.10578  0.102377  0  1.049034  0
H  H12  1  0.60842932  0.38160707  0.03228442  1  0  0.101623  0  0.967629  0  0  0.10806  0  1.037285  0  0  0.111366  0  1.034432  0  0  0.106935  0.10573  0  1.039295  0
H  H13  1  0.62405188  0.11957341  0.97239638  1  0  0.099448  0  0.97465  0  0  0.104518  0  1.047313  0  0  0.107769  0  1.044526  0  0  0.105699  0.102223  0  1.049287  0
H  H14  1  0.88064774  0.39935182  0.79072544  1  0  0.114719  0  0.957686  0  0  0.120636  0  1.0273  0  0  0.123673  0  1.026293  0  0  0.108416  0.118222  0  1.028573  0
H  H15  1  0.87905030  0.10405422  0.21083639  1  0  0.115909  0  0.952988  0  0  0.121999  0  1.022131  0  0  0.12499  0  1.021189  0  0  0.108711  0.119612  0  1.023338  0
H  H16  1  0.11941135  0.60063709  0.20926080  1  0  0.114634  0  0.957556  0  0  0.120543  0  1.027271  0  0  0.123564  0  1.026293  0  0  0.108409  0.118132  0  1.028539  0
H  H17  1  0.12091363  0.89593716  0.78917181  1  0  0.115994  0  0.953055  0  0  0.122176  0  1.022031  0  0  0.125171  0  1.021081  0  0  0.108768  0.11975  0  1.023281  0
H  H18  1  0.39685639  0.34691762  0.53028825  1  0  0.434163  0  0.87031  0  0  0.405566  0  0.929026  0  0  0.415536  0  0.914633  0  0  0.298033  0.398554  0  0.939139  0
H  H19  1  0.38114739  0.14689822  0.48959787  1  0  0.44015  0  0.862768  0  0  0.409464  0  0.924972  0  0  0.419795  0  0.910052  0  0  0.298213  0.402185  0  0.935474  0
H  H20  1  0.60313205  0.65315397  0.46969681  1  0  0.434095  0  0.87032  0  0  0.405405  0  0.929233  0  0  0.415379  0  0.914833  0  0  0.297868  0.39839  0  0.939354  0
H  H21  1  0.61882801  0.85315844  0.51041726  1  0  0.439863  0  0.863098  0  0  0.409204  0  0.925269  0  0  0.41953  0  0.910359  0  0  0.298079  0.401928  0  0.935767  0
C  C22  1  0.10188127  0.44427864  0.62695650  1  0  0.685336  0  3.84964  0  0  0.62963  0  4.140066  0  0  0.665995  0  4.13016  0  0  0.226146  0.604825  0  4.146094  0
C  C23  1  0.09186887  0.06436323  0.37193539  1  0  0.687784  0  3.846667  0  0  0.632436  0  4.135819  0  0  0.668828  0  4.126165  0  0  0.226408  0.607611  0  4.141644  0
C  C24  1  0.89810776  0.55575706  0.37303119  1  0  0.685241  0  3.850054  0  0  0.629773  0  4.140136  0  0  0.666134  0  4.130228  0  0  0.226355  0.604963  0  4.146165  0
C  C25  1  0.90811983  0.93567243  0.62806195  1  0  0.688006  0  3.84774  0  0  0.63274  0  4.136712  0  0  0.669126  0  4.127055  0  0  0.226558  0.607923  0  4.142543  0
C  C26  1  0.18205202  0.49402203  0.72113129  1  0  -0.073289  0  3.761576  0  0  -0.047713  0  3.993391  0  0  -0.057537  0  4.017465  0  0  -0.019624  -0.041225  0  3.976936  0
C  C27  1  0.16928825  0.01250107  0.27652382  1  0  -0.077703  0  3.765164  0  0  -0.053258  0  3.999429  0  0  -0.063338  0  4.023415  0  0  -0.02056  -0.046604  0  3.983034  0
C  C28  1  0.81794999  0.50598202  0.27883977  1  0  -0.072887  0  3.76133  0  0  -0.047404  0  3.993066  0  0  -0.057204  0  4.017133  0  0  -0.019702  -0.04092  0  3.976612  0
C  C29  1  0.83069131  0.98751448  0.72348277  1  0  -0.077554  0  3.764885  0  0  -0.053015  0  3.998977  0  0  -0.063089  0  4.022964  0  0  -0.020543  -0.046366  0  3.982564  0
C  C30  1  0.39416880  0.57389926  0.73259805  1  0  -0.033655  0  3.672395  0  0  -0.061608  0  3.920846  0  0  -0.060036  0  3.940359  0  0  -0.070455  -0.06221  0  3.907428  0
C  C31  1  0.37472116  0.93319181  0.26248600  1  0  -0.033525  0  3.668664  0  0  -0.061111  0  3.917939  0  0  -0.059114  0  3.93674  0  0  -0.070349  -0.062076  0  3.905022  0
C  C32  1  0.60587264  0.42609475  0.26737531  1  0  -0.034061  0  3.672709  0  0  -0.061963  0  3.92118  0  0  -0.060453  0  3.940683  0  0  -0.070454  -0.062571  0  3.907745  0
C  C33  1  0.62527025  0.06684515  0.73752997  1  0  -0.033826  0  3.668279  0  0  -0.061496  0  3.917599  0  0  -0.059499  0  3.936399  0  0  -0.070477  -0.062419  0  3.904701  0
C  C34  1  0.47052080  0.61721322  0.82113076  1  0  -0.067427  0  3.760975  0  0  -0.076504  0  4.013493  0  0  -0.081476  0  4.037421  0  0  -0.085241  -0.073164  0  3.997528  0
C  C35  1  0.44992083  0.88661738  0.17311056  1  0  -0.0677  0  3.755634  0  0  -0.076598  0  4.008506  0  0  -0.081574  0  4.031492  0  0  -0.084773  -0.073295  0  3.993293  0
C  C36  1  0.52954621  0.38274263  0.17884022  1  0  -0.066878  0  3.760611  0  0  -0.075925  0  4.013  0  0  -0.080905  0  4.036987  0  0  -0.085045  -0.072587  0  3.997016  0
C  C37  1  0.55005217  0.11336477  0.82691600  1  0  -0.06784  0  3.755632  0  0  -0.076686  0  4.008356  0  0  -0.081687  0  4.031374  0  0  -0.084794  -0.073385  0  3.993128  0
C  C38  1  0.33531653  0.58500922  0.89827417  1  0  -0.098318  0  3.688494  0  0  -0.125735  0  3.940198  0  0  -0.125837  0  3.959309  0  0  -0.071158  -0.125505  0  3.927156  0
C  C39  1  0.32065622  0.91593001  0.09775835  1  0  -0.097089  0  3.689374  0  0  -0.125096  0  3.94244  0  0  -0.124952  0  3.961552  0  0  -0.071355  -0.125093  0  3.929521  0
C  C40  1  0.66476917  0.41491630  0.10170773  1  0  -0.098263  0  3.688698  0  0  -0.125721  0  3.940474  0  0  -0.125813  0  3.959535  0  0  -0.071315  -0.125506  0  3.927491  0
C  C41  1  0.67928949  0.08402381  0.90226840  1  0  -0.096987  0  3.689026  0  0  -0.124755  0  3.941963  0  0  -0.124623  0  3.961102  0  0  -0.071185  -0.124748  0  3.929044  0
C  C42  1  0.12021572  0.50887444  0.88711759  1  0  0.141838  0  3.815374  0  0  0.149882  0  4.067726  0  0  0.147882  0  4.092174  0  0  0.083942  0.151084  0  4.051217  0
C  C43  1  0.11281833  0.99269210  0.11153765  1  0  0.140675  0  3.810552  0  0  0.149432  0  4.061857  0  0  0.14713  0  4.086438  0  0  0.082697  0.150831  0  4.045321  0
C  C44  1  0.87989185  0.49106603  0.11286660  1  0  0.14161  0  3.815752  0  0  0.149821  0  4.067871  0  0  0.14784  0  4.092301  0  0  0.084015  0.151009  0  4.051367  0
C  C45  1  0.88715482  0.00722891  0.88848476  1  0  0.141005  0  3.809528  0  0  0.149606  0  4.060969  0  0  0.147311  0  4.085533  0  0  0.082685  0.151006  0  4.044425  0
C  C46  1  0.04584792  0.46084181  0.79863393  1  0  -0.109685  0  3.661324  0  0  -0.143541  0  3.908157  0  0  -0.14348  0  3.929096  0  0  -0.069632  -0.143388  0  3.894328  0
C  C47  1  0.03892936  0.04282299  0.20091725  1  0  -0.111412  0  3.663368  0  0  -0.144436  0  3.91038  0  0  -0.143955  0  3.930752  0  0  -0.069595  -0.1446  0  3.897005  0
C  C48  1  0.95420219  0.53912700  0.20135674  1  0  -0.109652  0  3.661306  0  0  -0.14348  0  3.907943  0  0  -0.143435  0  3.928885  0  0  -0.069628  -0.143334  0  3.89414  0
C  C49  1  0.96105794  0.95716876  0.79908670  1  0  -0.111959  0  3.663453  0  0  -0.145053  0  3.910469  0  0  -0.144577  0  3.930838  0  0  -0.069822  -0.14518  0  3.897117  0
N  N50  1  0.96485311  0.47860727  0.96016950  1  0  -0.145561  0  2.997082  0  0  -0.121302  0  3.278645  0  0  -0.121037  0  3.28802  0  0  -0.144397  -0.121139  0  3.272215  0
N  N51  1  0.96487555  0.02228315  0.04023681  1  0  -0.147121  0  2.994117  0  0  -0.123032  0  3.275256  0  0  -0.122517  0  3.284555  0  0  -0.145901  -0.123171  0  3.26909  0
N  N52  1  0.03522904  0.52131286  0.03981506  1  0  -0.145665  0  2.997622  0  0  -0.12149  0  3.279162  0  0  -0.121226  0  3.288534  0  0  -0.144363  -0.121321  0  3.272733  0
N  N53  1  0.03507812  0.97765617  0.95978820  1  0  -0.147364  0  2.994171  0  0  -0.123293  0  3.275374  0  0  -0.122777  0  3.284667  0  0  -0.1459  -0.123439  0  3.269215  0
O  O54  1  0.92402740  0.34773301  0.62125823  1  0  -0.626247  0  2.072288  0  0  -0.551232  0  2.339913  0  0  -0.581414  0  2.326888  0  0  -0.299011  -0.530165  0  2.348222  0
O  O55  1  0.91891772  0.15661632  0.38089395  1  0  -0.63282  0  2.062772  0  0  -0.559893  0  2.333149  0  0  -0.590074  0  2.319115  0  0  -0.302693  -0.53878  0  2.342099  0
O  O56  1  0.07590332  0.65236691  0.37874089  1  0  -0.626269  0  2.072878  0  0  -0.55142  0  2.340542  0  0  -0.581609  0  2.327519  0  0  -0.299122  -0.530346  0  2.348858  0
O  O57  1  0.08104579  0.84343218  0.61912313  1  0  -0.63294  0  2.063793  0  0  -0.560036  0  2.334026  0  0  -0.590238  0  2.320055  0  0  -0.302798  -0.538924  0  2.342965  0
O  O58  1  0.21580002  0.49489821  0.55609146  1  0  -0.710231  0  2.116567  0  0  -0.641576  0  2.37881  0  0  -0.667092  0  2.359894  0  0  -0.329315  -0.623735  0  2.391449  0
O  O59  1  0.20194116  0.01834778  0.44048058  1  0  -0.699754  0  2.13743  0  0  -0.627343  0  2.394883  0  0  -0.653624  0  2.377817  0  0  -0.322487  -0.608977  0  2.406226  0
O  O60  1  0.78412903  0.50516324  0.44387785  1  0  -0.709995  0  2.116987  0  0  -0.641397  0  2.379135  0  0  -0.666921  0  2.36024  0  0  -0.329213  -0.623554  0  2.391769  0
O  O61  1  0.79800443  0.98172435  0.55954610  1  0  -0.699849  0  2.13773  0  0  -0.627534  0  2.39521  0  0  -0.653799  0  2.378128  0  0  -0.32261  -0.609167  0  2.406555  0
O  O62  1  0.48087608  0.23545522  0.52343013  1  0  -0.852203  0  1.908481  0  0  -0.780621  0  2.12533  0  0  -0.804056  0  2.089167  0  0  -0.581082  -0.764052  0  2.150319  0
O  O63  1  0.51909306  0.76460536  0.47657754  1  0  -0.851839  0  1.908798  0  0  -0.780213  0  2.125552  0  0  -0.803648  0  2.089394  0  0  -0.580782  -0.763645  0  2.150547  0
