# generated using pymatgen
data_Zn3H28C36N11O14
_symmetry_space_group_name_H-M   'P 1'
_cell_length_a   12.92166052
_cell_length_b   12.92163539
_cell_length_c   14.84897824
_cell_angle_alpha   91.34895933
_cell_angle_beta   91.34893970
_cell_angle_gamma   90.54569717
_symmetry_Int_Tables_number   1
_chemical_formula_structural   Zn3H28C36N11O14
_chemical_formula_sum   'Zn6 H56 C72 N22 O28'
_cell_volume   2477.81881415
_cell_formula_units_Z   2
loop_
 _symmetry_equiv_pos_site_id
 _symmetry_equiv_pos_as_xyz
  1  'x, y, z'
loop_
 _atom_site_type_symbol
 _atom_site_label
 _atom_site_symmetry_multiplicity
 _atom_site_fract_x
 _atom_site_fract_y
 _atom_site_fract_z
 _atom_site_occupancy
 _atom_site_pbe_bader_charge
 _atom_site_pbe_bader_spin_density
 _atom_site_pbe_cm5_charge
 _atom_site_pbe_ddec_charge
 _atom_site_pbe_ddec_spin_density
 _atom_site_pbe_ddec_sum_bond_order
 _atom_site_pbe_magmom
Zn  Zn0  1  0.61775356  0.38224592  0.74999967  1  1.250496  0  0.696263  0.713279  0  2.396508  0
Zn  Zn1  1  0.38224444  0.61775639  0.24999908  1  1.250452  0  0.696234  0.713307  0  2.396546  0
Zn  Zn2  1  0.06550240  0.58936340  0.77624081  1  1.303958  0  0.702756  0.758681  0  2.421997  0
Zn  Zn3  1  0.41063507  0.93449755  0.72375862  1  1.303865  0  0.702723  0.758623  0  2.42198  0
Zn  Zn4  1  0.93449254  0.41066674  0.22376253  1  1.303756  0  0.702606  0.758407  0  2.421243  0
Zn  Zn5  1  0.58933430  0.06550916  0.27623691  1  1.303727  0  0.702589  0.758358  0  2.421313  0
H  H6  1  0.01571031  0.35711466  0.88163576  1  0.093959  0  0.118318  0.133178  0  0.977321  0
H  H7  1  0.64288348  0.98429037  0.61836230  1  0.09401  0  0.118309  0.133181  0  0.977306  0
H  H8  1  0.98428692  0.64288455  0.11835954  1  0.093994  0  0.118293  0.13318  0  0.977328  0
H  H9  1  0.35711374  0.01571270  0.38163981  1  0.093976  0  0.118289  0.133169  0  0.977341  0
H  H10  1  0.72180801  0.49920098  0.93710624  1  0.116479  0  0.113138  0.125821  0  1.011073  0
H  H11  1  0.50079586  0.27819376  0.56289377  1  0.116429  0  0.113122  0.125771  0  1.011049  0
H  H12  1  0.27818921  0.50079746  0.06288837  1  0.116524  0  0.113156  0.1258  0  1.011066  0
H  H13  1  0.49920291  0.72181010  0.43710975  1  0.116477  0  0.113156  0.125807  0  1.011083  0
H  H14  1  0.04110019  0.33752564  0.04856240  1  0.089144  0  0.120333  0.09213  0  0.997631  0
H  H15  1  0.66247278  0.95890248  0.45143643  1  0.089187  0  0.120348  0.09219  0  0.997644  0
H  H16  1  0.95889703  0.66246970  0.95143281  1  0.089042  0  0.12035  0.092214  0  0.997634  0
H  H17  1  0.33752753  0.04110138  0.54856712  1  0.089099  0  0.120328  0.092139  0  0.997614  0
H  H18  1  0.76270309  0.47968582  0.10062168  1  0.14462  0  0.118377  0.09142  0  1.017386  0
H  H19  1  0.52031067  0.23729917  0.39937837  1  0.144558  0  0.118398  0.091411  0  1.017461  0
H  H20  1  0.23729413  0.52031339  0.89937497  1  0.144454  0  0.118409  0.091419  0  1.017415  0
H  H21  1  0.47968655  0.76270467  0.60062308  1  0.144452  0  0.118394  0.091417  0  1.017469  0
H  H22  1  0.45478168  0.45917262  0.61868041  1  0.113211  0  0.119319  0.094329  0  1.008036  0
H  H23  1  0.54082905  0.54521957  0.88132039  1  0.113202  0  0.119305  0.094277  0  1.008105  0
H  H24  1  0.54521477  0.54083354  0.38132041  1  0.113033  0  0.119267  0.09421  0  1.008135  0
H  H25  1  0.45916739  0.45478427  0.11868105  1  0.113076  0  0.119276  0.09421  0  1.008144  0
H  H26  1  0.31333545  0.58685802  0.61500360  1  0.161218  0  0.114348  0.137668  0  1.014559  0
H  H27  1  0.41314450  0.68666597  0.88499726  1  0.161314  0  0.114319  0.137637  0  1.01459  0
H  H28  1  0.68666409  0.41314739  0.38499862  1  0.161388  0  0.114353  0.137659  0  1.014483  0
H  H29  1  0.58685505  0.31333712  0.11500289  1  0.16142  0  0.114372  0.137674  0  1.014467  0
H  H30  1  0.16143064  0.27934918  0.55916019  1  0.081505  0  0.112999  0.136291  0  1.010558  0
H  H31  1  0.72065029  0.83857009  0.94083990  1  0.081477  0  0.113018  0.136311  0  1.010506  0
H  H32  1  0.83856734  0.72065080  0.44084390  1  0.081757  0  0.112998  0.13628  0  1.010518  0
H  H33  1  0.27935003  0.16142992  0.05915683  1  0.081421  0  0.112992  0.136239  0  1.01055  0
H  H34  1  0.19769106  0.17078666  0.62629690  1  0.094214  0  0.108122  0.134791  0  1.016691  0
H  H35  1  0.82921238  0.80230924  0.87370382  1  0.094242  0  0.108119  0.134772  0  1.016673  0
H  H36  1  0.80230459  0.82921019  0.37370908  1  0.094194  0  0.108127  0.134752  0  1.016716  0
H  H37  1  0.17078949  0.19769233  0.12629163  1  0.094298  0  0.108168  0.134815  0  1.016597  0
H  H38  1  0.29510949  0.25043991  0.57843229  1  0.042252  0  0.097724  0.106994  0  0.997127  0
H  H39  1  0.74955890  0.70488974  0.92156840  1  0.042249  0  0.097724  0.106981  0  0.997153  0
H  H40  1  0.70488616  0.74955540  0.42157097  1  0.042195  0  0.097751  0.106992  0  0.997162  0
H  H41  1  0.25044297  0.29511183  0.07842772  1  0.042238  0  0.097727  0.10695  0  0.997111  0
H  H42  1  0.26501825  0.32895605  0.82499061  1  0.094519  0  0.108083  0.126534  0  0.997385  0
H  H43  1  0.67104389  0.73498212  0.67501015  1  0.094467  0  0.108076  0.126498  0  0.99743  0
H  H44  1  0.73498129  0.67104394  0.17501284  1  0.094438  0  0.108063  0.12646  0  0.997545  0
H  H45  1  0.32895566  0.26501866  0.32498726  1  0.094442  0  0.108067  0.126471  0  0.997532  0
H  H46  1  0.36815814  0.30779460  0.74907420  1  0.019667  0  0.09521  0.103253  0  1.033039  0
H  H47  1  0.69220453  0.63184203  0.75092719  1  0.019665  0  0.095218  0.103238  0  1.033039  0
H  H48  1  0.63184139  0.69220538  0.25092992  1  0.019634  0  0.095205  0.103208  0  1.033078  0
H  H49  1  0.30779502  0.36815797  0.24907020  1  0.019655  0  0.095218  0.103228  0  1.033059  0
H  H50  1  0.28188764  0.20328386  0.77184945  1  0.119555  0  0.107827  0.137546  0  1.020967  0
H  H51  1  0.79671533  0.71811294  0.72815127  1  0.119589  0  0.107834  0.137553  0  1.020945  0
H  H52  1  0.71811267  0.79671304  0.22815192  1  0.119704  0  0.107839  0.137577  0  1.020918  0
H  H53  1  0.20328730  0.28188631  0.27184819  1  0.119696  0  0.107843  0.137584  0  1.020939  0
H  H54  1  0.11222058  0.41510858  0.63497340  1  0.14483  0  0.130673  0.0686  0  1.022843  0
H  H55  1  0.58489046  0.88777964  0.86502736  1  0.144766  0  0.130662  0.068578  0  1.022847  0
H  H56  1  0.88778359  0.58489067  0.36503215  1  0.144465  0  0.130563  0.068513  0  1.022844  0
H  H57  1  0.41510908  0.11221649  0.13496860  1  0.14448  0  0.130605  0.068553  0  1.022818  0
H  H58  1  0.82954912  0.54401403  0.51635382  1  0.642237  0  0.290071  0.337704  0  1.018475  0
H  H59  1  0.45598645  0.17045127  0.98364690  1  0.642236  0  0.290063  0.337698  0  1.018488  0
H  H60  1  0.17045275  0.45598445  0.48364426  1  0.642161  0  0.290086  0.337679  0  1.018498  0
H  H61  1  0.54401773  0.82954877  0.01635530  1  0.642172  0  0.290073  0.337634  0  1.018518  0
C  C62  1  0.85421301  0.45453679  0.79964070  1  0.943031  0  0.218184  0.304592  0  3.971138  0
C  C63  1  0.54546142  0.14578500  0.70035721  1  0.943021  0  0.218183  0.304612  0  3.97104  0
C  C64  1  0.14578033  0.54545542  0.20035436  1  0.942865  0  0.218249  0.304445  0  3.971158  0
C  C65  1  0.45454509  0.85421970  0.29964380  1  0.942819  0  0.218321  0.304641  0  3.971124  0
C  C66  1  0.86751293  0.43288648  0.89569396  1  0.016438  0  0.019366  0.069933  0  3.985447  0
C  C67  1  0.56711095  0.13248928  0.60430469  1  0.016293  0  0.019318  0.069832  0  3.985581  0
C  C68  1  0.13248662  0.56711352  0.10430208  1  0.016753  0  0.019284  0.069862  0  3.985702  0
C  C69  1  0.43288550  0.86751379  0.39569808  1  0.016635  0  0.019297  0.069847  0  3.985562  0
C  C70  1  0.95752727  0.38474560  0.92808435  1  -0.028715  0  -0.074057  -0.154195  0  3.923435  0
C  C71  1  0.61525186  0.04247393  0.57191494  1  -0.02869  0  -0.074012  -0.154094  0  3.923367  0
C  C72  1  0.04246996  0.61525283  0.07191228  1  -0.028719  0  -0.074047  -0.15415  0  3.923469  0
C  C73  1  0.38474614  0.95752837  0.42808717  1  -0.028734  0  -0.074024  -0.15414  0  3.923515  0
C  C74  1  0.79428795  0.46438076  0.95851214  1  -0.008347  0  -0.076445  -0.154125  0  3.940101  0
C  C75  1  0.53561670  0.20571266  0.54148716  1  -0.008268  0  -0.076439  -0.154075  0  3.940305  0
C  C76  1  0.20571082  0.53561769  0.04148519  1  -0.008404  0  -0.076423  -0.154032  0  3.940232  0
C  C77  1  0.46438283  0.79428734  0.45851359  1  -0.008302  0  -0.076448  -0.154077  0  3.940156  0
C  C78  1  0.97238586  0.37433784  0.02045090  1  0.533381  0  0.050084  0.093576  0  3.950463  0
C  C79  1  0.62565973  0.02761604  0.47954777  1  0.533353  0  0.05  0.093385  0  3.950401  0
C  C80  1  0.02761137  0.62565982  0.97954369  1  0.533366  0  0.049997  0.093339  0  3.950429  0
C  C81  1  0.37433904  0.97238626  0.52045503  1  0.533363  0  0.050043  0.09348  0  3.950333  0
C  C82  1  0.81601564  0.45254220  0.04967292  1  0.440764  0  0.048899  0.097072  0  3.932816  0
C  C83  1  0.54745362  0.18398811  0.45032714  1  0.440862  0  0.048855  0.097081  0  3.933078  0
C  C84  1  0.18398390  0.54745780  0.95032312  1  0.440988  0  0.048893  0.097105  0  3.932719  0
C  C85  1  0.45254205  0.81601495  0.54967561  1  0.440978  0  0.048906  0.097128  0  3.93283  0
C  C86  1  0.88948021  0.51078439  0.66687215  1  0.442125  0  0.075095  -0.015026  0  4.032127  0
C  C87  1  0.48921390  0.11051978  0.83312783  1  0.441987  0  0.075083  -0.015056  0  4.032036  0
C  C88  1  0.11052088  0.48920866  0.33312310  1  0.442117  0  0.075191  -0.014939  0  4.031783  0
C  C89  1  0.51079028  0.88948102  0.16687641  1  0.442099  0  0.075175  -0.014926  0  4.031842  0
C  C90  1  0.78955546  0.46932793  0.66390054  1  0.394674  0  0.071578  -0.012498  0  4.033341  0
C  C91  1  0.53066983  0.21044380  0.83610077  1  0.394645  0  0.071589  -0.01247  0  4.033106  0
C  C92  1  0.21044329  0.53066587  0.33610006  1  0.394652  0  0.071404  -0.012774  0  4.032973  0
C  C93  1  0.46933282  0.78955855  0.16389876  1  0.394631  0  0.071481  -0.012528  0  4.033014  0
C  C94  1  0.71142890  0.45805922  0.58983266  1  1.588274  0  0.208374  0.558076  0  4.246435  0
C  C95  1  0.54194132  0.28856967  0.91016668  1  1.588261  0  0.208419  0.558114  0  4.246353  0
C  C96  1  0.28856987  0.54194000  0.41016671  1  1.588069  0  0.20846  0.558249  0  4.246131  0
C  C97  1  0.45806054  0.71143189  0.08983214  1  1.588011  0  0.208453  0.558196  0  4.246187  0
C  C98  1  0.95022383  0.56522872  0.59958940  1  1.57813  0  0.225715  0.569166  0  4.177006  0
C  C99  1  0.43477041  0.04977445  0.90040989  1  1.578277  0  0.225686  0.569169  0  4.177119  0
C  C100  1  0.04978653  0.43476208  0.40041207  1  1.577471  0  0.225817  0.569319  0  4.176826  0
C  C101  1  0.56523763  0.95021634  0.09958748  1  1.577518  0  0.225716  0.569141  0  4.177099  0
C  C102  1  0.00882814  0.80736370  0.76635862  1  1.562115  0  0.207741  0.530378  0  4.252504  0
C  C103  1  0.19263434  0.99117477  0.73363954  1  1.56221  0  0.207656  0.530274  0  4.252697  0
C  C104  1  0.99115586  0.19260288  0.23363904  1  1.562675  0  0.207825  0.530469  0  4.253629  0
C  C105  1  0.80739930  0.00884564  0.26636038  1  1.562729  0  0.207729  0.530372  0  4.253828  0
C  C106  1  0.12104448  0.80327991  0.75473503  1  0.463709  0  0.079302  0.012121  0  4.015589  0
C  C107  1  0.19671719  0.87895433  0.74526436  1  0.413763  0  0.079348  0.012262  0  4.015411  0
C  C108  1  0.87892571  0.19675235  0.24525972  1  0.463214  0  0.079542  0.012221  0  4.015863  0
C  C109  1  0.80325064  0.12107480  0.25473971  1  0.414937  0  0.07965  0.01228  0  4.016083  0
C  C110  1  0.27109821  0.72890181  0.75000107  1  0.98731  0  0.220892  0.305882  0  3.965401  0
C  C111  1  0.72890984  0.27109361  0.25000044  1  0.987539  0  0.221025  0.305915  0  3.965319  0
C  C112  1  0.44066192  0.50888581  0.67723977  1  0.423075  0  0.046955  0.095249  0  3.93031  0
C  C113  1  0.49111666  0.55933929  0.82276106  1  0.423037  0  0.047  0.09537  0  3.930396  0
C  C114  1  0.55933917  0.49111962  0.32276315  1  0.423305  0  0.046954  0.0954  0  3.93018  0
C  C115  1  0.50888134  0.44066147  0.17723766  1  0.423394  0  0.047006  0.095479  0  3.930225  0
C  C116  1  0.36277908  0.58224799  0.67520209  1  0.018417  0  -0.074779  -0.15358  0  3.915981  0
C  C117  1  0.41775318  0.63722197  0.82479939  1  0.018276  0  -0.074762  -0.15359  0  3.915971  0
C  C118  1  0.63721351  0.41776279  0.32479874  1  0.017793  0  -0.074728  -0.153401  0  3.91618  0
C  C119  1  0.58223863  0.36278802  0.17520208  1  0.017736  0  -0.074798  -0.153472  0  3.916132  0
C  C120  1  0.35129710  0.64870505  0.75000044  1  -0.031529  0  0.024491  0.08279  0  3.973171  0
C  C121  1  0.64868544  0.35131648  0.25000109  1  -0.031257  0  0.024378  0.08239  0  3.973047  0
C  C122  1  0.21783971  0.25013241  0.60823757  1  0.267846  0  -0.131384  -0.277418  0  3.875957  0
C  C123  1  0.74986682  0.78216181  0.89176319  1  0.267856  0  -0.131388  -0.277391  0  3.875864  0
C  C124  1  0.78215827  0.74986447  0.39176779  1  0.26763  0  -0.131434  -0.277337  0  3.87598  0
C  C125  1  0.25013582  0.21783822  0.10823292  1  0.267818  0  -0.131411  -0.277263  0  3.87576  0
C  C126  1  0.28761833  0.28724303  0.76366674  1  0.252685  0  -0.138565  -0.274591  0  3.871985  0
C  C127  1  0.71275595  0.71238251  0.73633333  1  0.25269  0  -0.138535  -0.274484  0  3.872015  0
C  C128  1  0.71238197  0.71275156  0.23633324  1  0.252669  0  -0.138555  -0.274453  0  3.872013  0
C  C129  1  0.28724746  0.28761752  0.26366684  1  0.252659  0  -0.138586  -0.274494  0  3.871993  0
C  C130  1  0.16165986  0.40080893  0.69455456  1  1.352814  0  0.179026  0.295649  0  4.049746  0
C  C131  1  0.59918905  0.83834080  0.80544484  1  1.352846  0  0.17907  0.295735  0  4.04967  0
C  C132  1  0.83834278  0.59918259  0.30543800  1  1.353204  0  0.179095  0.295702  0  4.049858  0
C  C133  1  0.40081667  0.16165614  0.19456137  1  1.353193  0  0.179073  0.295735  0  4.049705  0
N  N134  1  0.90440158  0.41031598  0.08066666  1  -1.241829  0  -0.320556  -0.233952  0  3.540864  0
N  N135  1  0.58968149  0.09560105  0.41933204  1  -1.241889  0  -0.320422  -0.233794  0  3.540755  0
N  N136  1  0.09559719  0.58968169  0.91932931  1  -1.241948  0  -0.320518  -0.233809  0  3.540559  0
N  N137  1  0.41031727  0.90440125  0.58066942  1  -1.241881  0  -0.320506  -0.233837  0  3.540657  0
N  N138  1  0.92969538  0.49992538  0.75221693  1  -1.192183  0  -0.335772  -0.339463  0  3.456304  0
N  N139  1  0.50007297  0.07030605  0.74778241  1  -1.192182  0  -0.335734  -0.339421  0  3.45628  0
N  N140  1  0.07031035  0.50006538  0.24778107  1  -1.192464  0  -0.335824  -0.339359  0  3.456515  0
N  N141  1  0.49993508  0.92969170  0.25221848  1  -1.192416  0  -0.335826  -0.339442  0  3.456571  0
N  N142  1  0.76742777  0.43506463  0.74816407  1  -1.202208  0  -0.349554  -0.35445  0  3.484927  0
N  N143  1  0.56493402  0.23257256  0.75183660  1  -1.202108  0  -0.349607  -0.354535  0  3.484724  0
N  N144  1  0.23257255  0.56493538  0.25183198  1  -1.202018  0  -0.349468  -0.354308  0  3.48414  0
N  N145  1  0.43506397  0.76742974  0.24816552  1  -1.201972  0  -0.349603  -0.354613  0  3.484671  0
N  N146  1  0.16875014  0.70927528  0.75652036  1  -1.184853  0  -0.340783  -0.339012  0  3.484634  0
N  N147  1  0.29072456  0.83124891  0.74348042  1  -1.184711  0  -0.340827  -0.339107  0  3.48466  0
N  N148  1  0.83123160  0.29071839  0.24347111  1  -1.185683  0  -0.341049  -0.339041  0  3.485513  0
N  N149  1  0.70928273  0.16876816  0.25652896  1  -1.185556  0  -0.341057  -0.339026  0  3.485612  0
N  N150  1  0.50356599  0.49643468  0.75000106  1  -1.255881  0  -0.329494  -0.241148  0  3.57128  0
N  N151  1  0.49642814  0.50357223  0.25000040  1  -1.255741  0  -0.32945  -0.241273  0  3.570694  0
N  N152  1  0.21923727  0.31628040  0.68924919  1  -1.211776  0  -0.271807  0.052337  0  3.704651  0
N  N153  1  0.68371887  0.78076242  0.81075086  1  -1.211751  0  -0.271877  0.052214  0  3.704662  0
N  N154  1  0.78076149  0.68371881  0.31075489  1  -1.211614  0  -0.271782  0.052166  0  3.704458  0
N  N155  1  0.31627991  0.21923758  0.18924449  1  -1.211621  0  -0.271801  0.052119  0  3.7044  0
O  O156  1  0.73037751  0.49880449  0.51438943  1  -1.164259  0  -0.310249  -0.512092  0  2.200475  0
O  O157  1  0.50119541  0.26962348  0.98561130  1  -1.164251  0  -0.310255  -0.512089  0  2.200466  0
O  O158  1  0.26962204  0.50119628  0.48560932  1  -1.164219  0  -0.310217  -0.512053  0  2.200487  0
O  O159  1  0.49880645  0.73037885  0.01439225  1  -1.164236  0  -0.310193  -0.512012  0  2.20054  0
O  O160  1  0.16297725  0.46125627  0.76279041  1  -1.178118  0  -0.305231  -0.472089  0  2.443077  0
O  O161  1  0.53874353  0.83702268  0.73721103  1  -1.178096  0  -0.305263  -0.472122  0  2.443069  0
O  O162  1  0.83702926  0.53874843  0.23721262  1  -1.178252  0  -0.305191  -0.471901  0  2.443759  0
O  O163  1  0.46125368  0.16297188  0.26278753  1  -1.178241  0  -0.305223  -0.471966  0  2.443654  0
O  O164  1  0.62896727  0.40841902  0.60701685  1  -1.176785  0  -0.314462  -0.536229  0  2.291962  0
O  O165  1  0.59158062  0.37103360  0.89298320  1  -1.176778  0  -0.314491  -0.536263  0  2.291869  0
O  O166  1  0.37103460  0.59158177  0.39298061  1  -1.176541  0  -0.314522  -0.536337  0  2.291711  0
O  O167  1  0.40841892  0.62896562  0.10701821  1  -1.176465  0  -0.314555  -0.536369  0  2.291662  0
O  O168  1  0.90585915  0.57958995  0.52025312  1  -1.172721  0  -0.322698  -0.481661  0  2.351577  0
O  O169  1  0.42041043  0.09414024  0.97974825  1  -1.172724  0  -0.322701  -0.481683  0  2.35155  0
O  O170  1  0.09414194  0.42040310  0.47974146  1  -1.172668  0  -0.322615  -0.481528  0  2.352139  0
O  O171  1  0.57959761  0.90585982  0.02025943  1  -1.17266  0  -0.322573  -0.481434  0  2.352146  0
O  O172  1  0.03911859  0.59701319  0.61963425  1  -1.149203  0  -0.290952  -0.485822  0  2.20107  0
O  O173  1  0.40298536  0.96088039  0.88036650  1  -1.149246  0  -0.290908  -0.485782  0  2.201205  0
O  O174  1  0.96088094  0.40297366  0.38035880  1  -1.148422  0  -0.291122  -0.486033  0  2.200458  0
O  O175  1  0.59702656  0.03912279  0.11964267  1  -1.14852  0  -0.291028  -0.485942  0  2.200616  0
O  O176  1  0.96270161  0.72081962  0.78317817  1  -1.107908  0  -0.2955  -0.51466  0  2.226127  0
O  O177  1  0.27917286  0.03729592  0.71682165  1  -1.108126  0  -0.295372  -0.514535  0  2.226178  0
O  O178  1  0.03733183  0.27908930  0.21683211  1  -1.107736  0  -0.295249  -0.514449  0  2.225466  0
O  O179  1  0.72091258  0.96266845  0.28316808  1  -1.107736  0  -0.295202  -0.514384  0  2.225456  0
O  O180  1  0.95957367  0.89078184  0.76150578  1  -0.970154  0  -0.24106  -0.382867  0  1.918956  0
O  O181  1  0.10921545  0.04042373  0.73849416  1  -0.970403  0  -0.241086  -0.382901  0  1.919057  0
O  O182  1  0.04038096  0.10920771  0.23848837  1  -0.969919  0  -0.241001  -0.382664  0  1.920492  0
O  O183  1  0.89079422  0.95962124  0.26151117  1  -0.970306  0  -0.241016  -0.382672  0  1.920572  0
