# generated using pymatgen
data_CuH22C24(N2Cl)2
_symmetry_space_group_name_H-M   'P 1'
_cell_length_a   5.40223981
_cell_length_b   11.28757846
_cell_length_c   17.08105525
_cell_angle_alpha   89.99930892
_cell_angle_beta   90.00040029
_cell_angle_gamma   101.52720205
_symmetry_Int_Tables_number   1
_chemical_formula_structural   CuH22C24(N2Cl)2
_chemical_formula_sum   'Cu2 H44 C48 N8 Cl4'
_cell_volume   1020.56352944
_cell_formula_units_Z   2
loop_
 _symmetry_equiv_pos_site_id
 _symmetry_equiv_pos_as_xyz
  1  'x, y, z'
loop_
 _atom_site_type_symbol
 _atom_site_label
 _atom_site_symmetry_multiplicity
 _atom_site_fract_x
 _atom_site_fract_y
 _atom_site_fract_z
 _atom_site_occupancy
 _atom_site_hle17_ddec_charge
 _atom_site_hle17_ddec_spin_density
 _atom_site_hle17_ddec_sum_bond_order
 _atom_site_hle17_magmom
 _atom_site_hse06_10hf_ddec_charge
 _atom_site_hse06_10hf_ddec_spin_density
 _atom_site_hse06_10hf_ddec_sum_bond_order
 _atom_site_hse06_10hf_magmom
 _atom_site_hse06_ddec_charge
 _atom_site_hse06_ddec_spin_density
 _atom_site_hse06_ddec_sum_bond_order
 _atom_site_hse06_magmom
 _atom_site_pbe_cm5_charge
 _atom_site_pbe_ddec_charge
 _atom_site_pbe_ddec_spin_density
 _atom_site_pbe_ddec_sum_bond_order
 _atom_site_pbe_magmom
Cu  Cu0  1  0.99999624  0.99999963  0.50000127  1  0.752788  -0.601549  1.87293  -0.429  0.724094  -0.701543  2.288467  -0.539  0.809515  -0.766036  2.215371  -0.617  0.618917  0.67608  -0.662011  2.335329  -0.495
Cu  Cu1  1  0.50000547  0.50000059  0.00000086  1  0.75273  -0.601543  1.873013  -0.429  0.724093  -0.701549  2.288442  -0.539  0.809364  -0.766053  2.21547  -0.617  0.618893  0.676066  -0.662018  2.33531  -0.495
H  H2  1  0.42874045  0.02636948  0.36330676  1  0.104859  0.000153  0.973907  0.0  0.109283  0.000105  1.048676  0.0  0.112539  0.000188  1.04629  0.0  0.092073  0.106769  2.2e-05  1.050783  0.0
H  H3  1  0.07127182  0.47362209  0.86330333  1  0.104841  0.000152  0.973961  0.0  0.109339  0.000104  1.048641  0.0  0.112591  0.000188  1.046264  0.0  0.092094  0.106824  2.2e-05  1.050757  0.0
H  H4  1  0.57126404  0.97362206  0.63669816  1  0.104799  0.000154  0.973945  0.0  0.109288  0.000104  1.048629  0.0  0.112542  0.000188  1.046252  0.0  0.092083  0.106772  2.2e-05  1.050732  0.0
H  H5  1  0.92873061  0.52638127  0.13670452  1  0.104881  0.000155  0.973923  0.0  0.109347  0.000104  1.048641  0.0  0.112598  0.000188  1.046265  0.0  0.092114  0.106831  2.2e-05  1.05075  0.0
H  H6  1  0.56868523  0.01814466  0.22541960  1  0.086117  4.7e-05  0.969833  0.0  0.101069  2.5e-05  1.02875  0.0  0.103271  2.4e-05  1.028488  0.0  0.096979  0.099493  2.3e-05  1.02902  0.0
H  H7  1  0.93131790  0.48184742  0.72541479  1  0.086134  4.9e-05  0.969786  0.0  0.101054  2.5e-05  1.028751  0.0  0.103268  2.4e-05  1.028458  0.0  0.096948  0.099461  2.3e-05  1.029043  0.0
H  H8  1  0.43131905  0.98185051  0.77458473  1  0.086154  4.6e-05  0.969765  0.0  0.101093  2.5e-05  1.028713  0.0  0.103305  2.4e-05  1.028423  0.0  0.096971  0.099514  2.3e-05  1.02898  0.0
H  H9  1  0.06867593  0.51815329  0.27459305  1  0.086109  4.6e-05  0.969906  0.0  0.101053  2.5e-05  1.028837  0.0  0.103265  2.4e-05  1.028548  0.0  0.096984  0.099477  2.3e-05  1.029103  0.0
H  H10  1  0.30216452  0.89044030  0.12684514  1  0.088963  -0.000346  0.968599  0.0  0.100634  -0.000474  1.029742  0.0  0.10254  -0.000382  1.029888  0.0  0.094969  0.099243  -0.000541  1.029745  0.0
H  H11  1  0.19782925  0.60955521  0.62684036  1  0.088887  -0.000347  0.968662  0.0  0.100558  -0.000474  1.029825  0.0  0.102462  -0.000382  1.029973  0.0  0.094928  0.099183  -0.000541  1.029798  0.0
H  H12  1  0.69783976  0.10955487  0.87315861  1  0.088872  -0.000345  0.96854  0.0  0.100541  -0.000474  1.029716  0.0  0.102444  -0.000382  1.029867  0.0  0.094913  0.099171  -0.000541  1.029678  0.0
H  H13  1  0.80216191  0.39044371  0.37316573  1  0.089091  -0.000344  0.968604  0.0  0.100722  -0.000474  1.029808  0.0  0.102628  -0.000382  1.029954  0.0  0.095024  0.099338  -0.000541  1.02981  0.0
H  H14  1  0.89094234  0.76014393  0.16403687  1  0.110665  -0.000269  0.960694  0.0  0.11984  -0.000326  1.024395  0.0  0.122633  -0.000236  1.023235  0.0  0.102393  0.117859  -0.0004  1.025204  0.0
H  H15  1  0.60903966  0.73985812  0.66403105  1  0.110752  -0.000268  0.960648  0.0  0.119933  -0.000326  1.024343  0.0  0.122739  -0.000236  1.023162  0.0  0.102441  0.117952  -0.0004  1.025148  0.0
H  H16  1  0.10906275  0.23985305  0.83596571  1  0.110632  -0.000269  0.960715  0.0  0.119842  -0.000326  1.024349  0.0  0.122641  -0.000236  1.023205  0.0  0.102412  0.117864  -0.0004  1.025159  0.0
H  H17  1  0.39094802  0.26014536  0.33597211  1  0.110679  -0.00027  0.960746  0.0  0.119878  -0.000326  1.024423  0.0  0.122694  -0.000236  1.023226  0.0  0.102433  0.117895  -0.0004  1.025235  0.0
H  H18  1  0.52390337  0.67713672  0.22745750  1  0.116106  -0.000773  0.968936  0.0  0.13401  -0.000774  1.034581  0.0  0.135936  -0.000587  1.033272  0.0  0.100102  0.132647  -0.000917  1.035477  0.0
H  H19  1  0.97609988  0.82286675  0.72745446  1  0.116084  -0.000771  0.968911  0.0  0.133958  -0.000774  1.034598  0.0  0.135881  -0.000587  1.033295  0.0  0.100068  0.132597  -0.000917  1.035486  0.0
H  H20  1  0.47609743  0.32286302  0.77254040  1  0.116124  -0.00077  0.968941  0.0  0.134047  -0.000774  1.034589  0.0  0.135974  -0.000587  1.033281  0.0  0.100103  0.13268  -0.000917  1.035508  0.0
H  H21  1  0.02390153  0.17713026  0.27254285  1  0.116108  -0.000772  0.968914  0.0  0.134013  -0.000774  1.034571  0.0  0.135937  -0.000587  1.033264  0.0  0.100105  0.132654  -0.000917  1.035456  0.0
H  H22  1  0.32962590  0.70372927  0.30684641  1  0.093506  7.1e-05  0.96472  0.0  0.110078  3.2e-05  1.035575  0.0  0.109805  3.4e-05  1.037393  0.0  0.101625  0.11014  2.7e-05  1.034431  0.0
H  H23  1  0.17036823  0.79627034  0.80684612  1  0.093479  7.3e-05  0.964813  0.0  0.110069  3.2e-05  1.035635  0.0  0.109796  3.4e-05  1.037455  0.0  0.101605  0.110128  2.7e-05  1.034491  0.0
H  H24  1  0.67036526  0.29626964  0.69314973  1  0.093467  7.4e-05  0.964805  0.0  0.110108  3.2e-05  1.035577  0.0  0.109836  3.4e-05  1.037397  0.0  0.101628  0.110172  2.7e-05  1.03443  0.0
H  H25  1  0.82963769  0.20372845  0.19315236  1  0.093439  7.1e-05  0.964898  0.0  0.110053  3.2e-05  1.035694  0.0  0.109782  3.5e-05  1.037512  0.0  0.101614  0.110113  2.7e-05  1.03455  0.0
H  H26  1  0.50543736  0.58463997  0.31282608  1  0.095588  8.4e-05  0.970948  0.0  0.112955  4.2e-05  1.039481  0.0  0.112292  5.9e-05  1.042349  0.0  0.099654  0.11326  2.3e-05  1.037664  0.0
H  H27  1  0.99456924  0.91536469  0.81282357  1  0.095557  8.4e-05  0.970983  0.0  0.112923  4.2e-05  1.039529  0.0  0.112259  5.9e-05  1.042399  0.0  0.099653  0.113231  2.3e-05  1.037707  0.0
H  H28  1  0.49455914  0.41536253  0.68717181  1  0.095562  8.5e-05  0.97096  0.0  0.112951  4.2e-05  1.039485  0.0  0.112287  5.9e-05  1.042354  0.0  0.099646  0.113264  2.3e-05  1.037668  0.0
H  H29  1  0.00543975  0.08463679  0.18717432  1  0.095518  8.5e-05  0.970966  0.0  0.11288  4.2e-05  1.039521  0.0  0.112217  5.9e-05  1.042389  0.0  0.099627  0.11319  2.3e-05  1.037704  0.0
H  H30  1  0.14961764  0.56635436  0.42966473  1  0.087253  2.6e-05  0.957978  0.0  0.100094  2.7e-05  1.017842  0.0  0.10283  2.3e-05  1.016922  0.0  0.09767  0.098135  3.2e-05  1.018575  0.0
H  H31  1  0.35037339  0.93364584  0.92966251  1  0.087197  2.5e-05  0.958053  0.0  0.10007  2.8e-05  1.017897  0.0  0.102823  2.3e-05  1.016957  0.0  0.097663  0.09811  3.2e-05  1.018631  0.0
H  H32  1  0.85037250  0.43364638  0.57033024  1  0.087334  2.8e-05  0.957974  0.0  0.100188  2.8e-05  1.017816  0.0  0.102936  2.3e-05  1.016882  0.0  0.097727  0.09823  3.2e-05  1.018554  0.0
H  H33  1  0.64963785  0.06635653  0.07033304  1  0.087261  2.5e-05  0.958098  0.0  0.100123  2.8e-05  1.017932  0.0  0.102882  2.3e-05  1.016984  0.0  0.097707  0.098166  3.2e-05  1.018668  0.0
H  H34  1  0.88219711  0.65068940  0.53812538  1  0.095506  8.4e-05  0.993542  0.0  0.103988  -5.2e-05  1.061765  0.0  0.107731  -2.4e-05  1.059485  0.0  0.087393  0.101395  -8e-05  1.063351  0.0
H  H35  1  0.61780350  0.84931379  0.03812379  1  0.095519  8.4e-05  0.99358  0.0  0.104002  -5.2e-05  1.061797  0.0  0.107744  -2.5e-05  1.059519  0.0  0.087395  0.101412  -8e-05  1.063382  0.0
H  H36  1  0.11779262  0.34931043  0.46187193  1  0.09561  8.4e-05  0.993598  0.0  0.1041  -5.2e-05  1.061798  0.0  0.107845  -2.5e-05  1.059518  0.0  0.087442  0.101505  -8e-05  1.063399  0.0
H  H37  1  0.38221779  0.15069031  0.96187352  1  0.095572  8.4e-05  0.993606  0.0  0.104074  -5.2e-05  1.061797  0.0  0.10782  -2.4e-05  1.059516  0.0  0.087423  0.101474  -8e-05  1.063398  0.0
H  H38  1  0.35616464  0.77222050  0.44189931  1  0.114005  0.00038  0.93831  0.0  0.12582  0.000242  1.003982  0.0  0.128268  0.000257  1.003004  0.0  0.101733  0.124141  0.000221  1.004653  0.0
H  H39  1  0.14382424  0.72778223  0.94189656  1  0.114031  0.00038  0.93816  0.0  0.125818  0.000242  1.003863  0.0  0.128261  0.000256  1.002889  0.0  0.101705  0.124139  0.000221  1.004536  0.0
H  H40  1  0.64382058  0.22777756  0.55809858  1  0.114009  0.00038  0.938179  0.0  0.125821  0.000242  1.003872  0.0  0.128256  0.000256  1.002905  0.0  0.10175  0.124143  0.000221  1.004546  0.0
H  H41  1  0.85618168  0.27221656  0.05810192  1  0.114108  0.000379  0.938085  0.0  0.125906  0.000242  1.003784  0.0  0.128347  0.000256  1.002811  0.0  0.101722  0.124224  0.000221  1.004456  0.0
H  H42  1  0.59042174  0.81145560  0.51401195  1  0.104446  0.00065  0.948841  0.0  0.113021  0.000628  1.023979  0.0  0.114666  0.000715  1.021586  0.0  0.098059  0.111378  0.000531  1.026329  0.0
H  H43  1  0.90957274  0.68854807  0.01400893  1  0.104401  0.000651  0.948883  0.0  0.112997  0.000628  1.023988  0.0  0.114646  0.000716  1.021586  0.0  0.098028  0.111362  0.000531  1.026329  0.0
H  H44  1  0.40955938  0.18854158  0.48598711  1  0.104423  0.000651  0.948759  0.0  0.113008  0.000628  1.023923  0.0  0.114651  0.000715  1.021535  0.0  0.098098  0.111375  0.000531  1.026259  0.0
H  H45  1  0.09043687  0.31145885  0.98599013  1  0.104435  0.00065  0.9489  0.0  0.11305  0.000628  1.024005  0.0  0.1147  0.000716  1.021596  0.0  0.098089  0.111412  0.000531  1.026345  0.0
C  C46  1  0.73556474  0.80068852  0.40074156  1  0.368311  0.00486  3.642635  0.003  0.337934  0.000554  3.916556  0.0  0.357783  0.001978  3.929822  0.001  0.235607  0.325125  -0.000535  3.907296  -0.001
C  C47  1  0.76443277  0.69931831  0.90073915  1  0.368362  0.004865  3.642653  0.003  0.337845  0.000551  3.916786  0.0  0.357697  0.00198  3.930043  0.001  0.235583  0.325041  -0.000534  3.907524  -0.001
C  C48  1  0.26442479  0.19931494  0.59925809  1  0.368209  0.004867  3.642584  0.003  0.337798  0.000551  3.916627  0.0  0.357646  0.00198  3.929896  0.001  0.235575  0.324989  -0.000534  3.907369  -0.001
C  C49  1  0.23557807  0.30068316  0.09926167  1  0.368443  0.004859  3.64251  0.003  0.337889  0.000554  3.916655  0.0  0.35774  0.001977  3.92991  0.001  0.235549  0.325073  -0.000534  3.907412  -0.001
C  C50  1  0.93005274  0.82178829  0.28502158  1  0.09678  -0.003328  3.787118  -0.004  0.088266  -0.002367  4.025633  -0.003  0.092665  -0.001835  4.046684  -0.002  0.093131  0.085362  -0.002751  4.011218  -0.003
C  C51  1  0.56993841  0.67821700  0.78502026  1  0.096664  -0.003305  3.787095  -0.004  0.088118  -0.002368  4.02553  -0.003  0.092513  -0.001835  4.046594  -0.002  0.093089  0.085223  -0.002751  4.011105  -0.003
C  C52  1  0.06993535  0.17821610  0.71497982  1  0.096534  -0.003328  3.78718  -0.004  0.088053  -0.002368  4.025685  -0.003  0.09245  -0.001836  4.046745  -0.002  0.092986  0.085154  -0.002751  4.011271  -0.003
C  C53  1  0.43006935  0.32178177  0.21497880  1  0.096611  -0.003336  3.787173  -0.004  0.088078  -0.002367  4.025635  -0.003  0.092473  -0.001835  4.0467  -0.002  0.09306  0.085175  -0.002751  4.011222  -0.003
C  C54  1  0.07641274  0.89790705  0.34113033  1  0.140166  -0.000858  3.844916  -0.001  0.138271  -0.001659  4.094865  -0.002  0.143136  -0.000687  4.118654  -0.001  0.079055  0.135206  -0.002397  4.079008  -0.002
C  C55  1  0.42358143  0.60209830  0.84112529  1  0.140238  -0.000886  3.84523  -0.001  0.13852  -0.00166  4.094914  -0.002  0.143388  -0.000686  4.118694  -0.001  0.079041  0.135443  -0.002397  4.079072  -0.002
C  C56  1  0.92356941  0.10209648  0.65887107  1  0.140434  -0.000854  3.844876  -0.001  0.138495  -0.00166  4.094907  -0.002  0.143365  -0.000685  4.118698  -0.001  0.079158  0.135422  -0.002397  4.079045  -0.002
C  C57  1  0.57642962  0.39789953  0.15887553  1  0.140353  -0.00085  3.845111  -0.001  0.138538  -0.00166  4.09489  -0.002  0.143403  -0.000689  4.118673  -0.001  0.079079  0.135465  -0.002397  4.079032  -0.002
C  C58  1  0.30947931  0.96967657  0.32064260  1  -0.138258  -0.001581  3.736041  -0.002  -0.159593  -0.000372  3.993923  -0.001  -0.162833  -0.000167  4.014053  0.0  -0.096849  -0.157416  -0.000602  3.980458  -0.001
C  C59  1  0.19052398  0.53032181  0.82064131  1  -0.138355  -0.00154  3.735961  -0.002  -0.15984  -0.000373  3.993827  -0.001  -0.163079  -0.000166  4.013947  0.0  -0.09687  -0.157654  -0.000602  3.980359  -0.001
C  C60  1  0.69052517  0.03032314  0.67935822  1  -0.138269  -0.001581  3.735996  -0.002  -0.159683  -0.000373  3.993993  -0.001  -0.162905  -0.000167  4.014077  0.0  -0.096858  -0.157494  -0.000601  3.980505  -0.001
C  C61  1  0.80948829  0.46967874  0.17936360  1  -0.138414  -0.001593  3.735985  -0.002  -0.159827  -0.000372  3.993806  -0.001  -0.163077  -0.000166  4.01395  0.0  -0.096921  -0.157635  -0.000602  3.980319  -0.001
C  C62  1  0.38673145  0.96451723  0.24304032  1  -0.075757  0.001353  3.761829  0.001  -0.092978  0.000236  4.01655  0.0  -0.094259  0.000333  4.037416  0.0  -0.101471  -0.092021  0.000147  4.002257  0.0
C  C63  1  0.11326541  0.53548075  0.74303305  1  -0.075669  0.001295  3.76151  0.001  -0.09286  0.000239  4.016246  0.0  -0.094137  0.000332  4.037117  0.0  -0.101392  -0.091891  0.000148  4.001958  0.0
C  C64  1  0.61326443  0.03547982  0.75696108  1  -0.075829  0.00135  3.761548  0.001  -0.093043  0.000237  4.016285  0.0  -0.094319  0.000333  4.037156  0.0  -0.101484  -0.092086  0.000147  4.001978  0.0
C  C65  1  0.88673498  0.46451809  0.25697070  1  -0.075663  0.001367  3.761913  0.001  -0.092871  0.000237  4.01664  0.0  -0.094148  0.000332  4.037509  0.0  -0.101439  -0.091915  0.000148  4.002345  0.0
C  C66  1  0.23649623  0.89132777  0.18708435  1  -0.067702  -0.002533  3.773093  -0.002  -0.083824  -0.001332  4.026917  -0.001  -0.084641  -0.001025  4.047603  -0.001  -0.097896  -0.083119  -0.001628  4.012734  -0.001
C  C67  1  0.26349679  0.60867396  0.68708258  1  -0.067618  -0.002497  3.773259  -0.002  -0.083735  -0.001335  4.027077  -0.001  -0.084556  -0.001024  4.047772  -0.001  -0.097918  -0.083036  -0.001628  4.012901  -0.001
C  C68  1  0.76351133  0.10867464  0.81291706  1  -0.067539  -0.002531  3.772842  -0.002  -0.083655  -0.001333  4.026664  -0.001  -0.08448  -0.001025  4.047365  -0.001  -0.097829  -0.082957  -0.001628  4.01249  -0.001
C  C69  1  0.73650401  0.39132578  0.31292116  1  -0.067841  -0.00255  3.773428  -0.002  -0.083941  -0.001334  4.027295  -0.001  -0.084763  -0.001025  4.047993  -0.001  -0.097947  -0.083246  -0.001629  4.013118  -0.001
C  C70  1  0.00554010  0.81801008  0.20702820  1  -0.144065  -0.001672  3.747262  -0.001  -0.161691  -0.00131  3.997493  -0.001  -0.16454  -0.000862  4.016877  -0.001  -0.094931  -0.159599  -0.001727  3.984246  -0.001
C  C71  1  0.49444132  0.68199320  0.70702151  1  -0.144094  -0.001708  3.747052  -0.001  -0.161736  -0.001308  3.997297  -0.001  -0.164592  -0.000864  4.016685  -0.001  -0.094887  -0.159645  -0.001728  3.984045  -0.001
C  C72  1  0.99445701  0.18198969  0.79297145  1  -0.144044  -0.001672  3.747526  -0.001  -0.161686  -0.001309  3.997746  -0.001  -0.164558  -0.000863  4.017121  -0.001  -0.094918  -0.159603  -0.001727  3.984507  -0.001
C  C73  1  0.50554718  0.31800392  0.29297931  1  -0.144009  -0.001653  3.74714  -0.001  -0.161657  -0.00131  3.997342  -0.001  -0.164516  -0.000864  4.016722  -0.001  -0.094938  -0.159562  -0.001728  3.984091  -0.001
C  C74  1  0.50698747  0.67630537  0.29132064  1  -0.163487  -0.001194  3.633006  -0.001  -0.264372  -0.001154  3.878485  -0.001  -0.261083  -0.000868  3.8878  -0.001  -0.134856  -0.266292  -0.001386  3.872103  -0.001
C  C75  1  0.99300958  0.82369612  0.79131879  1  -0.163363  -0.001201  3.633051  -0.001  -0.264237  -0.001154  3.878469  -0.001  -0.260952  -0.000868  3.887793  -0.001  -0.134744  -0.266159  -0.001386  3.872084  -0.001
C  C76  1  0.49300780  0.32369441  0.70867725  1  -0.163525  -0.001202  3.632964  -0.001  -0.264505  -0.001153  3.87844  -0.001  -0.261218  -0.000868  3.887758  -0.001  -0.134857  -0.266431  -0.001386  3.872062  -0.001
C  C77  1  0.00699224  0.17630179  0.20867969  1  -0.163255  -0.001197  3.633059  -0.001  -0.264175  -0.001154  3.878478  -0.001  -0.260888  -0.000869  3.887794  -0.001  -0.13471  -0.266089  -0.001386  3.872104  -0.001
C  C78  1  0.51945101  0.62333388  0.48104038  1  0.104758  -0.000341  3.727315  0.0  0.127016  -0.000191  3.959882  0.0  0.127051  -5.8e-05  3.983665  0.0  -0.011282  0.12704  -0.000319  3.94353  0.0
C  C79  1  0.98054090  0.87666705  0.98103696  1  0.104829  -0.000335  3.727611  0.0  0.127088  -0.000192  3.960181  0.0  0.127124  -5.9e-05  3.983966  0.0  -0.011227  0.127109  -0.000319  3.943843  0.0
C  C80  1  0.48054057  0.37666594  0.51895693  1  0.104854  -0.000319  3.727556  0.0  0.127182  -0.00019  3.960041  0.0  0.127217  -5.9e-05  3.983827  0.0  -0.011172  0.127202  -0.000319  3.943701  0.0
C  C81  1  0.01947157  0.12333804  0.01895800  1  0.104815  -0.000327  3.727563  0.0  0.12718  -0.000191  3.96001  0.0  0.127216  -5.8e-05  3.983796  0.0  -0.011196  0.1272  -0.000319  3.943666  0.0
C  C82  1  0.30463826  0.53757578  0.46044932  1  -0.120993  8e-06  3.763552  0.0  -0.139045  -5.5e-05  4.010819  0.0  -0.141028  -2.2e-05  4.031604  0.0  -0.093985  -0.137582  -9.4e-05  3.99661  0.0
C  C83  1  0.19535681  0.96242293  0.96044788  1  -0.120999  -1e-06  3.763631  0.0  -0.139094  -5.4e-05  4.010936  0.0  -0.141092  -2.1e-05  4.031723  0.0  -0.094017  -0.137631  -9.4e-05  3.996733  0.0
C  C84  1  0.69535249  0.46242223  0.53954623  1  -0.121208  -1.9e-05  3.763816  0.0  -0.139303  -5.6e-05  4.011083  0.0  -0.141296  -2.1e-05  4.031864  0.0  -0.094099  -0.137848  -9.4e-05  3.996899  0.0
C  C85  1  0.80465403  0.03757853  0.03954650  1  -0.121123  -1.2e-05  3.76382  0.0  -0.139232  -5.5e-05  4.011078  0.0  -0.141231  -2.2e-05  4.031853  0.0  -0.094077  -0.137776  -9.4e-05  3.996893  0.0
C  C86  1  0.71525971  0.58424764  0.52084555  1  -0.12504  -0.0002  3.74256  0.0  -0.145773  -0.00011  3.9907  0.0  -0.148634  -1.7e-05  4.011499  0.0  -0.098444  -0.143673  -0.000202  3.976391  0.0
C  C87  1  0.78473842  0.91575134  0.02084252  1  -0.125078  -0.000205  3.742573  0.0  -0.145812  -0.00011  3.99071  0.0  -0.148674  -1.6e-05  4.011512  0.0  -0.098431  -0.143707  -0.000202  3.976405  0.0
C  C88  1  0.28472920  0.41575039  0.47915175  1  -0.125225  -0.000226  3.742637  0.0  -0.145992  -0.000111  3.990762  0.0  -0.148855  -1.6e-05  4.011555  0.0  -0.098501  -0.143889  -0.000202  3.976459  0.0
C  C89  1  0.21527241  0.08425012  0.97915245  1  -0.125187  -0.000216  3.742608  0.0  -0.145965  -0.000111  3.99073  0.0  -0.148829  -1.7e-05  4.011526  0.0  -0.098503  -0.143861  -0.000202  3.976416  0.0
C  C90  1  0.54076696  0.75612117  0.46129114  1  -0.251512  0.000444  3.725839  0.0  -0.294219  0.000325  3.961402  0.0  -0.296793  0.000474  3.97001  0.0  -0.149824  -0.292276  0.000176  3.955418  0.0
C  C91  1  0.95922611  0.74388372  0.96128806  1  -0.251428  0.000445  3.725789  0.0  -0.294062  0.000325  3.961334  0.0  -0.296633  0.000474  3.969936  0.0  -0.149721  -0.292128  0.000176  3.955358  0.0
C  C92  1  0.45922257  0.24388229  0.53870558  1  -0.25142  0.000444  3.725668  0.0  -0.294138  0.000325  3.961247  0.0  -0.296699  0.000475  3.969845  0.0  -0.149911  -0.292199  0.000176  3.955265  0.0
C  C93  1  0.04078965  0.25612043  0.03871159  1  -0.251569  0.00045  3.72583  0.0  -0.294319  0.000325  3.961503  0.0  -0.296882  0.000475  3.970097  0.0  -0.149839  -0.292375  0.000176  3.955522  0.0
N  N94  1  0.71791117  0.76142327  0.32486757  1  -0.118129  -0.002526  3.493658  -0.003  -0.025198  -0.00192  3.710588  -0.003  -0.042137  -0.001242  3.734186  -0.002  -0.240026  -0.013932  -0.002408  3.694231  -0.003
N  N95  1  0.78207770  0.73858225  0.82486432  1  -0.118122  -0.002526  3.493748  -0.003  -0.025156  -0.001919  3.710712  -0.003  -0.042097  -0.001242  3.734317  -0.002  -0.240095  -0.013892  -0.002408  3.694353  -0.003
N  N96  1  0.28207651  0.23858022  0.67513149  1  -0.117887  -0.002524  3.4934  -0.003  -0.024914  -0.001919  3.710339  -0.003  -0.041854  -0.001242  3.733942  -0.002  -0.239937  -0.013654  -0.002408  3.693999  -0.003
N  N97  1  0.21792310  0.26141749  0.17513592  1  -0.118185  -0.002523  3.493708  -0.003  -0.025193  -0.00192  3.710673  -0.003  -0.042133  -0.001241  3.734275  -0.002  -0.240117  -0.013926  -0.002408  3.694324  -0.003
N  N98  1  0.94786139  0.88301598  0.41217804  1  -0.457251  -0.069763  3.289602  -0.088  -0.415909  -0.051882  3.596419  -0.068  -0.449964  -0.044054  3.61443  -0.062  -0.381089  -0.39566  -0.055877  3.585824  -0.07
N  N99  1  0.55213251  0.61698615  0.91217362  1  -0.457379  -0.069773  3.289774  -0.088  -0.416063  -0.051887  3.596588  -0.068  -0.450084  -0.044059  3.614566  -0.062  -0.381106  -0.395811  -0.055884  3.585997  -0.07
N  N100  1  0.05212178  0.11698573  0.58782454  1  -0.457337  -0.069774  3.289806  -0.088  -0.416022  -0.051885  3.596721  -0.068  -0.450084  -0.044058  3.614741  -0.062  -0.381109  -0.395765  -0.055882  3.586114  -0.07
N  N101  1  0.44787608  0.38301443  0.08782778  1  -0.45744  -0.06977  3.289746  -0.088  -0.416007  -0.051886  3.59648  -0.068  -0.450028  -0.044056  3.614464  -0.062  -0.381038  -0.395747  -0.055882  3.585878  -0.07
Cl  Cl102  1  0.88691189  0.13921396  0.41712942  1  -0.521185  -0.121987  0.930747  -0.147  -0.501676  -0.087462  1.206836  -0.111  -0.531952  -0.068999  1.185899  -0.095  -0.289256  -0.483625  -0.098332  1.221741  -0.119
Cl  Cl103  1  0.61309477  0.36078833  0.91713094  1  -0.521166  -0.121984  0.9307  -0.147  -0.501715  -0.087458  1.20679  -0.111  -0.531946  -0.068993  1.185864  -0.095  -0.289279  -0.483649  -0.098329  1.221683  -0.119
Cl  Cl104  1  0.11308584  0.86078308  0.58287199  1  -0.521192  -0.121979  0.930711  -0.147  -0.501665  -0.087457  1.206781  -0.111  -0.531943  -0.068995  1.185844  -0.095  -0.289256  -0.483617  -0.09833  1.221685  -0.119
Cl  Cl105  1  0.38691689  0.63921494  0.08286929  1  -0.521154  -0.121981  0.9307  -0.147  -0.501676  -0.087456  1.206761  -0.111  -0.531909  -0.068992  1.185835  -0.095  -0.289259  -0.483625  -0.098327  1.221675  -0.119
