# generated using pymatgen
data_MnH14C11S2N11O
_symmetry_space_group_name_H-M   'P 1'
_cell_length_a   7.88027054
_cell_length_b   8.30899149
_cell_length_c   14.74769771
_cell_angle_alpha   85.61437894
_cell_angle_beta   76.29568686
_cell_angle_gamma   78.43946172
_symmetry_Int_Tables_number   1
_chemical_formula_structural   MnH14C11S2N11O
_chemical_formula_sum   'Mn2 H28 C22 S4 N22 O2'
_cell_volume   918.68793187
_cell_formula_units_Z   2
loop_
 _symmetry_equiv_pos_site_id
 _symmetry_equiv_pos_as_xyz
  1  'x, y, z'
loop_
 _atom_site_type_symbol
 _atom_site_label
 _atom_site_symmetry_multiplicity
 _atom_site_fract_x
 _atom_site_fract_y
 _atom_site_fract_z
 _atom_site_occupancy
 _atom_site_hle17_ddec_charge
 _atom_site_hle17_ddec_spin_density
 _atom_site_hle17_ddec_sum_bond_order
 _atom_site_hle17_magmom
 _atom_site_hse06_10hf_ddec_charge
 _atom_site_hse06_10hf_ddec_spin_density
 _atom_site_hse06_10hf_ddec_sum_bond_order
 _atom_site_hse06_10hf_magmom
 _atom_site_hse06_ddec_charge
 _atom_site_hse06_ddec_spin_density
 _atom_site_hse06_ddec_sum_bond_order
 _atom_site_hse06_magmom
 _atom_site_pbe_cm5_charge
 _atom_site_pbe_ddec_charge
 _atom_site_pbe_ddec_spin_density
 _atom_site_pbe_ddec_sum_bond_order
 _atom_site_pbe_magmom
Mn  Mn0  1  0.49999554  0.50000215  0.50000157  1  1.144357  -4.791131  1.883267  -4.669  0.991202  -4.710024  2.383131  -4.517  1.042391  -4.755189  2.317719  -4.582  0.613629  0.950417  -4.664917  2.432653  -4.455
Mn  Mn1  1  0.99999883  0.49999877  0.99999881  1  0.984198  -4.757559  2.13545  -4.636  0.816691  -4.664297  2.65489  -4.472  0.866496  -4.719079  2.59674  -4.546  0.641503  0.777956  -4.609107  2.698077  -4.399
H  H2  1  0.23051407  0.67993988  0.41514060  1  0.383817  -0.00016  0.936087  -0.001  0.343862  -0.000897  1.016609  -0.002  0.354652  -0.000583  1.001124  -0.002  0.280266  0.336216  -0.001198  1.027548  -0.002
H  H3  1  0.76948425  0.32006073  0.58485907  1  0.383829  -0.00016  0.93607  -0.001  0.343877  -0.000897  1.01659  -0.002  0.354667  -0.000583  1.001104  -0.002  0.280264  0.336233  -0.001198  1.027524  -0.002
H  H4  1  0.42018265  0.67580402  0.34279247  1  0.385238  -9e-06  0.937823  -0.001  0.343943  -0.00076  1.020139  -0.001  0.355025  -0.000466  1.004237  -0.001  0.279676  0.336038  -0.001041  1.031465  -0.002
H  H5  1  0.57981747  0.32419411  0.65720774  1  0.385219  -9e-06  0.937844  -0.001  0.343924  -0.00076  1.020161  -0.001  0.355004  -0.000466  1.004261  -0.001  0.279676  0.336016  -0.001041  1.03149  -0.002
H  H6  1  0.06959773  0.48542774  0.62129288  1  0.089356  0.000276  0.966769  0.0  0.09142  5.3e-05  1.043145  0.0  0.093561  0.000145  1.04106  0.0  0.122586  0.089782  -5.3e-05  1.0447  0.0
H  H7  1  0.93039929  0.51457288  0.37870763  1  0.089394  0.000277  0.966763  0.0  0.091451  5.3e-05  1.04314  0.0  0.093597  0.000145  1.041052  0.0  0.122601  0.089809  -5.3e-05  1.044704  0.0
H  H8  1  0.39758009  0.13609367  0.43173077  1  0.105404  0.000282  0.940794  0.0  0.11307  2.3e-05  1.008136  0.0  0.115529  8.6e-05  1.004921  0.0  0.139482  0.111205  -5.5e-05  1.010488  0.0
H  H9  1  0.60241538  0.86390818  0.56826920  1  0.105416  0.000281  0.940745  0.0  0.113093  2.3e-05  1.008082  0.0  0.115553  8.6e-05  1.004865  0.0  0.139482  0.111226  -5.5e-05  1.010436  0.0
H  H10  1  0.17379426  0.96440294  0.42453592  1  0.096954  0.000102  0.927983  0.0  0.113235  -9.1e-05  0.988856  0.0  0.114734  1.9e-05  0.987315  0.0  0.121037  0.111939  -0.000215  0.990245  0.0
H  H11  1  0.82620299  0.03559645  0.57546460  1  0.096962  0.000101  0.928008  0.0  0.113248  -9.1e-05  0.988869  0.0  0.114748  1.8e-05  0.987329  0.0  0.121048  0.11195  -0.000215  0.99025  0.0
H  H12  1  0.97731368  0.10706041  0.41177020  1  0.090178  4.1e-05  0.944689  0.0  0.099093  -5.2e-05  1.017849  0.0  0.099329  -8e-06  1.018617  0.0  0.110586  0.098797  -0.000103  1.017381  0.0
H  H13  1  0.02268382  0.89293776  0.58822899  1  0.090202  3.9e-05  0.944685  0.0  0.099114  -5.2e-05  1.017853  0.0  0.099351  -9e-06  1.018623  0.0  0.110606  0.098817  -0.000103  1.017379  0.0
H  H14  1  0.20082311  0.83812826  0.91001843  1  0.092627  0.000154  0.941273  0.0  0.095852  -0.00014  1.014507  0.0  0.098325  -4.1e-05  1.011863  0.0  0.128035  0.093944  -0.000251  1.016577  0.0
H  H15  1  0.79917831  0.16186986  0.08998229  1  0.0926  0.000159  0.94132  0.0  0.095826  -0.00014  1.014554  0.0  0.098298  -4.1e-05  1.011909  0.0  0.128028  0.093917  -0.000251  1.01663  0.0
H  H16  1  0.06476098  0.67263426  0.19003208  1  0.106758  0.000258  0.943419  0.0  0.114368  6e-06  1.010768  0.0  0.1167  6e-05  1.007415  0.0  0.139741  0.112529  -5.7e-05  1.012932  0.0
H  H17  1  0.93524045  0.32736386  0.80996864  1  0.106719  0.000262  0.943474  0.0  0.114356  6e-06  1.0108  0.0  0.116697  6e-05  1.007431  0.0  0.139746  0.112519  -5.7e-05  1.012958  0.0
H  H18  1  0.70239896  0.44047254  0.21695558  1  0.099113  0.000445  0.959124  0.0  0.106109  0.000189  1.024665  0.0  0.10715  0.000273  1.023823  0.0  0.134631  0.105209  9.2e-05  1.025435  0.0
H  H19  1  0.29760353  0.55952682  0.78304360  1  0.099059  0.000442  0.959079  0.0  0.106089  0.000188  1.024602  0.0  0.10713  0.000272  1.02376  0.0  0.134598  0.105182  9.2e-05  1.025372  0.0
H  H20  1  0.68770523  0.83894152  0.02230448  1  0.10598  0.000317  0.987887  0.0  0.103601  -5e-06  1.072029  0.0  0.107454  8.2e-05  1.067003  0.0  0.135892  0.100543  -9.7e-05  1.075903  0.0
H  H21  1  0.31229488  0.16105662  0.97769505  1  0.105947  0.000315  0.987935  0.0  0.103617  -5e-06  1.07203  0.0  0.107473  8.2e-05  1.066995  0.0  0.135895  0.100559  -9.7e-05  1.075905  0.0
H  H22  1  0.19326025  0.86446265  0.26280299  1  0.090495  -5.3e-05  0.925129  0.0  0.10346  -0.000256  0.993733  0.0  0.104737  -0.000167  0.991867  0.0  0.118888  0.102442  -0.000356  0.994723  0.0
H  H23  1  0.80674224  0.13553669  0.73719755  1  0.090494  -4.5e-05  0.925115  0.0  0.103485  -0.000257  0.9937  0.0  0.104751  -0.000167  0.991829  0.0  0.118905  0.102463  -0.000356  0.994691  0.0
H  H24  1  0.14203984  0.06536644  0.21338835  1  0.093781  -0.000108  0.963881  0.0  0.103775  -0.000305  1.035763  0.0  0.103736  -0.000196  1.036227  0.0  0.109717  0.103725  -0.000424  1.034961  0.0
H  H25  1  0.85796134  0.93463291  0.78661168  1  0.093771  -0.000107  0.963872  0.0  0.103784  -0.000305  1.035737  0.0  0.103732  -0.000196  1.036198  0.0  0.109729  0.103733  -0.000424  1.034934  0.0
H  H26  1  0.45514257  0.04368344  0.12171653  1  0.098197  5.7e-05  0.916369  0.0  0.113171  1.2e-05  0.97922  0.0  0.11365  2.2e-05  0.979068  0.0  0.122911  0.112574  -3e-06  0.979456  0.0
H  H27  1  0.54485861  0.95631593  0.87828282  1  0.098181  4.6e-05  0.916311  0.0  0.113153  1.2e-05  0.979181  0.0  0.11363  2.3e-05  0.979029  0.0  0.1229  0.112555  -3e-06  0.97942  0.0
H  H28  1  0.44757283  0.01570660  0.24272506  1  0.08477  -0.000273  0.968606  0.0  0.092399  -0.000594  1.046507  0.0  0.093449  -0.000445  1.046048  0.0  0.101783  0.09136  -0.000761  1.047027  0.0
H  H29  1  0.55242966  0.98429275  0.75727480  1  0.084762  -0.000277  0.968599  0.0  0.092413  -0.000594  1.046491  0.0  0.093461  -0.000445  1.046032  0.0  0.101784  0.091374  -0.000761  1.047011  0.0
C  C30  1  0.11716886  0.38138459  0.57558173  1  0.210999  -0.001256  3.706539  -0.002  0.15274  -0.002763  3.99814  -0.003  0.165014  -0.002108  4.010754  -0.003  0.150625  0.144739  -0.003444  3.989329  -0.004
C  C31  1  0.88282815  0.61861603  0.42441810  1  0.210839  -0.001262  3.706577  -0.002  0.152582  -0.002764  3.998183  -0.003  0.164851  -0.002109  4.010791  -0.003  0.150577  0.144592  -0.003444  3.989369  -0.004
C  C32  1  0.28590129  0.20644605  0.47977990  1  0.18814  -0.002233  3.635866  -0.003  0.111005  -0.004109  3.903895  -0.004  0.1257  -0.003192  3.915168  -0.003  0.172283  0.101467  -0.005117  3.895927  -0.005
C  C33  1  0.71409858  0.79355333  0.52021894  1  0.188036  -0.002232  3.636013  -0.003  0.110881  -0.004108  3.904027  -0.004  0.125576  -0.003192  3.915298  -0.003  0.172245  0.101354  -0.005115  3.896051  -0.005
C  C34  1  0.05578999  0.04768531  0.46179761  1  -0.025527  -0.000494  3.59651  0.0  -0.101734  -0.000893  3.854988  -0.001  -0.09797  -0.000647  3.864523  -0.001  -0.041314  -0.103936  -0.001169  3.848371  -0.001
C  C35  1  0.94420833  0.95231530  0.53820205  1  -0.025609  -0.000485  3.596621  0.0  -0.101835  -0.000893  3.8551  -0.001  -0.098077  -0.000645  3.864641  -0.001  -0.041373  -0.104033  -0.001169  3.84848  -0.001
C  C36  1  0.30371793  0.77543084  0.65418317  1  0.284664  -0.019885  4.064964  -0.021  0.272375  -0.025289  4.362611  -0.026  0.294699  -0.022759  4.376448  -0.024  0.136615  0.256767  -0.028198  4.352687  -0.028
C  C37  1  0.69627727  0.22459913  0.34582523  1  0.284922  -0.019808  4.065555  -0.021  0.272631  -0.02525  4.363161  -0.026  0.294948  -0.022719  4.376988  -0.024  0.136681  0.25702  -0.028154  4.353252  -0.028
C  C38  1  0.18474920  0.82666070  0.98544340  1  0.209968  -0.001505  3.688905  -0.002  0.158963  -0.003072  3.97547  -0.004  0.171498  -0.0024  3.98525  -0.003  0.153613  0.151172  -0.003746  3.96683  -0.004
C  C39  1  0.81525247  0.17333618  0.01455801  1  0.20999  -0.001527  3.688888  -0.002  0.158977  -0.003073  3.975451  -0.004  0.171511  -0.002403  3.985229  -0.003  0.153593  0.151181  -0.003747  3.96682  -0.004
C  C40  1  0.11161277  0.74081520  0.12639004  1  0.174345  -0.00198  3.637199  -0.003  0.09848  -0.004045  3.897023  -0.004  0.120796  -0.003212  3.912699  -0.003  0.168348  0.089089  -0.00489  3.888928  -0.005
C  C41  1  0.88838866  0.25918291  0.87361136  1  0.174392  -0.002013  3.637252  -0.003  0.098499  -0.004045  3.897083  -0.004  0.120811  -0.003213  3.912737  -0.003  0.168337  0.0891  -0.004891  3.888986  -0.005
C  C42  1  0.66623759  0.55921909  0.18375141  1  0.217179  -0.002786  3.684829  -0.004  0.160124  -0.004428  3.967652  -0.005  0.172306  -0.003554  3.980806  -0.004  0.157547  0.151978  -0.005364  3.958416  -0.006
C  C43  1  0.33376359  0.44078026  0.81624861  1  0.217259  -0.002773  3.684746  -0.004  0.160179  -0.004428  3.967561  -0.005  0.172357  -0.003556  3.980713  -0.004  0.15759  0.152041  -0.005364  3.958316  -0.006
C  C44  1  0.65969331  0.75796213  0.08328952  1  0.178759  -0.00369  3.62096  -0.004  0.101107  -0.005948  3.887523  -0.006  0.117582  -0.004845  3.897623  -0.005  0.166907  0.091568  -0.007163  3.880571  -0.006
C  C45  1  0.34030632  0.24203846  0.91671066  1  0.178871  -0.003672  3.620986  -0.004  0.10113  -0.005949  3.887537  -0.006  0.117621  -0.004844  3.897634  -0.005  0.166894  0.091588  -0.007164  3.880588  -0.006
C  C46  1  0.22827173  0.94431972  0.20124812  1  -0.036656  -0.000529  3.635784  0.0  -0.114984  -0.001021  3.899343  -0.001  -0.104036  -0.000778  3.912336  -0.001  -0.046808  -0.117176  -0.001294  3.892458  -0.001
C  C47  1  0.77172969  0.05567840  0.79875260  1  -0.036624  -0.000546  3.635718  0.0  -0.114996  -0.00102  3.899318  -0.001  -0.103992  -0.00078  3.912237  -0.001  -0.046808  -0.117187  -0.001294  3.892435  -0.001
C  C48  1  0.42196580  0.96216435  0.18262610  1  -0.038409  -0.000579  3.652143  0.0  -0.118644  -0.00102  3.917565  -0.001  -0.113163  -0.00077  3.92551  -0.001  -0.047734  -0.120653  -0.001302  3.910953  -0.001
C  C49  1  0.57803645  0.03783622  0.81737442  1  -0.038372  -0.000564  3.652125  0.0  -0.118675  -0.001021  3.917587  -0.001  -0.113194  -0.000773  3.925519  -0.001  -0.047754  -0.12069  -0.001303  3.910983  -0.001
C  C50  1  0.14634288  0.35881087  0.17943581  1  0.273546  -0.024124  4.07118  -0.025  0.263715  -0.030198  4.363362  -0.03  0.286484  -0.02716  4.377201  -0.028  0.131774  0.247795  -0.03359  4.353425  -0.033
C  C51  1  0.85365461  0.64118731  0.82056270  1  0.273476  -0.024161  4.07119  -0.025  0.263642  -0.030202  4.363383  -0.03  0.286409  -0.027171  4.377227  -0.028  0.131734  0.247726  -0.033596  4.353442  -0.033
S  S52  1  0.25010069  0.94732697  0.70832770  1  -0.374882  -0.012892  1.985165  -0.01  -0.363531  -0.018109  2.273128  -0.013  -0.377655  -0.014384  2.269286  -0.01  -0.183583  -0.353096  -0.022341  2.275542  -0.015
S  S53  1  0.74990322  0.05267847  0.29167446  1  -0.375212  -0.012864  1.984371  -0.01  -0.363849  -0.018076  2.27231  -0.013  -0.377978  -0.014355  2.268459  -0.01  -0.183728  -0.353411  -0.022304  2.274732  -0.015
S  S54  1  0.24136523  0.36585539  0.26471811  1  -0.367884  -0.014968  2.011056  -0.012  -0.352211  -0.021175  2.296226  -0.015  -0.367989  -0.016669  2.293372  -0.012  -0.175013  -0.340389  -0.026285  2.297856  -0.018
S  S55  1  0.75863536  0.63414032  0.73528010  1  -0.367879  -0.014969  2.011125  -0.012  -0.352212  -0.02118  2.296311  -0.015  -0.367991  -0.016673  2.293458  -0.012  -0.175008  -0.34039  -0.02629  2.297937  -0.018
N  N56  1  0.12107969  0.17198802  0.50141025  1  0.041386  -0.000679  3.562795  -0.001  0.157116  -0.00178  3.751151  -0.002  0.145534  -0.001313  3.777299  -0.001  -0.133621  0.164036  -0.00225  3.734585  -0.002
N  N57  1  0.87891602  0.82801261  0.49858974  1  0.041469  -0.000685  3.562839  -0.001  0.157247  -0.00178  3.751126  -0.002  0.145667  -0.001312  3.777275  -0.001  -0.13356  0.164151  -0.00225  3.734583  -0.002
N  N58  1  0.01106379  0.28342694  0.56266165  1  -0.294097  -5.9e-05  2.949716  0.0  -0.268371  -0.001017  3.207555  -0.001  -0.27973  -0.000494  3.221814  -0.001  -0.213067  -0.260725  -0.001512  3.19822  -0.001
N  N59  1  0.98893299  0.71657490  0.43733884  1  -0.294027  -5.1e-05  2.949689  0.0  -0.268306  -0.001016  3.207508  -0.001  -0.279664  -0.000493  3.221769  -0.001  -0.21304  -0.260662  -0.001512  3.198175  -0.001
N  N60  1  0.28762251  0.33909581  0.52525731  1  -0.395378  -0.025883  3.148721  -0.014  -0.330692  -0.032224  3.444396  -0.016  -0.35263  -0.029226  3.455998  -0.014  -0.322575  -0.314932  -0.034987  3.435852  -0.018
N  N61  1  0.71237427  0.66090604  0.47474318  1  -0.395277  -0.025879  3.148766  -0.014  -0.330601  -0.03222  3.444437  -0.016  -0.352539  -0.029224  3.456043  -0.014  -0.322565  -0.314846  -0.034982  3.435894  -0.018
N  N62  1  0.34418824  0.64938062  0.61404496  1  -0.571008  -0.013394  2.866042  0.003  -0.51437  -0.018778  3.147167  0.004  -0.536304  -0.013425  3.149127  0.007  -0.395809  -0.498351  -0.023695  3.145966  0.0
N  N63  1  0.65581888  0.35061506  0.38595039  1  -0.570948  -0.013479  2.86733  0.003  -0.514311  -0.018812  3.148427  0.004  -0.536232  -0.013472  3.150381  0.007  -0.395744  -0.498297  -0.023725  3.147229  0.0
N  N64  1  0.19187828  0.86975227  0.12352642  1  0.045634  -0.000626  3.575632  -0.001  0.163177  -0.00163  3.766267  -0.002  0.12785  -0.001219  3.824886  -0.001  -0.134757  0.170052  -0.002046  3.749579  -0.002
N  N65  1  0.80812445  0.13024584  0.87647414  1  0.045642  -0.000613  3.575422  -0.001  0.163187  -0.001632  3.76608  -0.002  0.127853  -0.00122  3.82467  -0.001  -0.134761  0.170065  -0.002046  3.749389  -0.002
N  N66  1  0.24059814  0.92619169  0.03379198  1  -0.285158  -0.000225  2.887608  0.0  -0.277151  -0.001053  3.154898  -0.001  -0.279725  -0.000542  3.175226  -0.001  -0.218967  -0.270296  -0.001538  3.145066  -0.001
N  N67  1  0.75940329  0.07380642  0.96620942  1  -0.285148  -0.000199  2.887482  0.0  -0.277139  -0.001053  3.154775  -0.001  -0.279708  -0.00054  3.175095  -0.001  -0.218962  -0.270283  -0.001538  3.144947  -0.001
N  N68  1  0.10480580  0.71027784  0.03984619  1  -0.388552  -0.028568  3.197287  -0.016  -0.322677  -0.034492  3.490359  -0.018  -0.34434  -0.031311  3.500697  -0.015  -0.330821  -0.30684  -0.037363  3.480718  -0.02
N  N69  1  0.89519693  0.28972026  0.96015437  1  -0.388582  -0.028556  3.197357  -0.016  -0.322687  -0.034493  3.490428  -0.018  -0.344356  -0.031311  3.500767  -0.015  -0.330796  -0.306843  -0.037366  3.480783  -0.02
N  N70  1  0.54211554  0.80524228  0.16300018  1  0.044747  -0.000623  3.560522  -0.001  0.161838  -0.001861  3.747035  -0.002  0.147248  -0.00132  3.775524  -0.001  -0.135328  0.168566  -0.002387  3.730508  -0.002
N  N71  1  0.45788695  0.19475706  0.83700036  1  0.044567  -0.000623  3.560663  -0.001  0.161777  -0.001861  3.747063  -0.002  0.147147  -0.001321  3.775589  -0.001  -0.135322  0.168505  -0.002387  3.730542  -0.002
N  N72  1  0.54396784  0.67931861  0.22780389  1  -0.278661  -0.000124  2.957165  0.0  -0.252611  -0.001677  3.209882  -0.002  -0.262366  -0.00089  3.224134  -0.001  -0.208613  -0.245061  -0.002402  3.200869  -0.002
N  N73  1  0.45603441  0.32068196  0.77219595  1  -0.278605  -0.000136  2.957223  0.0  -0.25259  -0.001677  3.209919  -0.002  -0.26233  -0.00089  3.224176  -0.001  -0.208614  -0.245037  -0.002401  3.200901  -0.002
N  N74  1  0.74114805  0.60280574  0.09447173  1  -0.39337  -0.027737  3.191497  -0.014  -0.326719  -0.033619  3.486068  -0.016  -0.349068  -0.030303  3.497477  -0.013  -0.334962  -0.310908  -0.036658  3.477478  -0.018
N  N75  1  0.25885313  0.39719361  0.90552830  1  -0.393379  -0.027747  3.191466  -0.014  -0.326739  -0.033619  3.48608  -0.016  -0.349088  -0.030302  3.497484  -0.013  -0.334951  -0.31093  -0.036656  3.477491  -0.018
N  N76  1  0.07691581  0.35525415  0.11606811  1  -0.569293  -0.011825  2.880759  0.004  -0.520222  -0.019208  3.168989  0.003  -0.541207  -0.012834  3.171582  0.007  -0.40589  -0.504857  -0.025158  3.167297  -0.002
N  N77  1  0.92308168  0.64474401  0.88393175  1  -0.569218  -0.011781  2.880726  0.004  -0.520145  -0.019205  3.168962  0.003  -0.541131  -0.012822  3.171556  0.007  -0.405855  -0.504783  -0.025151  3.167275  -0.002
O  O78  1  0.35862446  0.67882326  0.41036153  1  -0.837424  -0.030335  1.978577  -0.019  -0.778025  -0.040626  2.200288  -0.026  -0.801005  -0.036299  2.165341  -0.022  -0.581635  -0.76048  -0.044588  2.224548  -0.029
O  O79  1  0.64137101  0.32117860  0.58963844  1  -0.837428  -0.030336  1.978574  -0.019  -0.778026  -0.040627  2.200261  -0.026  -0.801005  -0.036299  2.165315  -0.022  -0.581649  -0.760486  -0.04459  2.224527  -0.029
