# generated using pymatgen
data_Ag3PH17AuC31(O3F7)2
_symmetry_space_group_name_H-M   'P 1'
_cell_length_a   9.57971386
_cell_length_b   13.40914905
_cell_length_c   15.68121547
_cell_angle_alpha   106.56175584
_cell_angle_beta   95.61286879
_cell_angle_gamma   96.14574040
_symmetry_Int_Tables_number   1
_chemical_formula_structural   Ag3PH17AuC31(O3F7)2
_chemical_formula_sum   'Ag6 P2 H34 Au2 C62 O12 F28'
_cell_volume   1902.19536667
_cell_formula_units_Z   2
loop_
 _symmetry_equiv_pos_site_id
 _symmetry_equiv_pos_as_xyz
  1  'x, y, z'
loop_
 _atom_site_type_symbol
 _atom_site_label
 _atom_site_symmetry_multiplicity
 _atom_site_fract_x
 _atom_site_fract_y
 _atom_site_fract_z
 _atom_site_occupancy
 _atom_site_pbe_bader_charge
 _atom_site_pbe_bader_spin_density
 _atom_site_pbe_cm5_charge
 _atom_site_pbe_ddec_charge
 _atom_site_pbe_ddec_spin_density
 _atom_site_pbe_ddec_sum_bond_order
 _atom_site_pbe_magmom
Ag  Ag0  1  0.60973517  0.02064885  0.40579684  1  0.621627  0  0.380311  0.448817  0  1.943387  0
Ag  Ag1  1  0.39026190  0.97935752  0.59420215  1  0.621474  0  0.380305  0.448758  0  1.943372  0
Ag  Ag2  1  0.89508264  0.99137513  0.39516750  1  0.63167  0  0.37355  0.461829  0  1.868905  0
Ag  Ag3  1  0.10491402  0.00862349  0.60483667  1  0.631825  0  0.373535  0.461819  0  1.868926  0
Ag  Ag4  1  0.91389229  0.39858773  0.46540491  1  0.566263  0  0.383499  0.410809  0  1.948261  0
Ag  Ag5  1  0.08610213  0.60141559  0.53459896  1  0.566436  0  0.383511  0.410846  0  1.948044  0
P  P6  1  0.79281584  0.21557662  0.18008712  1  2.227454  0  0.163408  0.708089  0  4.423719  0
P  P7  1  0.20718300  0.78442268  0.81991095  1  2.227647  0  0.163411  0.708113  0  4.423892  0
H  H8  1  0.99600943  0.19493943  0.26600792  1  0.131138  0  0.088189  0.175284  0  1.045443  0
H  H9  1  0.00399101  0.80505745  0.73398649  1  0.131185  0  0.088197  0.175304  0  1.04552  0
H  H10  1  0.88300897  0.07202843  0.21605869  1  0.103356  0  0.089051  0.164489  0  1.032417  0
H  H11  1  0.11698849  0.92796926  0.78393638  1  0.103435  0  0.089073  0.164527  0  1.032351  0
H  H12  1  0.64179961  0.33395601  0.31955283  1  0.104184  0  0.095344  0.104213  0  1.037256  0
H  H13  1  0.35820090  0.66604098  0.68044799  1  0.104248  0  0.095352  0.104194  0  1.037295  0
H  H14  1  0.66494674  0.52398616  0.40124419  1  0.07975  0  0.104885  0.115612  0  0.98684  0
H  H15  1  0.33505197  0.47601238  0.59875561  1  0.079764  0  0.104889  0.115631  0  0.986814  0
H  H16  1  0.83383571  0.65275309  0.36084105  1  0.09151  0  0.103826  0.109033  0  1.000086  0
H  H17  1  0.16615968  0.34724464  0.63915646  1  0.091688  0  0.10384  0.10909  0  0.999995  0
H  H18  1  0.97662492  0.59035744  0.23700031  1  0.107078  0  0.098841  0.101086  0  1.024091  0
H  H19  1  0.02336778  0.40964265  0.76299696  1  0.107061  0  0.098827  0.101041  0  1.024133  0
H  H20  1  0.95740789  0.40041206  0.15649233  1  0.076021  0  0.104607  0.106167  0  1.005398  0
H  H21  1  0.04258691  0.59958803  0.84350570  1  0.076019  0  0.104589  0.106158  0  1.005332  0
H  H22  1  0.70829091  0.28464189  0.02420341  1  0.057159  0  0.103462  0.102429  0  1.009236  0
H  H23  1  0.29171244  0.71535898  0.97579592  1  0.057098  0  0.103398  0.10228  0  1.009328  0
H  H24  1  0.79821702  0.25929753  0.87813566  1  0.095694  0  0.097677  0.100516  0  1.029891  0
H  H25  1  0.20179107  0.74069545  0.12186083  1  0.096003  0  0.0977  0.100545  0  1.029914  0
H  H26  1  0.00323443  0.16048511  0.84496592  1  0.128336  0  0.097585  0.10761  0  1.030851  0
H  H27  1  0.99676920  0.83950089  0.15503442  1  0.128413  0  0.097595  0.107533  0  1.030823  0
H  H28  1  0.11446421  0.08634015  0.95799262  1  0.062539  0  0.098196  0.09425  0  1.021432  0
H  H29  1  0.88554083  0.91365299  0.04201330  1  0.062272  0  0.098174  0.094213  0  1.021484  0
H  H30  1  0.02704513  0.11310117  0.10605422  1  0.083086  0  0.102636  0.104125  0  1.021496  0
H  H31  1  0.97295782  0.88690292  0.89395031  1  0.083332  0  0.10263  0.104148  0  1.021462  0
H  H32  1  0.52725477  0.29600976  0.13852176  1  0.087977  0  0.103897  0.104727  0  0.999319  0
H  H33  1  0.47274092  0.70398953  0.86147549  1  0.088319  0  0.103865  0.104716  0  0.999258  0
H  H34  1  0.28340186  0.20452556  0.08306917  1  0.071692  0  0.097275  0.099261  0  1.02698  0
H  H35  1  0.71659402  0.79547459  0.91693212  1  0.071819  0  0.097277  0.099289  0  1.026996  0
H  H36  1  0.22722359  0.01241703  0.06496582  1  0.063471  0  0.09455  0.087535  0  1.048111  0
H  H37  1  0.77277124  0.98758311  0.93503541  1  0.063388  0  0.094574  0.087605  0  1.048002  0
H  H38  1  0.41649067  0.91383360  0.10256269  1  0.098262  0  0.096598  0.098108  0  1.035908  0
H  H39  1  0.58350607  0.08616570  0.89743526  1  0.097867  0  0.096605  0.098125  0  1.035903  0
H  H40  1  0.66184370  0.00418979  0.15643733  1  0.080312  0  0.098266  0.096978  0  1.025623  0
H  H41  1  0.33815304  0.99580949  0.84355934  1  0.080254  0  0.098244  0.096953  0  1.025698  0
Au  Au42  1  0.80316629  0.18031424  0.37287365  1  0.098462  0  0.249787  0.030699  0  3.127825  0
Au  Au43  1  0.19683597  0.81968658  0.62712178  1  0.098457  0  0.249753  0.030712  0  3.127762  0
C  C44  1  0.73846750  0.21286541  0.49859123  1  -0.001688  0  -0.200795  -0.388456  0  4.248295  0
C  C45  1  0.26154064  0.78713857  0.50140719  1  -0.002133  0  -0.200763  -0.388483  0  4.248264  0
C  C46  1  0.83254283  0.21512753  0.57344419  1  0.456261  0  0.063622  0.188853  0  4.150952  0
C  C47  1  0.16746284  0.78487478  0.42654732  1  0.456723  0  0.06354  0.188886  0  4.150917  0
C  C48  1  0.79939269  0.24494016  0.66049288  1  0.562583  0  0.072848  0.063449  0  4.09067  0
C  C49  1  0.20061093  0.75506223  0.33950364  1  0.562545  0  0.072862  0.063409  0  4.090854  0
C  C50  1  0.66787329  0.27688024  0.67600664  1  0.623105  0  0.089464  0.119278  0  4.114101  0
C  C51  1  0.33213289  0.72311904  0.32399185  1  0.623182  0  0.089543  0.119272  0  4.114234  0
C  C52  1  0.57051009  0.27618773  0.60374219  1  0.596334  0  0.077848  0.080856  0  4.087927  0
C  C53  1  0.42949517  0.72381230  0.39625387  1  0.596167  0  0.077805  0.08092  0  4.087593  0
C  C54  1  0.60799274  0.24577416  0.51744489  1  0.486663  0  0.068395  0.203873  0  4.127339  0
C  C55  1  0.39200989  0.75423380  0.48255670  1  0.48681  0  0.068384  0.203867  0  4.127245  0
C  C56  1  0.88568051  0.15609758  0.25076576  1  -0.814639  0  -0.308767  -0.624365  0  3.967166  0
C  C57  1  0.11431634  0.84389698  0.74922918  1  -0.814903  0  -0.308766  -0.624353  0  3.967088  0
C  C58  1  0.80024255  0.35455070  0.23357967  1  -0.606518  0  -0.026277  -0.112593  0  3.973631  0
C  C59  1  0.19975647  0.64544942  0.76642052  1  -0.606656  0  -0.026303  -0.112663  0  3.973788  0
C  C60  1  0.71798175  0.38963409  0.30288240  1  -0.107533  0  -0.094235  -0.106652  0  4.021244  0
C  C61  1  0.28201801  0.61036445  0.69711746  1  -0.107571  0  -0.09425  -0.106626  0  4.021456  0
C  C62  1  0.73086830  0.49687974  0.34882173  1  0.032547  0  -0.091682  -0.084864  0  3.996578  0
C  C63  1  0.26912995  0.50312192  0.65117686  1  0.032343  0  -0.091727  -0.084917  0  3.996634  0
C  C64  1  0.82491747  0.56908820  0.32562571  1  -0.037329  0  -0.078606  -0.060321  0  3.964434  0
C  C65  1  0.17507839  0.43091192  0.67437366  1  -0.037382  0  -0.078615  -0.060442  0  3.96434  0
C  C66  1  0.90546096  0.53411112  0.25624834  1  -0.040314  0  -0.087457  -0.067317  0  3.964532  0
C  C67  1  0.09453158  0.46588818  0.74374873  1  -0.040268  0  -0.08735  -0.067098  0  3.964446  0
C  C68  1  0.89380252  0.42715342  0.21034647  1  -0.020351  0  -0.08046  -0.07459  0  3.964089  0
C  C69  1  0.10619558  0.57284745  0.78965193  1  -0.02023  0  -0.080486  -0.074647  0  3.964059  0
C  C70  1  0.86265414  0.20095783  0.07488750  1  -0.569735  0  -0.028077  -0.133773  0  4.004013  0
C  C71  1  0.13735175  0.79903991  0.92511188  1  -0.569703  0  -0.02808  -0.134045  0  4.004117  0
C  C72  1  0.79836916  0.24201807  0.01040582  1  -0.025652  0  -0.079282  -0.080188  0  3.976312  0
C  C73  1  0.20163895  0.75798040  0.98959131  1  -0.025446  0  -0.07919  -0.07981  0  3.97618  0
C  C74  1  0.84879141  0.22759769  0.92798383  1  -0.045803  0  -0.084833  -0.071035  0  3.957946  0
C  C75  1  0.15121356  0.77239533  0.07201504  1  -0.046131  0  -0.084926  -0.071278  0  3.958098  0
C  C76  1  0.96276749  0.17156066  0.90907739  1  -0.019921  0  -0.080269  -0.0558  0  3.94314  0
C  C77  1  0.03723929  0.82843082  0.09092314  1  -0.020447  0  -0.080212  -0.055522  0  3.943035  0
C  C78  1  0.02579389  0.13003046  0.97290524  1  -0.07501  0  -0.091959  -0.083993  0  3.99443  0
C  C79  1  0.97420501  0.86996346  0.02709987  1  -0.074208  0  -0.091886  -0.083947  0  3.994338  0
C  C80  1  0.97691070  0.14490076  0.05601155  1  -0.034245  0  -0.08446  -0.090625  0  3.992231  0
C  C81  1  0.02309092  0.85510178  0.94399382  1  -0.034694  0  -0.084496  -0.09063  0  3.992059  0
C  C82  1  0.61067638  0.15566055  0.15031880  1  -0.676104  0  -0.027124  -0.12648  0  4.00427  0
C  C83  1  0.38932034  0.84433872  0.84967660  1  -0.676129  0  -0.027169  -0.126444  0  4.004259  0
C  C84  1  0.50380051  0.21202873  0.12970570  1  0.007001  0  -0.082352  -0.080278  0  3.982967  0
C  C85  1  0.49619532  0.78797134  0.87029047  1  0.006968  0  -0.082349  -0.080343  0  3.983014  0
C  C86  1  0.36607012  0.16030208  0.09873555  1  -0.022377  0  -0.09282  -0.081689  0  3.99713  0
C  C87  1  0.63392769  0.83969724  0.90126375  1  -0.022818  0  -0.092769  -0.081624  0  3.997193  0
C  C88  1  0.33492431  0.05311127  0.08846867  1  -0.031762  0  -0.086173  -0.068261  0  3.969842  0
C  C89  1  0.66507034  0.94688804  0.91152917  1  -0.031862  0  -0.086293  -0.068452  0  3.969832  0
C  C90  1  0.44121094  0.99700518  0.10933326  1  -0.051037  0  -0.085911  -0.058587  0  3.963116  0
C  C91  1  0.55878491  0.00299491  0.89066419  1  -0.05024  0  -0.085835  -0.058543  0  3.963069  0
C  C92  1  0.57897271  0.04792757  0.14002906  1  0.008202  0  -0.081711  -0.071422  0  3.963429  0
C  C93  1  0.42102386  0.95207091  0.85996614  1  0.008083  0  -0.081689  -0.0714  0  3.963464  0
C  C94  1  0.74744694  0.95911444  0.57305206  1  1.666698  0  0.201589  0.436117  0  4.260127  0
C  C95  1  0.25254833  0.04088255  0.42694782  1  1.666856  0  0.201622  0.436142  0  4.260092  0
C  C96  1  0.75754372  0.92707965  0.66116875  1  1.704905  0  0.296986  0.580153  0  4.02379  0
C  C97  1  0.24245349  0.07292203  0.33883042  1  1.704748  0  0.296926  0.580206  0  4.023854  0
C  C98  1  0.67492401  0.85011506  0.23819948  1  1.671194  0  0.192056  0.415366  0  4.315412  0
C  C99  1  0.32507893  0.14988900  0.76180313  1  1.671189  0  0.192144  0.415465  0  4.315212  0
C  C100  1  0.63391753  0.75776458  0.14899900  1  1.694696  0  0.296785  0.591535  0  4.002395  0
C  C101  1  0.36608214  0.24223874  0.85100580  1  1.694396  0  0.296773  0.591301  0  4.002801  0
C  C102  1  0.82163030  0.55969452  0.62153421  1  1.688515  0  0.198003  0.415328  0  4.292423  0
C  C103  1  0.17837452  0.44031903  0.37847456  1  1.687721  0  0.198015  0.415314  0  4.292045  0
C  C104  1  0.72184775  0.59519964  0.69371731  1  1.705578  0  0.300377  0.596393  0  4.01353  0
C  C105  1  0.27814728  0.40480135  0.30628796  1  1.705828  0  0.300376  0.59659  0  4.01344  0
O  O106  1  0.62681384  0.97069876  0.54115304  1  -1.124416  0  -0.306618  -0.459119  0  2.449199  0
O  O107  1  0.37319340  0.02930600  0.45884551  1  -1.124319  0  -0.306661  -0.459233  0  2.44899  0
O  O108  1  0.86302435  0.96827782  0.54134302  1  -1.123826  0  -0.317126  -0.488605  0  2.496756  0
O  O109  1  0.13697311  0.03171442  0.45865396  1  -1.124134  0  -0.317119  -0.488557  0  2.496963  0
O  O110  1  0.57339677  0.88399191  0.27717326  1  -1.110442  0  -0.313232  -0.473052  0  2.389159  0
O  O111  1  0.42660590  0.11601062  0.72283217  1  -1.110396  0  -0.313239  -0.473013  0  2.389098  0
O  O112  1  0.80713270  0.87729353  0.25916947  1  -1.116723  0  -0.318608  -0.483137  0  2.368517  0
O  O113  1  0.19286812  0.12271050  0.74083110  1  -1.116676  0  -0.318668  -0.48323  0  2.368529  0
O  O114  1  0.78858427  0.46613037  0.57213578  1  -1.115786  0  -0.312337  -0.460863  0  2.436772  0
O  O115  1  0.21139775  0.53388530  0.42785368  1  -1.115729  0  -0.312281  -0.460819  0  2.43659  0
O  O116  1  0.91940108  0.62997403  0.62084000  1  -1.107741  0  -0.307154  -0.447124  0  2.464842  0
O  O117  1  0.08062442  0.37002646  0.37918921  1  -1.107233  0  -0.307208  -0.447167  0  2.464567  0
F  F118  1  0.96594026  0.19010164  0.56328118  1  -0.636557  0  -0.097021  -0.125057  0  1.44561  0
F  F119  1  0.03406317  0.80989991  0.43671130  1  -0.636558  0  -0.097027  -0.12512  0  1.4456  0
F  F120  1  0.89414382  0.24611994  0.73121422  1  -0.627118  0  -0.072705  -0.086888  0  1.425853  0
F  F121  1  0.10587415  0.75388081  0.26878083  1  -0.627245  0  -0.072685  -0.086816  0  1.425932  0
F  F122  1  0.63884450  0.31206928  0.76059429  1  -0.607684  0  -0.076881  -0.087223  0  1.448367  0
F  F123  1  0.36116436  0.68792216  0.23940444  1  -0.607772  0  -0.076939  -0.087257  0  1.448367  0
F  F124  1  0.44334496  0.30790104  0.61859799  1  -0.61634  0  -0.082539  -0.090655  0  1.399988  0
F  F125  1  0.55666531  0.69209752  0.38140503  1  -0.616298  0  -0.082539  -0.090719  0  1.399843  0
F  F126  1  0.51207498  0.25235319  0.44985150  1  -0.627815  0  -0.104164  -0.126061  0  1.415182  0
F  F127  1  0.48793169  0.74765943  0.55014886  1  -0.627737  0  -0.10412  -0.126037  0  1.415333  0
F  F128  1  0.86085631  0.99314671  0.72489838  1  -0.629203  0  -0.099794  -0.19751  0  1.347531  0
F  F129  1  0.13913240  0.00685971  0.27510206  1  -0.629138  0  -0.099811  -0.197569  0  1.347498  0
F  F130  1  0.79185848  0.82814347  0.64479612  1  -0.60986  0  -0.095398  -0.184675  0  1.369298  0
F  F131  1  0.20814641  0.17185981  0.35520706  1  -0.609918  0  -0.095307  -0.184606  0  1.369445  0
F  F132  1  0.63530228  0.92921521  0.69790639  1  -0.622175  0  -0.093077  -0.187407  0  1.419515  0
F  F133  1  0.36469055  0.07078016  0.30208978  1  -0.62203  0  -0.093088  -0.187448  0  1.419524  0
F  F134  1  0.49611238  0.74748014  0.11285996  1  -0.62293  0  -0.098934  -0.200897  0  1.37307  0
F  F135  1  0.50388550  0.25252477  0.88714575  1  -0.623054  0  -0.098949  -0.200867  0  1.373227  0
F  F136  1  0.65627716  0.66493161  0.16354193  1  -0.609385  0  -0.110092  -0.203073  0  1.293451  0
F  F137  1  0.34372040  0.33507170  0.83646147  1  -0.608993  0  -0.110104  -0.203026  0  1.293471  0
F  F138  1  0.71379254  0.77118445  0.08456071  1  -0.628322  0  -0.102641  -0.20829  0  1.361203  0
F  F139  1  0.28620276  0.22881807  0.91544174  1  -0.628416  0  -0.102633  -0.208183  0  1.361372  0
F  F140  1  0.67652285  0.51707931  0.72817339  1  -0.618294  0  -0.105632  -0.202045  0  1.337886  0
F  F141  1  0.32347867  0.48291214  0.27182428  1  -0.618124  0  -0.105618  -0.202104  0  1.337845  0
F  F142  1  0.60496461  0.62498912  0.65607471  1  -0.611639  0  -0.097089  -0.189575  0  1.331442  0
F  F143  1  0.39502981  0.37500874  0.34393043  1  -0.61161  0  -0.097065  -0.189591  0  1.331377  0
F  F144  1  0.78570520  0.67815280  0.76410197  1  -0.625056  0  -0.099106  -0.200288  0  1.360211  0
F  F145  1  0.21428135  0.32184753  0.23590903  1  -0.625352  0  -0.099137  -0.200373  0  1.360256  0
