# generated using pymatgen
data_Zr3H10C50(NO)16
_symmetry_space_group_name_H-M   'P 1'
_cell_length_a   15.32662714
_cell_length_b   17.71942042
_cell_length_c   17.72844873
_cell_angle_alpha   91.84842937
_cell_angle_beta   89.97086162
_cell_angle_gamma   90.02009347
_symmetry_Int_Tables_number   1
_chemical_formula_structural   Zr3H10C50(NO)16
_chemical_formula_sum   'Zr6 H20 C100 N32 O32'
_cell_volume   4812.16729849
_cell_formula_units_Z   2
loop_
 _symmetry_equiv_pos_site_id
 _symmetry_equiv_pos_as_xyz
  1  'x, y, z'
loop_
 _atom_site_type_symbol
 _atom_site_label
 _atom_site_symmetry_multiplicity
 _atom_site_fract_x
 _atom_site_fract_y
 _atom_site_fract_z
 _atom_site_occupancy
 _atom_site_pbe_bader_charge
 _atom_site_pbe_bader_spin_density
 _atom_site_pbe_cm5_charge
 _atom_site_pbe_ddec_charge
 _atom_site_pbe_ddec_spin_density
 _atom_site_pbe_ddec_sum_bond_order
 _atom_site_pbe_magmom
Zr  Zr0  1  0.00485519  0.14186801  0.00156627  1  2.628987  0  1.585306  2.388745  0  2.743462  0
Zr  Zr1  1  0.00868596  0.99533007  0.85623573  1  2.62112  0  1.565227  2.381006  0  2.801281  0
Zr  Zr2  1  0.00748259  0.00447376  0.14410845  1  2.628839  0  1.586345  2.387631  0  2.740704  0
Zr  Zr3  1  0.00623762  0.85932956  0.00106431  1  2.632172  0  1.579571  2.39283  0  2.774109  0
Zr  Zr4  1  0.84375584  0.99994600  0.00058393  1  2.626283  0  1.603712  2.358894  0  2.750604  0
Zr  Zr5  1  0.16937118  0.00058087  0.00115214  1  2.628193  0  1.609784  2.354043  0  2.763132  0
H  H6  1  0.13095593  0.11536241  0.89039944  1  0.586898  0  0.328451  0.428929  0  0.851905  0
H  H7  1  0.88905792  0.88268777  0.87901489  1  0.623523  0  0.323486  0.426565  0  0.862917  0
H  H8  1  0.13070881  0.88465363  0.11247018  1  0.609383  0  0.327135  0.428217  0  0.854945  0
H  H9  1  0.88195217  0.11505114  0.11841112  1  0.613604  0  0.326786  0.42306  0  0.861552  0
H  H10  1  0.04331553  0.88282607  0.75420896  1  0.622903  0  0.2823  0.399615  0  0.92042  0
H  H11  1  0.06350296  0.75140487  0.88942296  1  0.646465  0  0.350332  0.446705  0  0.826017  0
H  H12  1  0.96937706  0.75469582  0.10302954  1  0.593041  0  0.31075  0.409437  0  0.880587  0
H  H13  1  0.00984988  0.84935858  0.16654663  1  0.656414  0  0.29031  0.411425  0  0.926471  0
H  H14  1  0.04531800  0.11691337  0.24767925  1  0.6147  0  0.288712  0.394306  0  0.930141  0
H  H15  1  0.00875636  0.17057827  0.15556552  1  0.649552  0  0.287921  0.407976  0  0.929863  0
H  H16  1  0.96367173  0.24397504  0.89788577  1  0.58767  0  0.310443  0.408168  0  0.882064  0
H  H17  1  0.00864897  0.15054834  0.83496844  1  0.649117  0  0.29009  0.410305  0  0.927116  0
H  H18  1  0.96163619  0.88271803  0.24105745  1  0.628544  0  0.310431  0.407234  0  0.906909  0
H  H19  1  0.96429368  0.24746611  0.12711433  1  0.631139  0  0.305546  0.400408  0  0.921216  0
H  H20  1  0.96459403  0.11673738  0.75869866  1  0.638568  0  0.313426  0.412621  0  0.897386  0
H  H21  1  0.95929015  0.74565422  0.87659437  1  0.654148  0  0.31641  0.416688  0  0.902148  0
H  H22  1  0.34373597  0.50077533  0.00660065  1  0.079762  0  0.116734  0.122455  0  0.990452  0
H  H23  1  0.66439806  0.49959059  0.00412294  1  0.079557  0  0.114028  0.116437  0  1.00263  0
H  H24  1  0.34653050  0.99869103  0.50177724  1  0.062606  0  0.116673  0.120955  0  0.994193  0
H  H25  1  0.66706376  0.99816139  0.50083337  1  0.107747  0  0.115787  0.119295  0  0.996094  0
C  C26  1  0.79365364  0.17738704  0.99781729  1  1.662758  0  0.238254  0.630266  0  4.155449  0
C  C27  1  0.22162040  0.99554697  0.82609205  1  1.624741  0  0.238775  0.628768  0  4.154452  0
C  C28  1  0.79280287  0.00187352  0.82659237  1  1.667303  0  0.237024  0.622473  0  4.160468  0
C  C29  1  0.21754690  0.17612205  0.01125183  1  1.64716  0  0.237149  0.626903  0  4.163742  0
C  C30  1  0.21796530  0.00487107  0.17866804  1  1.652762  0  0.241201  0.63444  0  4.143552  0
C  C31  1  0.79378232  0.82318284  0.00650168  1  1.644789  0  0.23667  0.62748  0  4.165545  0
C  C32  1  0.22096829  0.82539405  0.99017537  1  1.64024  0  0.237233  0.626582  0  4.172854  0
C  C33  1  0.79488557  0.99909266  0.17749742  1  1.629836  0  0.237414  0.628294  0  4.150557  0
C  C34  1  0.45772376  0.43094457  0.00613239  1  0.079917  0  0.010557  0.04812  0  3.950522  0
C  C35  1  0.54981473  0.43061335  0.00525642  1  -0.056819  0  0.008389  0.041681  0  3.952395  0
C  C36  1  0.59343947  0.49986889  0.00446140  1  0.045615  0  -0.065542  -0.130418  0  3.919803  0
C  C37  1  0.55052483  0.56939142  0.00385910  1  0.076013  0  0.007143  0.039605  0  3.954785  0
C  C38  1  0.45839984  0.56968719  0.00441693  1  -0.069608  0  0.009535  0.045961  0  3.955745  0
C  C39  1  0.41474138  0.50051871  0.00597914  1  0.036958  0  -0.06387  -0.130773  0  3.910117  0
C  C40  1  0.46098859  0.99703134  0.57073211  1  0.089765  0  0.010215  0.046062  0  3.949477  0
C  C41  1  0.55311159  0.99776019  0.57057960  1  -0.052446  0  0.009291  0.043342  0  3.948561  0
C  C42  1  0.59608180  0.99832285  0.50105069  1  0.008842  0  -0.065143  -0.131564  0  3.917539  0
C  C43  1  0.55265721  0.99935707  0.43177862  1  0.021706  0  0.008989  0.043354  0  3.948453  0
C  C44  1  0.46052737  0.00044562  0.43202169  1  0.04539  0  0.009954  0.045019  0  3.949801  0
C  C45  1  0.41751549  0.99867021  0.50151037  1  0.005342  0  -0.063793  -0.129823  0  3.911869  0
C  C46  1  0.28580347  0.00565860  0.24029227  1  0.051894  0  0.035022  -0.042351  0  3.840452  0
C  C47  1  0.35384474  0.95279579  0.24059185  1  0.162838  0  0.045467  0.047441  0  3.971412  0
C  C48  1  0.41049622  0.94941101  0.30395212  1  0.067418  0  0.036963  0.013618  0  3.989585  0
C  C49  1  0.40437549  0.00304025  0.36413784  1  0.05737  0  0.029472  0.024234  0  3.92418  0
C  C50  1  0.33827829  0.05859176  0.36120902  1  0.132686  0  0.041783  0.020587  0  3.984865  0
C  C51  1  0.27818726  0.05832914  0.30096559  1  0.130909  0  0.045783  0.047092  0  3.989428  0
C  C52  1  0.36712591  0.89976353  0.17938224  1  0.879877  0  0.194085  0.251978  0  3.973135  0
C  C53  1  0.32961573  0.11499088  0.42000580  1  0.837492  0  0.181765  0.218421  0  4.024549  0
C  C54  1  0.21016784  0.11326836  0.30174890  1  0.882422  0  0.202154  0.254488  0  3.977669  0
C  C55  1  0.47026044  0.88806930  0.30775356  1  0.83737  0  0.181873  0.212987  0  4.013727  0
C  C56  1  0.60893626  0.99906661  0.36371811  1  0.062597  0  0.031078  0.02374  0  3.917137  0
C  C57  1  0.67365643  0.94250661  0.35509896  1  0.146845  0  0.042373  0.024943  0  3.987086  0
C  C58  1  0.73308323  0.94335927  0.29444020  1  0.094804  0  0.042224  0.037473  0  3.998371  0
C  C59  1  0.72776279  0.99887554  0.23979336  1  0.075037  0  0.03588  -0.037462  0  3.845699  0
C  C60  1  0.66306845  0.05455308  0.24699757  1  0.15451  0  0.043367  0.041902  0  3.974915  0
C  C61  1  0.60501253  0.05559393  0.30966283  1  0.134507  0  0.039629  0.020165  0  3.985672  0
C  C62  1  0.68153353  0.88410594  0.40821427  1  0.838781  0  0.180829  0.216426  0  4.029299  0
C  C63  1  0.65789018  0.11323133  0.19390227  1  0.85068  0  0.196234  0.256265  0  3.972198  0
C  C64  1  0.54547280  0.11690767  0.31919085  1  0.840293  0  0.180828  0.208393  0  4.014048  0
C  C65  1  0.79874645  0.88652640  0.28841961  1  0.896875  0  0.207145  0.268069  0  3.97614  0
C  C66  1  0.28949471  0.99385390  0.76456377  1  0.082878  0  0.035114  -0.040105  0  3.84176  0
C  C67  1  0.35606046  0.04790638  0.76204990  1  0.127329  0  0.043286  0.044966  0  3.974836  0
C  C68  1  0.41203219  0.05019651  0.69813834  1  0.122083  0  0.037457  0.014963  0  3.990359  0
C  C69  1  0.40556551  0.99525725  0.63917722  1  0.014826  0  0.029475  0.022406  0  3.922349  0
C  C70  1  0.34027394  0.93908201  0.64394663  1  0.12687  0  0.041051  0.020338  0  3.987016  0
C  C71  1  0.28195174  0.93938738  0.70545928  1  0.192669  0  0.046034  0.046617  0  3.988006  0
C  C72  1  0.36735215  0.10316611  0.82158534  1  0.850391  0  0.194884  0.252675  0  3.972539  0
C  C73  1  0.33078218  0.88215772  0.58574847  1  0.825733  0  0.182204  0.220375  0  4.02459  0
C  C74  1  0.21629719  0.88246034  0.70873324  1  0.85343  0  0.201903  0.260008  0  3.978775  0
C  C75  1  0.47133767  0.11172532  0.69257776  1  0.829011  0  0.181574  0.212331  0  4.014908  0
C  C76  1  0.72603082  0.00125341  0.76406240  1  0.080637  0  0.036554  -0.035498  0  3.840603  0
C  C77  1  0.73273990  0.05540704  0.70807273  1  0.157394  0  0.044356  0.041472  0  3.989387  0
C  C78  1  0.67413133  0.05524641  0.64683254  1  0.15624  0  0.042085  0.022617  0  3.985898  0
C  C79  1  0.60923027  0.99872497  0.63871727  1  0.052431  0  0.030641  0.023982  0  3.918993  0
C  C80  1  0.60461339  0.94308074  0.69363888  1  0.096624  0  0.037838  0.017388  0  3.987614  0
C  C81  1  0.66148162  0.94539303  0.75710852  1  0.156847  0  0.043296  0.040905  0  3.971715  0
C  C82  1  0.79907005  0.11183036  0.71267752  1  0.833184  0  0.205751  0.266993  0  3.978436  0
C  C83  1  0.54584994  0.88115049  0.68417666  1  0.825953  0  0.180682  0.208507  0  4.0156  0
C  C84  1  0.65524247  0.88737055  0.81089351  1  0.847108  0  0.195814  0.258519  0  3.973023  0
C  C85  1  0.68309943  0.11239158  0.59242215  1  0.8231  0  0.181064  0.218425  0  4.025811  0
C  C86  1  0.40345232  0.63836742  0.00200819  1  0.047383  0  0.027845  0.019208  0  3.926891  0
C  C87  1  0.33947148  0.65165036  0.05846916  1  0.114308  0  0.03951  0.019461  0  3.992524  0
C  C88  1  0.28388329  0.71488322  0.05570855  1  0.193525  0  0.043125  0.044819  0  3.999098  0
C  C89  1  0.28874853  0.76402947  0.99514710  1  0.059684  0  0.033301  -0.04466  0  3.858651  0
C  C90  1  0.35341722  0.75286634  0.94024311  1  0.126838  0  0.039201  0.039424  0  3.992197  0
C  C91  1  0.41021187  0.68964353  0.94316501  1  0.122315  0  0.036092  0.014049  0  3.996656  0
C  C92  1  0.32902600  0.60078179  0.11858614  1  0.876168  0  0.180851  0.219197  0  4.027137  0
C  C93  1  0.36220860  0.80440994  0.88061771  1  0.85112  0  0.195391  0.250956  0  3.972024  0
C  C94  1  0.47134916  0.67725680  0.88351705  1  0.83596  0  0.180428  0.21032  0  4.017997  0
C  C95  1  0.22688385  0.73316121  0.11718906  1  0.849756  0  0.190266  0.235507  0  3.981065  0
C  C96  1  0.60659493  0.63751287  0.00299080  1  0.033527  0  0.031555  0.026075  0  3.917147  0
C  C97  1  0.59983486  0.69674411  0.05773818  1  0.163498  0  0.039315  0.01983  0  3.983429  0
C  C98  1  0.65693704  0.76002572  0.05668725  1  0.118017  0  0.044414  0.044149  0  3.97474  0
C  C99  1  0.72514205  0.76197186  0.00416716  1  0.1012  0  0.035329  -0.03926  0  3.845218  0
C  C100  1  0.73242267  0.70282418  0.94974224  1  0.068098  0  0.041444  0.031031  0  4.001943  0
C  C101  1  0.67339324  0.64176555  0.94814480  1  0.171545  0  0.041622  0.022634  0  3.989372  0
C  C102  1  0.53916310  0.69238831  0.11835128  1  0.836039  0  0.182154  0.207472  0  4.010015  0
C  C103  1  0.79988268  0.70522813  0.89456293  1  0.915285  0  0.219858  0.289151  0  3.959392  0
C  C104  1  0.68493366  0.58348207  0.89160346  1  0.833983  0  0.182567  0.219289  0  4.026202  0
C  C105  1  0.64507670  0.81973937  0.11160667  1  0.859018  0  0.19684  0.254149  0  3.965868  0
C  C106  1  0.28553820  0.23753013  0.00883881  1  0.09644  0  0.036657  -0.038396  0  3.840978  0
C  C107  1  0.35053957  0.24601987  0.06388301  1  0.089851  0  0.041857  0.042024  0  3.983371  0
C  C108  1  0.40811558  0.30892183  0.06335909  1  0.106362  0  0.035368  0.01262  0  3.999607  0
C  C109  1  0.40188870  0.36263274  0.00672408  1  0.093897  0  0.027298  0.018328  0  3.928923  0
C  C110  1  0.33748704  0.35220113  0.95018161  1  0.132738  0  0.0391  0.016434  0  3.990985  0
C  C111  1  0.28086859  0.28946483  0.95066737  1  0.13984  0  0.046513  0.052642  0  3.98962  0
C  C112  1  0.35921679  0.19243026  0.12172045  1  0.853409  0  0.197009  0.2564  0  3.968411  0
C  C113  1  0.32757889  0.40557116  0.89219466  1  0.841411  0  0.181771  0.223104  0  4.028419  0
C  C114  1  0.22285205  0.27570103  0.88889943  1  0.844477  0  0.187562  0.229738  0  3.990798  0
C  C115  1  0.46981455  0.31853096  0.12297368  1  0.795613  0  0.180079  0.211007  0  4.018397  0
C  C116  1  0.72525334  0.23872263  0.00080206  1  0.044253  0  0.033811  -0.042891  0  3.845961  0
C  C117  1  0.65661085  0.24103769  0.94876355  1  0.17287  0  0.043576  0.044743  0  3.976433  0
C  C118  1  0.59897827  0.30399276  0.94901146  1  0.136218  0  0.040155  0.019419  0  3.984644  0
C  C119  1  0.60566209  0.36230925  0.00470080  1  0.076793  0  0.030267  0.024427  0  3.919834  0
C  C120  1  0.67296215  0.35766871  0.05890823  1  0.124566  0  0.042169  0.023221  0  3.987928  0
C  C121  1  0.73299569  0.29741485  0.05566387  1  0.131152  0  0.041269  0.036043  0  4.002317  0
C  C122  1  0.64525007  0.18234001  0.89268484  1  0.850544  0  0.196642  0.254345  0  3.968918  0
C  C123  1  0.68373648  0.41498865  0.11654416  1  0.822152  0  0.181682  0.219176  0  4.026693  0
C  C124  1  0.80186472  0.29635771  0.10955046  1  0.852894  0  0.208704  0.26791  0  3.980273  0
C  C125  1  0.53785678  0.30923349  0.88889739  1  0.780684  0  0.181326  0.207441  0  4.012782  0
N  N126  1  0.15409359  0.15782616  0.30317084  1  -1.062672  0  -0.261432  -0.297781  0  2.699961  0
N  N127  1  0.51834968  0.83722201  0.31148677  1  -1.014859  0  -0.253067  -0.27285  0  2.707593  0
N  N128  1  0.31967466  0.15983798  0.46898399  1  -1.026809  0  -0.263247  -0.277846  0  2.623259  0
N  N129  1  0.38279967  0.85547053  0.13116689  1  -1.08713  0  -0.268616  -0.310468  0  2.746596  0
N  N130  1  0.49692929  0.16735038  0.32706673  1  -1.038426  0  -0.249077  -0.265591  0  2.688634  0
N  N131  1  0.85324080  0.84065671  0.28341693  1  -1.096436  0  -0.269118  -0.316547  0  2.714368  0
N  N132  1  0.65416037  0.16235830  0.15175195  1  -1.056717  0  -0.269914  -0.311878  0  2.732309  0
N  N133  1  0.69173486  0.83755647  0.45252947  1  -1.040479  0  -0.26238  -0.276168  0  2.624484  0
N  N134  1  0.16291297  0.83574209  0.71244871  1  -1.0741  0  -0.268903  -0.311551  0  2.690102  0
N  N135  1  0.51924178  0.16263816  0.68786183  1  -1.02256  0  -0.253115  -0.272547  0  2.700142  0
N  N136  1  0.31986493  0.83725003  0.53700039  1  -1.019518  0  -0.26475  -0.279995  0  2.624784  0
N  N137  1  0.37966972  0.14895386  0.86916312  1  -1.053892  0  -0.267673  -0.309541  0  2.742655  0
N  N138  1  0.65004002  0.83828940  0.85300539  1  -1.070162  0  -0.273117  -0.316448  0  2.728454  0
N  N139  1  0.69396160  0.15760102  0.54684702  1  -1.03036  0  -0.263413  -0.278637  0  2.625129  0
N  N140  1  0.49822372  0.83004345  0.67627295  1  -1.010348  0  -0.251236  -0.267898  0  2.690065  0
N  N141  1  0.85365352  0.15777430  0.71530855  1  -1.071651  0  -0.269211  -0.317155  0  2.710384  0
N  N142  1  0.52151304  0.66783434  0.83449287  1  -1.045112  0  -0.253273  -0.271976  0  2.690595  0
N  N143  1  0.18446088  0.75341860  0.16868402  1  -1.045238  0  -0.262334  -0.279431  0  2.668841  0
N  N144  1  0.37036034  0.84712808  0.83240268  1  -1.069923  0  -0.263502  -0.304198  0  2.74727  0
N  N145  1  0.31648776  0.55721643  0.16543711  1  -1.045551  0  -0.263618  -0.278469  0  2.623602  0
N  N146  1  0.69918067  0.53490488  0.84722255  1  -1.031621  0  -0.2641  -0.278378  0  2.622106  0
N  N147  1  0.63237747  0.86762646  0.15696046  1  -1.055154  0  -0.262821  -0.303404  0  2.752759  0
N  N148  1  0.85590800  0.70845609  0.85026529  1  -1.117847  0  -0.267597  -0.323456  0  2.761909  0
N  N149  1  0.49089229  0.68931824  0.16914728  1  -1.035452  0  -0.244687  -0.259214  0  2.697986  0
N  N150  1  0.17968996  0.26117976  0.83614395  1  -1.039856  0  -0.263847  -0.278844  0  2.662665  0
N  N151  1  0.52074631  0.32597032  0.17164572  1  -1.010495  0  -0.254539  -0.274884  0  2.694213  0
N  N152  1  0.31559937  0.45121110  0.84726155  1  -1.048964  0  -0.269333  -0.287631  0  2.628906  0
N  N153  1  0.36830451  0.14891260  0.16908486  1  -1.053161  0  -0.267141  -0.309628  0  2.739677  0
N  N154  1  0.85890429  0.29596812  0.15305483  1  -1.089411  0  -0.26351  -0.311112  0  2.742966  0
N  N155  1  0.48897264  0.31359688  0.83872005  1  -0.996133  0  -0.246495  -0.261501  0  2.696109  0
N  N156  1  0.69663252  0.46294332  0.16190189  1  -1.009067  0  -0.264182  -0.278849  0  2.623358  0
N  N157  1  0.63337512  0.13537891  0.84619637  1  -1.055693  0  -0.263609  -0.304796  0  2.747439  0
O  O158  1  0.87150577  0.20178318  0.99930246  1  -1.17607  0  -0.331846  -0.618381  0  2.31834  0
O  O159  1  0.76746459  0.10974425  0.99511170  1  -1.161566  0  -0.325593  -0.575568  0  2.27929  0
O  O160  1  0.14420500  0.99249848  0.80184201  1  -1.152068  0  -0.323062  -0.587878  0  2.324948  0
O  O161  1  0.24802816  0.00050915  0.89381446  1  -1.162493  0  -0.33567  -0.587897  0  2.289326  0
O  O162  1  0.87007292  0.01040155  0.80440841  1  -1.159661  0  -0.313552  -0.570571  0  2.334762  0
O  O163  1  0.76555849  0.99302702  0.89346514  1  -1.16678  0  -0.340501  -0.59417  0  2.285422  0
O  O164  1  0.14010383  0.19997026  0.01272974  1  -1.144422  0  -0.318058  -0.572371  0  2.289411  0
O  O165  1  0.24466529  0.10843407  0.01016149  1  -1.151898  0  -0.339907  -0.591682  0  2.293399  0
O  O166  1  0.00678543  0.20466280  0.90473736  1  -1.206649  0  -0.652705  -0.92668  0  1.930003  0
O  O167  1  0.00784010  0.20902094  0.11202875  1  -1.266279  0  -0.613544  -0.822391  0  2.028904  0
O  O168  1  0.00986524  0.10562103  0.79585815  1  -1.264839  0  -0.609869  -0.825714  0  2.030049  0
O  O169  1  0.99737714  0.90999161  0.78174997  1  -1.224407  0  -0.704703  -0.956462  0  1.793911  0
O  O170  1  0.93619834  0.05658666  0.94379439  1  -1.211718  0  -0.785834  -1.174754  0  2.104379  0
O  O171  1  0.09867312  0.08067803  0.92149508  1  -1.224753  0  -0.681231  -1.034272  0  2.222178  0
O  O172  1  0.13995119  0.00798842  0.20224919  1  -1.156607  0  -0.330507  -0.600057  0  2.310341  0
O  O173  1  0.24487720  0.00028102  0.11122807  1  -1.153668  0  -0.327967  -0.580501  0  2.292487  0
O  O174  1  0.87145189  0.79862980  0.00583868  1  -1.171851  0  -0.328574  -0.606073  0  2.309206  0
O  O175  1  0.76758368  0.89074304  0.00813934  1  -1.153608  0  -0.326207  -0.575111  0  2.29141  0
O  O176  1  0.14369966  0.80087492  0.98282902  1  -1.16865  0  -0.32496  -0.601303  0  2.287069  0
O  O177  1  0.24711096  0.89294616  0.99542647  1  -1.156703  0  -0.329173  -0.573008  0  2.294401  0
O  O178  1  0.87277738  0.99364456  0.20022133  1  -1.155988  0  -0.327258  -0.597794  0  2.315785  0
O  O179  1  0.76732676  0.00513270  0.11060020  1  -1.159517  0  -0.329587  -0.581843  0  2.281258  0
O  O180  1  0.00837775  0.89473285  0.20545461  1  -1.265057  0  -0.612187  -0.826319  0  2.033918  0
O  O181  1  0.00258464  0.10453671  0.20817428  1  -1.237687  0  -0.661403  -0.933871  0  1.884799  0
O  O182  1  0.01108513  0.79538975  0.09732504  1  -1.211336  0  -0.653236  -0.931451  0  1.940573  0
O  O183  1  0.00682538  0.76820568  0.90794352  1  -1.254509  0  -0.592689  -0.822189  0  2.087343  0
O  O184  1  0.09892590  0.91914303  0.08075301  1  -1.242678  0  -0.682614  -1.03228  0  2.227444  0
O  O185  1  0.93679662  0.94263545  0.05880297  1  -1.212396  0  -0.789765  -1.172026  0  2.111831  0
O  O186  1  0.07562161  0.05923957  0.06088894  1  -1.211319  0  -0.787459  -1.16452  0  2.089535  0
O  O187  1  0.91639024  0.91425011  0.91822619  1  -1.272958  0  -0.679771  -1.057433  0  2.225393  0
O  O188  1  0.91335564  0.08233712  0.08273982  1  -1.253508  0  -0.687427  -1.052518  0  2.28276  0
O  O189  1  0.07799400  0.93971479  0.94052189  1  -1.218135  0  -0.784365  -1.180792  0  2.084483  0
