# generated using pymatgen
data_CdH14C12N4O5
_symmetry_space_group_name_H-M   'P 1'
_cell_length_a   8.44280350
_cell_length_b   9.67479320
_cell_length_c   11.32356718
_cell_angle_alpha   110.24869443
_cell_angle_beta   89.99837051
_cell_angle_gamma   89.99977404
_symmetry_Int_Tables_number   1
_chemical_formula_structural   CdH14C12N4O5
_chemical_formula_sum   'Cd2 H28 C24 N8 O10'
_cell_volume   867.77413644
_cell_formula_units_Z   2
loop_
 _symmetry_equiv_pos_site_id
 _symmetry_equiv_pos_as_xyz
  1  'x, y, z'
loop_
 _atom_site_type_symbol
 _atom_site_label
 _atom_site_symmetry_multiplicity
 _atom_site_fract_x
 _atom_site_fract_y
 _atom_site_fract_z
 _atom_site_occupancy
 _atom_site_hle17_bader_spin_density
 _atom_site_hle17_ddec_charge
 _atom_site_hle17_ddec_spin_density
 _atom_site_hle17_ddec_sum_bond_order
 _atom_site_hle17_magmom
 _atom_site_hse06_10hf_bader_spin_density
 _atom_site_hse06_10hf_ddec_charge
 _atom_site_hse06_10hf_ddec_spin_density
 _atom_site_hse06_10hf_ddec_sum_bond_order
 _atom_site_hse06_10hf_magmom
 _atom_site_hse06_bader_spin_density
 _atom_site_hse06_ddec_charge
 _atom_site_hse06_ddec_spin_density
 _atom_site_hse06_ddec_sum_bond_order
 _atom_site_hse06_magmom
 _atom_site_pbe_bader_spin_density
 _atom_site_pbe_cm5_charge
 _atom_site_pbe_ddec_charge
 _atom_site_pbe_ddec_spin_density
 _atom_site_pbe_ddec_sum_bond_order
 _atom_site_pbe_magmom
Cd  Cd0  1  0.49720178  0.48906919  0.89866082  1  0  1.131924  0  1.69361  0  0  0.938977  0  2.143226  0  0  0.997223  0  2.089808  0  0  0.76288  0.898742  0  2.178064  0
Cd  Cd1  1  0.99718354  0.51093502  0.10133208  1  0  1.13193  0  1.693599  0  0  0.939021  0  2.143186  0  0  0.997263  0  2.089769  0  0  0.762871  0.898781  0  2.178022  0
H  H2  1  0.71563406  0.55249495  0.76208445  1  0  0.404155  0  0.91671  0  0  0.37169  0  0.984067  0  0  0.383576  0  0.967031  0  0  0.276161  0.362978  0  0.996522  0
H  H3  1  0.21560538  0.44750099  0.23790959  1  0  0.404175  0  0.916715  0  0  0.371764  0  0.984005  0  0  0.383662  0  0.966956  0  0  0.27616  0.36304  0  0.996474  0
H  H4  1  0.81258129  0.43238495  0.79791731  1  0  0.420485  0  0.889795  0  0  0.389116  0  0.955009  0  0  0.400555  0  0.93841  0  0  0.283735  0.380974  0  0.966857  0
H  H5  1  0.31255228  0.56761311  0.20208053  1  0  0.420506  0  0.889712  0  0  0.389095  0  0.954999  0  0  0.400529  0  0.938406  0  0  0.283705  0.380954  0  0.966844  0
H  H6  1  0.53413054  0.38809663  0.58478092  1  0  0.088733  0  0.950028  0  0  0.094683  0  1.018085  0  0  0.097723  0  1.015526  0  0  0.114399  0.092457  0  1.020038  0
H  H7  1  0.03410389  0.61191330  0.41520056  1  0  0.088671  0  0.950223  0  0  0.094647  0  1.018241  0  0  0.097699  0  1.015666  0  0  0.114375  0.092423  0  1.020199  0
H  H8  1  0.36361160  0.32498567  0.39164670  1  0  0.123493  0  0.950607  0  0  0.128644  0  1.015424  0  0  0.132723  0  1.012857  0  0  0.111997  0.125728  0  1.017356  0
H  H9  1  0.86359232  0.67500722  0.60834685  1  0  0.123438  0  0.950588  0  0  0.128588  0  1.015411  0  0  0.132664  0  1.012846  0  0  0.111925  0.125676  0  1.01735  0
H  H10  1  0.06980353  0.31865073  0.41635403  1  0  0.089889  0  0.955153  0  0  0.099725  0  1.015539  0  0  0.102315  0  1.014457  0  0  0.104996  0.097759  0  1.016636  0
H  H11  1  0.56977805  0.68135101  0.58365888  1  0  0.090031  0  0.955044  0  0  0.099871  0  1.015423  0  0  0.102465  0  1.014331  0  0  0.105026  0.097899  0  1.016521  0
H  H12  1  0.95612574  0.36669538  0.63305814  1  0  0.116906  0  0.961004  0  0  0.125457  0  1.021841  0  0  0.129661  0  1.018973  0  0  0.109986  0.12226  0  1.024225  0
H  H13  1  0.45609966  0.63331232  0.36695869  1  0  0.116923  0  0.961068  0  0  0.125515  0  1.021829  0  0  0.129721  0  1.01896  0  0  0.109974  0.122312  0  1.024215  0
H  H14  1  0.72848637  0.93726047  0.72261270  1  0  0.113684  0  0.961192  0  0  0.118647  0  1.029425  0  0  0.122626  0  1.027336  0  0  0.108358  0.115541  0  1.031454  0
H  H15  1  0.22846846  0.06274196  0.27738462  1  0  0.113729  0  0.961176  0  0  0.118658  0  1.029445  0  0  0.122639  0  1.027358  0  0  0.108378  0.115551  0  1.031467  0
H  H16  1  0.68678688  0.20286420  0.74531061  1  0  0.088279  0  0.943253  0  0  0.100307  0  0.999895  0  0  0.102855  0  0.997431  0  0  0.117833  0.097875  0  1.002514  0
H  H17  1  0.18677149  0.79713427  0.25468209  1  0  0.088199  0  0.94308  0  0  0.100219  0  0.999746  0  0  0.102782  0  0.997265  0  0  0.117782  0.097743  0  1.002422  0
H  H18  1  0.37293759  0.26642484  0.04060709  1  0  0.089487  0  0.959534  0  0  0.095016  0  1.026813  0  0  0.097765  0  1.024859  0  0  0.114903  0.092696  0  1.02857  0
H  H19  1  0.87296155  0.73357639  0.95937794  1  0  0.089653  0  0.959442  0  0  0.094971  0  1.02695  0  0  0.097708  0  1.024995  0  0  0.114903  0.092651  0  1.028708  0
H  H20  1  0.39460423  0.00135275  0.02503248  1  0  0.118993  0  0.949092  0  0  0.126096  0  1.01193  0  0  0.129536  0  1.010907  0  0  0.109651  0.123631  0  1.012716  0
H  H21  1  0.89462294  0.99864838  0.97495825  1  0  0.119001  0  0.949143  0  0  0.126124  0  1.011961  0  0  0.12956  0  1.010947  0  0  0.109676  0.123707  0  1.012704  0
H  H22  1  0.64259324  0.19194076  0.23759784  1  0  0.256701  0  0.915432  0  0  0.255663  0  0.968718  0  0  0.259544  0  0.966363  0  0  0.289603  0.252757  0  0.970526  0
H  H23  1  0.14259756  0.80804474  0.76241523  1  0  0.256846  0  0.915197  0  0  0.255679  0  0.96864  0  0  0.259556  0  0.966288  0  0  0.289598  0.25278  0  0.970444  0
H  H24  1  0.79631171  0.20841282  0.32992513  1  0  0.229214  0  0.944155  0  0  0.228289  0  1.002181  0  0  0.232072  0  0.99986  0  0  0.27478  0.225309  0  1.004327  0
H  H25  1  0.29630541  0.79155909  0.67006764  1  0  0.229147  0  0.94417  0  0  0.228258  0  1.00217  0  0  0.232027  0  0.999865  0  0  0.274766  0.225296  0  1.004291  0
H  H26  1  0.69368444  0.98711695  0.31802390  1  0  0.23551  0  0.935477  0  0  0.235251  0  0.989732  0  0  0.23966  0  0.986682  0  0  0.27812  0.232754  0  0.990697  0
H  H27  1  0.19369398  0.01286784  0.68198786  1  0  0.235501  0  0.935472  0  0  0.235184  0  0.989787  0  0  0.239585  0  0.986752  0  0  0.278124  0.232688  0  0.990752  0
H  H28  1  0.60998536  0.10153058  0.44623935  1  0  0.245435  0  0.932605  0  0  0.245103  0  0.986427  0  0  0.248931  0  0.983561  0  0  0.28513  0.242077  0  0.989052  0
H  H29  1  0.10997711  0.89846651  0.55378114  1  0  0.245416  0  0.93257  0  0  0.245077  0  0.986403  0  0  0.248906  0  0.983535  0  0  0.285088  0.242055  0  0.989027  0
C  C30  1  0.40537936  0.38238716  0.59081263  1  0  0.123591  0  3.700143  0  0  0.094006  0  3.95325  0  0  0.0988  0  3.972753  0  0  0.046226  0.09086  0  3.94018  0
C  C31  1  0.90536080  0.61761497  0.40917991  1  0  0.123717  0  3.700477  0  0  0.094179  0  3.953536  0  0  0.098968  0  3.97303  0  0  0.046358  0.091025  0  3.940486  0
C  C32  1  0.31012046  0.34783657  0.48384294  1  0  -0.098557  0  3.699757  0  0  -0.11476  0  3.954279  0  0  -0.119365  0  3.973968  0  0  -0.074531  -0.111765  0  3.941286  0
C  C33  1  0.81010360  0.65216150  0.51615407  1  0  -0.098464  0  3.699632  0  0  -0.114676  0  3.954144  0  0  -0.119279  0  3.973838  0  0  -0.074412  -0.111691  0  3.941166  0
C  C34  1  0.14653709  0.34284708  0.49833727  1  0  -0.010027  0  3.72967  0  0  -0.027289  0  3.980656  0  0  -0.026122  0  4.000559  0  0  -0.067248  -0.027997  0  3.9668  0
C  C35  1  0.64651958  0.65715365  0.50167548  1  0  -0.010158  0  3.72963  0  0  -0.027434  0  3.980633  0  0  -0.02627  0  4.000537  0  0  -0.067289  -0.028129  0  3.966764  0
C  C36  1  0.08336854  0.36945347  0.61793854  1  0  -0.11288  0  3.702404  0  0  -0.133109  0  3.942676  0  0  -0.137457  0  3.962811  0  0  -0.076126  -0.129545  0  3.927443  0
C  C37  1  0.58334977  0.63055458  0.38207228  1  0  -0.113043  0  3.702431  0  0  -0.133267  0  3.942724  0  0  -0.13762  0  3.962865  0  0  -0.076197  -0.129705  0  3.927488  0
C  C38  1  0.18719459  0.40214801  0.72009654  1  0  0.092393  0  3.759259  0  0  0.099964  0  3.994701  0  0  0.100243  0  4.01488  0  0  0.10846  0.100159  0  3.979391  0
C  C39  1  0.68716564  0.59786270  0.27990394  1  0  0.092352  0  3.759034  0  0  0.099891  0  3.994641  0  0  0.10017  0  4.014822  0  0  0.108491  0.100086  0  3.97932  0
C  C40  1  0.12794985  0.43071458  0.85212473  1  0  0.612097  0  3.919306  0  0  0.557851  0  4.210262  0  0  0.592171  0  4.204057  0  0  0.206099  0.534617  0  4.213586  0
C  C41  1  0.62792722  0.56929368  0.14787724  1  0  0.612123  0  3.919358  0  0  0.557826  0  4.210412  0  0  0.592141  0  4.204207  0  0  0.206018  0.5346  0  4.213724  0
C  C42  1  0.58207896  0.78883697  0.85708777  1  0  0.627329  0  3.942266  0  0  0.575007  0  4.243399  0  0  0.608888  0  4.235846  0  0  0.202589  0.552523  0  4.246313  0
C  C43  1  0.08206673  0.21116753  0.14291415  1  0  0.627325  0  3.942295  0  0  0.575013  0  4.243453  0  0  0.608889  0  4.235903  0  0  0.202669  0.552528  0  4.246374  0
C  C44  1  0.56153305  0.94897021  0.87101435  1  0  -0.016063  0  3.746973  0  0  0.000973  0  3.98411  0  0  -0.00143  0  4.004457  0  0  -0.000937  0.00272  0  3.969747  0
C  C45  1  0.06152913  0.05103641  0.12897711  1  0  -0.016159  0  3.747156  0  0  0.000834  0  3.984356  0  0  -0.001563  0  4.004704  0  0  -0.001127  0.002579  0  3.970008  0
C  C46  1  0.64608783  0.00641564  0.79213020  1  0  -0.134514  0  3.731044  0  0  -0.154531  0  3.977492  0  0  -0.159769  0  3.99748  0  0  -0.081264  -0.15175  0  3.965249  0
C  C47  1  0.14607814  0.99358554  0.20786236  1  0  -0.134444  0  3.731186  0  0  -0.154402  0  3.977583  0  0  -0.15965  0  3.997588  0  0  -0.081159  -0.15161  0  3.965307  0
C  C48  1  0.62490947  0.15345616  0.80531602  1  0  0.122904  0  3.712827  0  0  0.095548  0  3.958108  0  0  0.101559  0  3.976926  0  0  0.044845  0.091372  0  3.946082  0
C  C49  1  0.12490208  0.84654746  0.19467590  1  0  0.122949  0  3.712766  0  0  0.095598  0  3.958031  0  0  0.101601  0  3.97684  0  0  0.044839  0.091445  0  3.946018  0
C  C50  1  0.44883441  0.18959762  0.97024133  1  0  0.123525  0  3.691128  0  0  0.094558  0  3.942422  0  0  0.10056  0  3.96075  0  0  0.043456  0.090694  0  3.929865  0
C  C51  1  0.94884962  0.81040153  0.02974415  1  0  0.12337  0  3.691061  0  0  0.094558  0  3.942381  0  0  0.10058  0  3.96069  0  0  0.043407  0.090696  0  3.929849  0
C  C52  1  0.46103817  0.04280603  0.96182555  1  0  -0.124902  0  3.701242  0  0  -0.145565  0  3.947167  0  0  -0.150236  0  3.966801  0  0  -0.078608  -0.142328  0  3.93361  0
C  C53  1  0.96105363  0.95719854  0.03816381  1  0  -0.124929  0  3.701276  0  0  -0.145589  0  3.94718  0  0  -0.150263  0  3.96681  0  0  -0.078614  -0.142401  0  3.933625  0
N  N54  1  0.34515540  0.40987172  0.70634072  1  0  -0.342122  0  3.247882  0  0  -0.277648  0  3.502417  0  0  -0.295009  0  3.523188  0  0  -0.320466  -0.265693  0  3.487476  0
N  N55  1  0.84513425  0.59014134  0.29366142  1  0  -0.342046  0  3.24802  0  0  -0.277675  0  3.502681  0  0  -0.295037  0  3.523455  0  0  -0.320482  -0.265714  0  3.487731  0
N  N56  1  0.52825489  0.24370624  0.89269018  1  0  -0.324047  0  3.248779  0  0  -0.251393  0  3.513881  0  0  -0.270126  0  3.533267  0  0  -0.324775  -0.238246  0  3.499572  0
N  N57  1  0.02825476  0.75629079  0.10729494  1  0  -0.324044  0  3.248824  0  0  -0.251376  0  3.513833  0  0  -0.270107  0  3.533214  0  0  -0.324676  -0.238226  0  3.499511  0
N  N58  1  0.67510085  0.20263043  0.32717328  1  0  -0.46739  0  3.020494  0  0  -0.462287  0  3.268759  0  0  -0.471684  0  3.270798  0  0  -0.549372  -0.455726  0  3.267135  0
N  N59  1  0.17509560  0.79735233  0.67283568  1  0  -0.467397  0  3.020256  0  0  -0.462197  0  3.268574  0  0  -0.471575  0  3.270627  0  0  -0.549332  -0.45566  0  3.266931  0
N  N60  1  0.61761502  0.07472355  0.35096476  1  0  -0.478417  0  3.02899  0  0  -0.474076  0  3.269608  0  0  -0.482826  0  3.270051  0  0  -0.555413  -0.46775  0  3.268522  0
N  N61  1  0.11761725  0.92527016  0.64905551  1  0  -0.478463  0  3.028892  0  0  -0.474052  0  3.26955  0  0  -0.482797  0  3.269988  0  0  -0.555394  -0.467726  0  3.268475  0
O  O62  1  0.22700521  0.46309029  0.94218162  1  0  -0.627206  0  2.070825  0  0  -0.559178  0  2.329298  0  0  -0.58977  0  2.319121  0  0  -0.315079  -0.537923  0  2.335409  0
O  O63  1  0.72698496  0.53690570  0.05781837  1  0  -0.627165  0  2.070845  0  0  -0.559111  0  2.329346  0  0  -0.589707  0  2.319177  0  0  -0.315018  -0.53786  0  2.335452  0
O  O64  1  0.71407335  0.44478526  0.75395194  1  0  -0.859688  0  1.86517  0  0  -0.8023  0  2.060577  0  0  -0.825283  0  2.025438  0  0  -0.602064  -0.786635  0  2.085954  0
O  O65  1  0.21404627  0.55520636  0.24604271  1  0  -0.859659  0  1.865107  0  0  -0.80226  0  2.060404  0  0  -0.825254  0  2.025245  0  0  -0.602029  -0.786575  0  2.085797  0
O  O66  1  0.98036424  0.42208893  0.87061209  1  0  -0.61156  0  2.030741  0  0  -0.542054  0  2.259121  0  0  -0.570643  0  2.249035  0  0  -0.307059  -0.522072  0  2.265273  0
O  O67  1  0.48034151  0.57793035  0.12940122  1  0  -0.611747  0  2.030809  0  0  -0.542166  0  2.259195  0  0  -0.57075  0  2.249103  0  0  -0.307172  -0.522205  0  2.265375  0
O  O68  1  0.47977083  0.73304821  0.90985608  1  0  -0.623071  0  1.970246  0  0  -0.561767  0  2.211737  0  0  -0.589141  0  2.200056  0  0  -0.329288  -0.542843  0  2.21802  0
O  O69  1  0.97976351  0.26695554  0.09014943  1  0  -0.623082  0  1.970341  0  0  -0.561763  0  2.211813  0  0  -0.589137  0  2.200143  0  0  -0.329307  -0.542844  0  2.218107  0
O  O70  1  0.70068075  0.72445080  0.79234281  1  0  -0.624262  0  2.004023  0  0  -0.564577  0  2.224821  0  0  -0.590085  0  2.215499  0  0  -0.311943  -0.546164  0  2.230301  0
O  O71  1  0.20065986  0.27555233  0.20766501  1  0  -0.624224  0  2.003911  0  0  -0.564637  0  2.224812  0  0  -0.590149  0  2.215498  0  0  -0.31196  -0.546214  0  2.230287  0
