# generated using pymatgen
data_BaCoH13C8NO10
_symmetry_space_group_name_H-M   'P 1'
_cell_length_a   9.51566020
_cell_length_b   9.65688998
_cell_length_c   9.72383665
_cell_angle_alpha   64.67861236
_cell_angle_beta   61.10226674
_cell_angle_gamma   65.15965435
_symmetry_Int_Tables_number   1
_chemical_formula_structural   BaCoH13C8NO10
_chemical_formula_sum   'Ba2 Co2 H26 C16 N2 O20'
_cell_volume   680.92356310
_cell_formula_units_Z   2
loop_
 _symmetry_equiv_pos_site_id
 _symmetry_equiv_pos_as_xyz
  1  'x, y, z'
loop_
 _atom_site_type_symbol
 _atom_site_label
 _atom_site_symmetry_multiplicity
 _atom_site_fract_x
 _atom_site_fract_y
 _atom_site_fract_z
 _atom_site_occupancy
 _atom_site_hle17_ddec_charge
 _atom_site_hle17_ddec_spin_density
 _atom_site_hle17_ddec_sum_bond_order
 _atom_site_hle17_magmom
 _atom_site_hse06_10hf_ddec_charge
 _atom_site_hse06_10hf_ddec_spin_density
 _atom_site_hse06_10hf_ddec_sum_bond_order
 _atom_site_hse06_10hf_magmom
 _atom_site_hse06_ddec_charge
 _atom_site_hse06_ddec_spin_density
 _atom_site_hse06_ddec_sum_bond_order
 _atom_site_hse06_magmom
 _atom_site_pbe_cm5_charge
 _atom_site_pbe_ddec_charge
 _atom_site_pbe_ddec_spin_density
 _atom_site_pbe_ddec_sum_bond_order
 _atom_site_pbe_magmom
Ba  Ba0  1  0.74815084  0.65640141  0.50691979  1  1.661322  7e-05  1.102112  0.001  1.514932  0.000433  1.500754  0.001  1.555969  -9e-05  1.456833  0.001  0.923073  1.48438  0.00137  1.533265  0.002
Ba  Ba1  1  0.25184785  0.34359767  0.49308079  1  1.661333  0.000125  1.102113  0.001  1.514937  0.000442  1.500764  0.001  1.55597  -5.8e-05  1.456846  0.001  0.923078  1.484384  0.00137  1.533272  0.002
Co  Co2  1  0.69183135  0.41099035  0.22487434  1  1.001318  2.811693  1.91677  2.542  0.952058  2.827384  2.340011  2.609  1.044315  2.872274  2.258312  2.693  0.655089  0.87409  2.784474  2.40917  2.532
Co  Co3  1  0.30816699  0.58900992  0.77512487  1  1.001324  2.811686  1.916759  2.542  0.95205  2.827378  2.340053  2.609  1.044326  2.872275  2.258334  2.693  0.655099  0.874091  2.784474  2.409209  2.532
H  H4  1  0.10489300  0.30844952  0.97372158  1  0.127428  -0.000443  0.92675  0.0  0.138235  -0.000365  0.990691  0.0  0.140644  -0.000322  0.988997  0.0  0.125794  0.136724  -0.000403  0.99205  0.0
H  H5  1  0.89510776  0.69155075  0.02627957  1  0.127402  -0.000426  0.926785  0.0  0.138205  -0.000365  0.990728  0.0  0.140614  -0.000323  0.989035  0.0  0.125782  0.136694  -0.000403  0.992085  0.0
H  H6  1  0.09670440  0.12633383  0.98132585  1  0.108711  0.001061  0.92842  0.002  0.124154  0.000915  0.985656  0.001  0.126006  0.000641  0.984836  0.001  0.11494  0.12292  0.00116  0.986438  0.001
H  H7  1  0.90329754  0.87366646  0.01867267  1  0.108674  0.00107  0.928483  0.002  0.124094  0.000915  0.985742  0.001  0.125946  0.000641  0.984922  0.001  0.114915  0.122857  0.00116  0.98652  0.001
H  H8  1  0.82731829  0.05941397  0.18096902  1  0.127579  -0.000263  0.915461  0.0  0.143671  -0.000244  0.97138  0.0  0.145947  -0.000194  0.969835  0.0  0.129327  0.141811  -0.000297  0.972848  0.0
H  H9  1  0.17268159  0.94058512  0.81902995  1  0.12758  -0.00029  0.915455  0.0  0.143673  -0.000243  0.971378  0.0  0.145948  -0.000193  0.969836  0.0  0.129336  0.141814  -0.000297  0.972849  0.0
H  H10  1  0.95507290  0.95883659  0.29933275  1  0.099295  0.001053  0.942486  0.001  0.110052  0.000906  1.011396  0.001  0.112397  0.000623  1.01009  0.001  0.116417  0.108394  0.001168  1.012229  0.001
H  H11  1  0.04492904  0.04116370  0.70066576  1  0.09929  0.00104  0.942478  0.001  0.110055  0.000906  1.011377  0.001  0.112399  0.000623  1.010073  0.001  0.116408  0.108394  0.001168  1.012207  0.001
H  H12  1  0.02528982  0.10164681  0.38154801  1  0.097453  0.000613  0.931912  0.001  0.111333  0.000686  0.996735  0.001  0.113123  0.000474  0.995797  0.001  0.11493  0.109694  0.000897  0.997907  0.001
H  H13  1  0.97470800  0.89835108  0.61845142  1  0.097459  0.000606  0.931933  0.001  0.111305  0.000686  0.996765  0.001  0.113091  0.000474  0.99583  0.001  0.114939  0.109668  0.000897  0.997936  0.001
H  H14  1  0.14335620  0.21834592  0.20071765  1  0.12169  0.000235  0.916375  0.0  0.136036  0.000148  0.975898  0.0  0.138703  7.2e-05  0.973983  0.0  0.127381  0.133942  0.000204  0.977442  0.0
H  H15  1  0.85664215  0.78165435  0.79928259  1  0.121654  0.000227  0.916409  0.0  0.136013  0.000148  0.975892  0.0  0.138689  7.2e-05  0.973965  0.0  0.127374  0.133916  0.000204  0.977437  0.0
H  H16  1  0.79231492  0.20768116  0.77084663  1  0.149419  -2e-06  0.972748  0.0  0.166114  0.000134  1.034846  0.0  0.169691  8.1e-05  1.033017  0.0  0.104592  0.163473  0.000197  1.036341  0.0
H  H17  1  0.20768429  0.79232030  0.22915372  1  0.149404  1.9e-05  0.972747  0.0  0.1661  0.000134  1.034853  0.0  0.169678  8.1e-05  1.033019  0.0  0.104573  0.163458  0.000197  1.036345  0.0
H  H18  1  0.73191986  0.13455855  0.67344055  1  0.133689  -0.000408  0.949007  0.0  0.1529  -0.000157  1.01133  0.0  0.155046  -0.000139  1.011191  0.0  0.098762  0.15117  -9e-05  1.011909  0.0
H  H19  1  0.26807935  0.86544291  0.32655980  1  0.133694  -0.000411  0.948988  0.0  0.152905  -0.000158  1.011323  0.0  0.155048  -0.00014  1.011186  0.0  0.098763  0.151175  -9e-05  1.0119  0.0
H  H20  1  0.67707529  0.05884560  0.88953012  1  0.135642  0.000285  0.951136  0.0  0.152716  0.000292  1.013572  0.0  0.155706  0.000195  1.011449  0.0  0.093967  0.150719  0.000453  1.01494  0.001
H  H21  1  0.32292546  0.94115468  0.11047000  1  0.135631  0.000287  0.951093  0.0  0.152739  0.000292  1.013506  0.0  0.155728  0.000195  1.011383  0.0  0.093984  0.150743  0.000453  1.014879  0.001
H  H22  1  0.64752804  0.57477306  0.89213842  1  0.42728  -0.000162  0.878088  0.0  0.39662  -0.00019  0.941794  0.0  0.407874  -0.00024  0.925456  0.0  0.294678  0.388549  -9.7e-05  0.953459  0.0
H  H23  1  0.35247390  0.42522723  0.10786010  1  0.427285  -0.000162  0.878077  0.0  0.396609  -0.00019  0.941798  0.0  0.407857  -0.000239  0.925472  0.0  0.294675  0.38854  -9.7e-05  0.953461  0.0
H  H24  1  0.57711540  0.75823242  0.86579363  1  0.421582  -4.8e-05  0.845979  0.0  0.401202  -4.8e-05  0.905675  0.0  0.409298  -4.7e-05  0.893769  0.0  0.309389  0.395305  -4.8e-05  0.914419  0.0
H  H25  1  0.42288569  0.24176667  0.13420580  1  0.421575  -4.6e-05  0.845974  0.0  0.401198  -4.8e-05  0.905678  0.0  0.40929  -4.7e-05  0.893777  0.0  0.309382  0.395298  -4.8e-05  0.914426  0.0
H  H26  1  0.62298844  0.86023199  0.18972482  1  0.409616  -2.1e-05  0.897089  0.0  0.38243  -2.3e-05  0.956707  0.0  0.391821  -3.5e-05  0.943045  0.0  0.289036  0.375526  -5e-06  0.966867  0.0
H  H27  1  0.37701078  0.13976947  0.81027656  1  0.409594  -2.4e-05  0.897111  0.0  0.382417  -2.3e-05  0.956719  0.0  0.391809  -3.6e-05  0.943057  0.0  0.289037  0.375513  -5e-06  0.96688  0.0
H  H28  1  0.52865270  0.95905758  0.31900167  1  0.410634  -2.9e-05  0.896806  0.0  0.381613  -2.5e-05  0.958441  0.0  0.393018  -2.7e-05  0.941811  0.0  0.291106  0.373139  1.8e-05  0.970806  0.0
H  H29  1  0.47134377  0.04094505  0.68099950  1  0.410645  -3.1e-05  0.896802  0.0  0.381626  -2.5e-05  0.958428  0.0  0.393033  -2.8e-05  0.941799  0.0  0.291126  0.373152  1.8e-05  0.970796  0.0
C  C30  1  0.01914089  0.23748115  0.01558927  1  -0.190792  -0.002637  3.638724  -0.003  -0.24615  -0.000804  3.891961  -0.001  -0.247571  -0.001208  3.900694  -0.001  -0.065505  -0.24555  -0.000363  3.885706  -0.001
C  C31  1  0.98085985  0.76251914  0.98440880  1  -0.19072  -0.002713  3.638828  -0.003  -0.246085  -0.000805  3.892044  -0.001  -0.247506  -0.00121  3.900782  -0.001  -0.06548  -0.245482  -0.000363  3.885785  -0.001
C  C32  1  0.90340135  0.33219827  0.92035663  1  0.690353  -0.003817  3.840931  -0.003  0.644402  0.000917  4.143915  0.002  0.678649  0.000317  4.138194  0.001  0.223986  0.620408  0.001288  4.146613  0.002
C  C33  1  0.09660060  0.66780202  0.07964189  1  0.690282  -0.003783  3.841013  -0.003  0.644406  0.000917  4.143875  0.002  0.678651  0.000315  4.138158  0.001  0.223987  0.620415  0.001288  4.146569  0.002
C  C34  1  0.86229792  0.07033695  0.26784242  1  -0.198411  -0.003365  3.654691  -0.003  -0.256576  -0.001229  3.911211  -0.001  -0.258458  -0.001554  3.919791  -0.001  -0.064259  -0.254953  -0.000983  3.904618  -0.001
C  C35  1  0.13770196  0.92966214  0.73215655  1  -0.198379  -0.003236  3.654641  -0.003  -0.256554  -0.001232  3.911187  -0.001  -0.258431  -0.00156  3.919756  -0.001  -0.064239  -0.254928  -0.000983  3.904591  -0.001
C  C36  1  0.70209409  0.08808274  0.41739174  1  0.697895  -0.005933  3.835989  -0.004  0.653704  -0.000345  4.134917  0.0  0.688301  -0.000506  4.128877  0.0  0.230795  0.629378  -0.000522  4.137791  0.0
C  C37  1  0.29790700  0.91191635  0.58260666  1  0.697926  -0.006033  3.836037  -0.004  0.653725  -0.000344  4.134974  0.0  0.688323  -0.000505  4.128936  0.0  0.230799  0.6294  -0.000521  4.137845  0.0
C  C38  1  0.01476862  0.21191230  0.28147876  1  -0.169812  -0.002802  3.621633  -0.003  -0.225023  -0.000774  3.87243  -0.002  -0.22646  -0.001194  3.880933  -0.002  -0.05891  -0.223935  -0.000329  3.866186  -0.001
C  C39  1  0.98522973  0.78808797  0.71852148  1  -0.169833  -0.002737  3.621731  -0.003  -0.224986  -0.000774  3.872411  -0.002  -0.226424  -0.001201  3.880909  -0.002  -0.058927  -0.223902  -0.000329  3.866172  -0.001
C  C40  1  0.93033112  0.35135834  0.35446280  1  0.696698  -0.002335  3.848677  -0.001  0.653079  0.001706  4.144913  0.003  0.687771  0.000799  4.139204  0.002  0.223549  0.628695  0.002395  4.147433  0.003
C  C41  1  0.06966790  0.64863955  0.64553709  1  0.69651  -0.002327  3.848868  -0.001  0.652912  0.001707  4.14503  0.003  0.687599  0.000799  4.13933  0.002  0.223503  0.628534  0.002396  4.147539  0.003
C  C42  1  0.69434601  0.16527584  0.78525552  1  -0.464751  0.001747  3.639816  0.002  -0.537531  0.001061  3.865125  0.001  -0.544778  0.000614  3.865855  0.001  -0.245905  -0.532672  0.001414  3.865254  0.002
C  C43  1  0.30565355  0.83472443  0.21474517  1  -0.464726  0.001723  3.639764  0.002  -0.537539  0.001062  3.865081  0.001  -0.544785  0.000619  3.86581  0.001  -0.24589  -0.532674  0.001413  3.86521  0.002
C  C44  1  0.53289541  0.29476046  0.80514297  1  0.758321  -0.006605  3.821836  -0.005  0.723345  -0.000314  4.110086  -0.001  0.759247  -0.000564  4.101855  -0.001  0.22277  0.698016  -0.000112  4.114815  -0.001
C  C45  1  0.46710501  0.70524100  0.19485784  1  0.758339  -0.00661  3.821982  -0.005  0.723333  -0.000316  4.110285  -0.001  0.759236  -0.000571  4.102051  -0.001  0.222737  0.697992  -0.000111  4.115029  -0.001
N  N46  1  0.92694949  0.21024094  0.19282515  1  -0.153131  0.034032  3.363313  0.067  -0.084933  0.025807  3.621858  0.049  -0.107848  0.019671  3.647218  0.04  -0.335736  -0.067146  0.031199  3.602386  0.056
N  N47  1  0.07305005  0.78975934  0.80717349  1  -0.153052  0.034034  3.363319  0.067  -0.084878  0.025808  3.621829  0.049  -0.107796  0.019674  3.647192  0.04  -0.335728  -0.067096  0.031198  3.602367  0.056
O  O48  1  0.80817978  0.46112613  0.31596165  1  -0.677009  0.037077  2.107465  0.065  -0.632366  0.029246  2.387556  0.046  -0.671653  0.022624  2.374711  0.036  -0.337047  -0.60133  0.03579  2.395963  0.056
O  O49  1  0.19182166  0.53887177  0.68403914  1  -0.676907  0.037074  2.107453  0.065  -0.632275  0.029248  2.387533  0.046  -0.671565  0.022624  2.374692  0.036  -0.336994  -0.601239  0.035793  2.395934  0.056
O  O50  1  0.95239204  0.33035623  0.77634499  1  -0.648944  0.005161  1.964425  0.009  -0.597458  0.004448  2.203056  0.007  -0.622091  0.002926  2.195568  0.005  -0.323416  -0.579844  0.006119  2.208527  0.01
O  O51  1  0.04761076  0.66964525  0.22365262  1  -0.648932  0.005155  1.964449  0.009  -0.597444  0.004448  2.202985  0.007  -0.622075  0.002928  2.195494  0.005  -0.323412  -0.579829  0.006119  2.208451  0.01
O  O52  1  0.60756018  0.23045477  0.41511876  1  -0.674061  0.040732  2.100718  0.072  -0.625336  0.03243  2.374855  0.052  -0.664735  0.025335  2.363327  0.041  -0.33723  -0.594266  0.039011  2.381871  0.062
O  O53  1  0.39243970  0.76954433  0.58487919  1  -0.674084  0.040745  2.100703  0.072  -0.625358  0.03243  2.374867  0.052  -0.664762  0.025336  2.363337  0.041  -0.337231  -0.594292  0.03901  2.381883  0.062
O  O54  1  0.66658457  0.96648713  0.53207554  1  -0.650576  0.003641  1.968156  0.006  -0.590551  0.003497  2.194865  0.006  -0.616658  0.002333  2.186404  0.004  -0.326144  -0.571962  0.004519  2.200503  0.007
O  O55  1  0.33341499  0.03351314  0.46792515  1  -0.650643  0.003651  1.968237  0.006  -0.590583  0.003497  2.194919  0.006  -0.616691  0.002333  2.186456  0.004  -0.326155  -0.571994  0.004519  2.200557  0.007
O  O56  1  0.98362024  0.35562545  0.44776896  1  -0.696693  0.0054  2.017245  0.009  -0.642029  0.004935  2.271064  0.008  -0.668754  0.00334  2.262388  0.005  -0.373865  -0.623221  0.006749  2.277333  0.011
O  O57  1  0.01638120  0.64437244  0.55223286  1  -0.696616  0.005397  2.017402  0.009  -0.641953  0.004935  2.271173  0.008  -0.668687  0.003341  2.262526  0.005  -0.373874  -0.623151  0.006749  2.277442  0.011
O  O58  1  0.75886820  0.41557804  0.99569967  1  -0.641762  0.041602  2.135305  0.071  -0.593884  0.032517  2.410892  0.049  -0.633264  0.025029  2.395358  0.038  -0.304953  -0.56236  0.039745  2.420288  0.06
O  O59  1  0.24113341  0.58442344  0.00429851  1  -0.641748  0.041599  2.135362  0.071  -0.593901  0.032517  2.410926  0.049  -0.633282  0.025028  2.395394  0.038  -0.304959  -0.56238  0.039745  2.420319  0.06
O  O60  1  0.54006521  0.43929030  0.72218678  1  -0.676672  0.037553  2.024642  0.064  -0.622493  0.028627  2.289405  0.043  -0.660948  0.022989  2.275626  0.035  -0.340017  -0.593045  0.033539  2.298833  0.049
O  O61  1  0.45992955  0.56070994  0.27781620  1  -0.676738  0.037559  2.024734  0.064  -0.622523  0.028628  2.289462  0.043  -0.660976  0.022991  2.275687  0.035  -0.339985  -0.593064  0.03354  2.298889  0.049
O  O62  1  0.39536353  0.26060813  0.89940020  1  -0.680782  0.00622  1.924139  0.011  -0.63048  0.007483  2.149264  0.013  -0.657016  0.005277  2.137497  0.009  -0.319452  -0.611111  0.009927  2.157227  0.016
O  O63  1  0.60463520  0.73939092  0.10060654  1  -0.680749  0.00622  1.924227  0.011  -0.630457  0.007482  2.149394  0.013  -0.656991  0.005275  2.137625  0.009  -0.319449  -0.611086  0.009926  2.157363  0.016
O  O64  1  0.59780391  0.67522309  0.82152889  1  -0.872965  0.000381  1.79246  0.001  -0.825972  0.000623  1.975442  0.001  -0.845268  0.000325  1.946285  0.001  -0.635655  -0.811542  0.001111  1.99632  0.002
O  O65  1  0.40219803  0.32477719  0.17846962  1  -0.872951  0.00038  1.792405  0.001  -0.825952  0.000623  1.975445  0.001  -0.84524  0.000324  1.946301  0.001  -0.635649  -0.81152  0.001111  1.996322  0.002
O  O66  1  0.64132119  0.90744016  0.25017835  1  -0.879538  0.000272  1.813118  0.0  -0.827804  0.000321  1.978032  0.0  -0.848017  0.000171  1.948831  0.0  -0.621487  -0.813388  0.000501  1.999841  0.001
O  O67  1  0.35867699  0.09256487  0.74982099  1  -0.879545  0.000274  1.813154  0.0  -0.827822  0.000321  1.978069  0.0  -0.848032  0.000171  1.948838  0.0  -0.621524  -0.813406  0.000501  1.99989  0.001
