# generated using pymatgen
data_ZnH12C20(N3O2)2
_symmetry_space_group_name_H-M   'P 1'
_cell_length_a   9.20199694
_cell_length_b   10.19240418
_cell_length_c   12.64374854
_cell_angle_alpha   90.78138748
_cell_angle_beta   88.19139632
_cell_angle_gamma   76.05932142
_symmetry_Int_Tables_number   1
_chemical_formula_structural   ZnH12C20(N3O2)2
_chemical_formula_sum   'Zn2 H24 C40 N12 O8'
_cell_volume   1150.08518990
_cell_formula_units_Z   2
loop_
 _symmetry_equiv_pos_site_id
 _symmetry_equiv_pos_as_xyz
  1  'x, y, z'
loop_
 _atom_site_type_symbol
 _atom_site_label
 _atom_site_symmetry_multiplicity
 _atom_site_fract_x
 _atom_site_fract_y
 _atom_site_fract_z
 _atom_site_occupancy
 _atom_site_hle17_bader_spin_density
 _atom_site_hle17_ddec_charge
 _atom_site_hle17_ddec_spin_density
 _atom_site_hle17_ddec_sum_bond_order
 _atom_site_hle17_magmom
 _atom_site_hse06_10hf_bader_spin_density
 _atom_site_hse06_10hf_ddec_charge
 _atom_site_hse06_10hf_ddec_spin_density
 _atom_site_hse06_10hf_ddec_sum_bond_order
 _atom_site_hse06_10hf_magmom
 _atom_site_hse06_bader_spin_density
 _atom_site_hse06_ddec_charge
 _atom_site_hse06_ddec_spin_density
 _atom_site_hse06_ddec_sum_bond_order
 _atom_site_hse06_magmom
 _atom_site_pbe_bader_spin_density
 _atom_site_pbe_cm5_charge
 _atom_site_pbe_ddec_charge
 _atom_site_pbe_ddec_spin_density
 _atom_site_pbe_ddec_sum_bond_order
 _atom_site_pbe_magmom
Zn  Zn0  1  0.14347121  0.62302263  0.53222494  1  0  1.030422  0  1.834576  0  0  0.848963  0  2.289613  0  0  0.899951  0  2.233543  0  0  0.681359  0.810752  0  2.330133  0
Zn  Zn1  1  0.85652491  0.37697673  0.46777379  1  0  1.030408  0  1.834618  0  0  0.848936  0  2.289675  0  0  0.899927  0  2.233598  0  0  0.681332  0.810724  0  2.330193  0
H  H2  1  0.10328253  0.09087326  0.55276462  1  0  0.125256  0  0.963657  0  0  0.129865  0  1.035277  0  0  0.134844  0  1.029976  0  0  0.10641  0.126206  0  1.039287  0
H  H3  1  0.89672597  0.90911988  0.44723050  1  0  0.125177  0  0.963676  0  0  0.129765  0  1.035329  0  0  0.134744  0  1.030028  0  0  0.106386  0.126107  0  1.039339  0
H  H4  1  0.14984205  0.46851390  0.73874325  1  0  0.083431  0  0.941177  0  0  0.092786  0  1.000903  0  0  0.094596  0  0.999852  0  0  0.120094  0.09128  0  1.001962  0
H  H5  1  0.85015085  0.53148552  0.26125797  1  0  0.083418  0  0.94115  0  0  0.092784  0  1.000849  0  0  0.094568  0  0.999845  0  0  0.120107  0.091305  0  1.001881  0
H  H6  1  0.58506172  0.43392708  0.26077514  1  0  0.132707  0  0.95675  0  0  0.134628  0  1.027731  0  0  0.139307  0  1.024015  0  0  0.114808  0.131116  0  1.030802  0
H  H7  1  0.41494077  0.56607326  0.73922732  1  0  0.132709  0  0.956809  0  0  0.13461  0  1.027805  0  0  0.139286  0  1.024097  0  0  0.114797  0.1311  0  1.03088  0
H  H8  1  0.11785530  0.78237110  0.32977264  1  0  0.097717  0  0.925318  0  0  0.106739  0  0.983164  0  0  0.109449  0  0.981077  0  0  0.124365  0.104657  0  0.984717  0
H  H9  1  0.88213938  0.21762524  0.67022456  1  0  0.09772  0  0.925234  0  0  0.106711  0  0.983123  0  0  0.109421  0  0.981035  0  0  0.124354  0.104629  0  0.984679  0
H  H10  1  0.47342755  0.26352668  0.62310826  1  0  0.091516  0  0.983884  0  0  0.097957  0  1.053752  0  0  0.100612  0  1.053218  0  0  0.096179  0.09604  0  1.054153  0
H  H11  1  0.52656891  0.73647571  0.37689125  1  0  0.091489  0  0.983921  0  0  0.097936  0  1.053777  0  0  0.100594  0  1.053239  0  0  0.096164  0.096019  0  1.054183  0
H  H12  1  0.26629219  0.79266269  0.15981661  1  0  0.116673  0  0.936878  0  0  0.123912  0  0.997042  0  0  0.12774  0  0.995141  0  0  0.114619  0.121143  0  0.998507  0
H  H13  1  0.73370718  0.20733263  0.84018358  1  0  0.116679  0  0.936818  0  0  0.123956  0  0.996932  0  0  0.127786  0  0.995028  0  0  0.114635  0.121189  0  0.998405  0
H  H14  1  0.85751933  0.80832477  0.62877545  1  0  0.092908  0  0.933674  0  0  0.101522  0  0.995527  0  0  0.103356  0  0.994672  0  0  0.124104  0.100044  0  0.996258  0
H  H15  1  0.14248135  0.19168266  0.37122707  1  0  0.092881  0  0.933656  0  0  0.101501  0  0.995505  0  0  0.103328  0  0.994648  0  0  0.124098  0.100023  0  0.996232  0
H  H16  1  0.62772569  0.03512577  0.66690301  1  0  0.082107  0  0.953145  0  0  0.094233  0  1.010897  0  0  0.096863  0  1.010948  0  0  0.095685  0.092486  0  1.010689  0
H  H17  1  0.37227793  0.96487859  0.33309861  1  0  0.082061  0  0.953168  0  0  0.094166  0  1.01095  0  0  0.096793  0  1.011001  0  0  0.095676  0.092418  0  1.010738  0
H  H18  1  0.51640955  0.83318803  0.64862259  1  0  0.091874  0  0.959676  0  0  0.10037  0  1.026377  0  0  0.103652  0  1.023983  0  0  0.100027  0.097879  0  1.028252  0
H  H19  1  0.48360419  0.16681009  0.35137155  1  0  0.09187  0  0.959655  0  0  0.100377  0  1.026346  0  0  0.10366  0  1.023945  0  0  0.100018  0.097892  0  1.028216  0
H  H20  1  0.42665698  0.44090482  0.42304236  1  0  0.105568  0  0.94416  0  0  0.110982  0  1.008124  0  0  0.114174  0  1.0053  0  0  0.123232  0.108513  0  1.010384  0
H  H21  1  0.57333966  0.55909251  0.57695635  1  0  0.105553  0  0.944075  0  0  0.110978  0  1.008021  0  0  0.114172  0  1.005194  0  0  0.123217  0.108506  0  1.01028  0
H  H22  1  0.97966487  0.45582149  0.89540779  1  0  0.112041  0  0.950097  0  0  0.115812  0  1.018097  0  0  0.11967  0  1.016053  0  0  0.110598  0.113018  0  1.019736  0
H  H23  1  0.02032900  0.54418700  0.10459419  1  0  0.111983  0  0.950075  0  0  0.115785  0  1.018058  0  0  0.119645  0  1.01601  0  0  0.110593  0.112986  0  1.019701  0
H  H24  1  0.67478256  0.81281337  0.78286182  1  0  0.115642  0  0.961471  0  0  0.120521  0  1.030162  0  0  0.124194  0  1.027892  0  0  0.11394  0.117846  0  1.031872  0
H  H25  1  0.32521882  0.18720013  0.21714385  1  0  0.115625  0  0.961541  0  0  0.120468  0  1.030274  0  0  0.124134  0  1.028001  0  0  0.113909  0.117795  0  1.031982  0
C  C26  1  0.24423469  0.82844404  0.58255853  1  0  0.61467  0  3.943602  0  0  0.569118  0  4.229055  0  0  0.602908  0  4.22398  0  0  0.187968  0.546229  0  4.231248  0
C  C27  1  0.75577196  0.17154815  0.41743982  1  0  0.614688  0  3.943871  0  0  0.569118  0  4.22933  0  0  0.602907  0  4.224253  0  0  0.187945  0.54622  0  4.231535  0
C  C28  1  0.21729445  0.07954875  0.57933207  1  0  -0.078423  0  3.682437  0  0  -0.114685  0  3.926568  0  0  -0.111325  0  3.944179  0  0  -0.080726  -0.116918  0  3.915507  0
C  C29  1  0.78270894  0.92044347  0.42066640  1  0  -0.078286  0  3.682591  0  0  -0.114517  0  3.926738  0  0  -0.111153  0  3.944346  0  0  -0.080678  -0.116746  0  3.915671  0
C  C30  1  0.04286755  0.54180787  0.75119246  1  0  0.1543  0  3.675394  0  0  0.121652  0  3.928982  0  0  0.128503  0  3.947021  0  0  0.058016  0.117121  0  3.916926  0
C  C31  1  0.95712700  0.45819354  0.24880791  1  0  0.154223  0  3.67538  0  0  0.121587  0  3.92898  0  0  0.128452  0  3.947011  0  0  0.05797  0.117033  0  3.916925  0
C  C32  1  0.18561921  0.33067873  0.56570379  1  0  0.651542  0  3.913407  0  0  0.596842  0  4.211755  0  0  0.632385  0  4.202834  0  0  0.20877  0.572408  0  4.217246  0
C  C33  1  0.81437632  0.66931861  0.43429417  1  0  0.651463  0  3.913649  0  0  0.596733  0  4.212067  0  0  0.632272  0  4.203134  0  0  0.208751  0.572297  0  4.217566  0
C  C34  1  0.48266173  0.51338886  0.27111075  1  0  -0.121368  0  3.65582  0  0  -0.147568  0  3.915489  0  0  -0.154014  0  3.935014  0  0  -0.0715  -0.143663  0  3.903017  0
C  C35  1  0.51733607  0.48660850  0.72889109  1  0  -0.121361  0  3.655944  0  0  -0.147536  0  3.915604  0  0  -0.15398  0  3.935129  0  0  -0.071489  -0.143635  0  3.903125  0
C  C36  1  0.43832582  0.61452889  0.19669928  1  0  0.025119  0  3.781423  0  0  0.033318  0  4.022347  0  0  0.033792  0  4.047964  0  0  0.005037  0.033432  0  4.004925  0
C  C37  1  0.56167278  0.38546946  0.80330094  1  0  0.025136  0  3.781475  0  0  0.033294  0  4.022496  0  0  0.033766  0  4.048116  0  0  0.005065  0.033417  0  4.005052  0
C  C38  1  0.22226125  0.70812139  0.30989256  1  0  0.129332  0  3.682041  0  0  0.102232  0  3.929155  0  0  0.107747  0  3.949037  0  0  0.053414  0.098687  0  3.915595  0
C  C39  1  0.77773701  0.29187393  0.69010688  1  0  0.129396  0  3.68212  0  0  0.102313  0  3.929239  0  0  0.107829  0  3.949122  0  0  0.053391  0.098771  0  3.915684  0
C  C40  1  0.30427355  0.95063541  0.60064834  1  0  -0.060998  0  3.766784  0  0  -0.032598  0  3.993293  0  0  -0.042553  0  4.017211  0  0  -0.020137  -0.026457  0  3.977611  0
C  C41  1  0.69573401  0.04935782  0.39935393  1  0  -0.061057  0  3.766837  0  0  -0.032642  0  3.993353  0  0  -0.042598  0  4.017273  0  0  -0.020121  -0.026505  0  3.977678  0
C  C42  1  0.42678035  0.17521855  0.61948039  1  0  -0.054352  0  3.730519  0  0  -0.083103  0  3.981623  0  0  -0.080123  0  4.001283  0  0  -0.086487  -0.084125  0  3.967643  0
C  C43  1  0.57321496  0.82478383  0.38051679  1  0  -0.054429  0  3.730298  0  0  -0.083155  0  3.981411  0  0  -0.080173  0  4.001063  0  0  -0.086529  -0.084185  0  3.967439  0
C  C44  1  0.81289652  0.63300281  0.85021617  1  0  0.042242  0  3.769438  0  0  0.05403  0  3.999035  0  0  0.055318  0  4.024315  0  0  0.012176  0.053511  0  3.981814  0
C  C45  1  0.18710138  0.36700261  0.14978487  1  0  0.042065  0  3.76962  0  0  0.053927  0  3.999185  0  0  0.055212  0  4.024466  0  0  0.012143  0.053403  0  3.981974  0
C  C46  1  0.30421352  0.71326060  0.21643872  1  0  -0.137423  0  3.704324  0  0  -0.159371  0  3.957479  0  0  -0.166804  0  3.979736  0  0  -0.075046  -0.154551  0  3.94236  0
C  C47  1  0.69578471  0.28673470  0.78355914  1  0  -0.137436  0  3.7044  0  0  -0.159396  0  3.957541  0  0  -0.166832  0  3.9798  0  0  -0.075027  -0.154581  0  3.942428  0
C  C48  1  0.87921750  0.73235884  0.68997732  1  0  0.13956  0  3.667931  0  0  0.111484  0  3.912187  0  0  0.117406  0  3.932054  0  0  0.058236  0.107567  0  3.898755  0
C  C49  1  0.12078258  0.26764656  0.31002365  1  0  0.139569  0  3.667957  0  0  0.111487  0  3.912189  0  0  0.117417  0  3.93205  0  0  0.058213  0.107571  0  3.898753  0
C  C50  1  0.51223694  0.04711590  0.64334691  1  0  -0.086734  0  3.789622  0  0  -0.097251  0  4.045312  0  0  -0.103051  0  4.068299  0  0  -0.097491  -0.093565  0  4.02916  0
C  C51  1  0.48776581  0.95288744  0.35665317  1  0  -0.086622  0  3.789827  0  0  -0.097123  0  4.045534  0  0  -0.102919  0  4.068518  0  0  -0.097425  -0.093436  0  4.02938  0
C  C52  1  0.27844958  0.19233074  0.58873013  1  0  -0.092026  0  3.783379  0  0  -0.064297  0  4.017939  0  0  -0.075182  0  4.042162  0  0  -0.028373  -0.057338  0  4.001875  0
C  C53  1  0.72155656  0.80766747  0.41126586  1  0  -0.091939  0  3.78324  0  0  -0.064265  0  4.017889  0  0  -0.075144  0  4.042103  0  0  -0.028367  -0.057303  0  4.001822  0
C  C54  1  0.53325235  0.61801814  0.10143607  1  0  0.259848  0  3.720561  0  0  0.248338  0  3.983214  0  0  0.253962  0  4.001009  0  0  0.246952  0.244149  0  3.971407  0
C  C55  1  0.46674784  0.38197816  0.89856330  1  0  0.259852  0  3.720449  0  0  0.248303  0  3.983174  0  0  0.253927  0  4.000971  0  0  0.246951  0.244108  0  3.971366  0
C  C56  1  0.45127498  0.93507519  0.63377535  1  0  -0.051671  0  3.727936  0  0  -0.079057  0  3.975635  0  0  -0.076327  0  3.994975  0  0  -0.079885  -0.079946  0  3.962042  0
C  C57  1  0.54872905  0.06492308  0.36622389  1  0  -0.051631  0  3.727948  0  0  -0.079039  0  3.975652  0  0  -0.076306  0  3.994991  0  0  -0.079863  -0.079929  0  3.96205  0
C  C58  1  0.39403254  0.51666776  0.36281178  1  0  0.143361  0  3.641815  0  0  0.113097  0  3.895135  0  0  0.119688  0  3.912015  0  0  0.058276  0.108721  0  3.884051  0
C  C59  1  0.60596660  0.48332858  0.63719000  1  0  0.143428  0  3.64177  0  0  0.113186  0  3.895026  0  0  0.119779  0  3.911901  0  0  0.058319  0.10881  0  3.883941  0
C  C60  1  0.94895595  0.53548061  0.83810652  1  0  -0.128448  0  3.688688  0  0  -0.152285  0  3.944661  0  0  -0.159366  0  3.965737  0  0  -0.074188  -0.147701  0  3.930545  0
C  C61  1  0.05104108  0.46452379  0.16189297  1  0  -0.128306  0  3.688634  0  0  -0.152206  0  3.9446  0  0  -0.159284  0  3.965666  0  0  -0.074197  -0.147611  0  3.930496  0
C  C62  1  0.70883311  0.62715113  0.93987785  1  0  0.254566  0  3.732779  0  0  0.245715  0  3.990544  0  0  0.251292  0  4.007631  0  0  0.247647  0.241562  0  3.979257  0
C  C63  1  0.29116484  0.37285431  0.06012556  1  0  0.254701  0  3.732762  0  0  0.245723  0  3.990658  0  0  0.2513  0  4.007748  0  0  0.247608  0.241566  0  3.979377  0
C  C64  1  0.77885678  0.73478898  0.77500979  1  0  -0.136103  0  3.684361  0  0  -0.156072  0  3.929935  0  0  -0.163767  0  3.952409  0  0  -0.072303  -0.15107  0  3.914825  0
C  C65  1  0.22114253  0.26521945  0.22499120  1  0  -0.13603  0  3.684519  0  0  -0.155975  0  3.930045  0  0  -0.163658  0  3.952511  0  0  -0.072226  -0.150969  0  3.914935  0
N  N66  1  0.00808159  0.63666120  0.67737514  1  0  -0.292415  0  3.235875  0  0  -0.215468  0  3.495016  0  0  -0.233233  0  3.511349  0  0  -0.303726  -0.203489  0  3.484119  0
N  N67  1  0.99191488  0.36334120  0.32262516  1  0  -0.292366  0  3.235954  0  0  -0.215417  0  3.495062  0  0  -0.233178  0  3.511383  0  0  -0.303671  -0.203439  0  3.484179  0
N  N68  1  0.26679425  0.61219435  0.38227423  1  0  -0.291844  0  3.236519  0  0  -0.21639  0  3.495513  0  0  -0.234349  0  3.513529  0  0  -0.307042  -0.204225  0  3.483279  0
N  N69  1  0.73320152  0.38780197  0.61772293  1  0  -0.291971  0  3.236615  0  0  -0.216523  0  3.495609  0  0  -0.234483  0  3.513619  0  0  -0.30708  -0.204362  0  3.483375  0
N  N70  1  0.74551744  0.51935095  0.00345034  1  0  -0.161041  0  2.961043  0  0  -0.144293  0  3.240086  0  0  -0.146301  0  3.249841  0  0  -0.147344  -0.142843  0  3.233702  0
N  N71  1  0.25448176  0.48065342  0.99654828  1  0  -0.161078  0  2.961038  0  0  -0.14428  0  3.240105  0  0  -0.146289  0  3.249861  0  0  -0.147339  -0.142827  0  3.233715  0
N  N72  1  0.65608747  0.51463410  0.08580162  1  0  -0.152831  0  2.948068  0  0  -0.136523  0  3.227264  0  0  -0.138889  0  3.237318  0  0  -0.145925  -0.134783  0  3.220648  0
N  N73  1  0.34391303  0.48536523  0.91419774  1  0  -0.152881  0  2.948077  0  0  -0.13656  0  3.227277  0  0  -0.138927  0  3.237334  0  0  -0.145947  -0.13482  0  3.220659  0
N  N74  1  0.49175756  0.72172794  0.03416636  1  0  -0.146546  0  2.915983  0  0  -0.132344  0  3.190023  0  0  -0.133311  0  3.196921  0  0  -0.143144  -0.131718  0  3.185751  0
N  N75  1  0.50824192  0.27827143  0.96583621  1  0  -0.146416  0  2.915901  0  0  -0.132176  0  3.189927  0  0  -0.133143  0  3.196829  0  0  -0.143069  -0.131542  0  3.185653  0
N  N76  1  0.58138276  0.72629587  0.95171427  1  0  -0.14178  0  2.918813  0  0  -0.126184  0  3.189792  0  0  -0.127153  0  3.197037  0  0  -0.141184  -0.125559  0  3.185253  0
N  N77  1  0.41861247  0.27370761  0.04829082  1  0  -0.141912  0  2.918878  0  0  -0.126293  0  3.189889  0  0  -0.127265  0  3.197137  0  0  -0.14121  -0.125666  0  3.185353  0
O  O78  1  0.25411600  0.42588594  0.55817947  1  0  -0.631939  0  2.075927  0  0  -0.562372  0  2.344308  0  0  -0.589874  0  2.330555  0  0  -0.312163  -0.542479  0  2.354046  0
O  O79  1  0.74587708  0.57411243  0.44181779  1  0  -0.631977  0  2.075981  0  0  -0.562358  0  2.344302  0  0  -0.589888  0  2.330622  0  0  -0.312227  -0.542443  0  2.353987  0
O  O80  1  0.04550997  0.34676220  0.55898584  1  0  -0.657632  0  2.14408  0  0  -0.599881  0  2.435174  0  0  -0.626523  0  2.420371  0  0  -0.324938  -0.580316  0  2.444187  0
O  O81  1  0.95448394  0.65323316  0.44101376  1  0  -0.657594  0  2.144282  0  0  -0.599818  0  2.43537  0  0  -0.626483  0  2.420633  0  0  -0.324912  -0.580257  0  2.444391  0
O  O82  1  0.11694625  0.84280192  0.54050191  1  0  -0.632939  0  1.989464  0  0  -0.5757  0  2.235083  0  0  -0.603504  0  2.225174  0  0  -0.325197  -0.555319  0  2.240522  0
O  O83  1  0.88306751  0.15718820  0.45949855  1  0  -0.632964  0  1.989403  0  0  -0.575752  0  2.235057  0  0  -0.603575  0  2.225177  0  0  -0.325225  -0.555362  0  2.240494  0
O  O84  1  0.32282068  0.71210850  0.60610311  1  0  -0.635846  0  1.964395  0  0  -0.578643  0  2.205385  0  0  -0.605704  0  2.196391  0  0  -0.325087  -0.558285  0  2.211267  0
O  O85  1  0.67719466  0.28787958  0.39389571  1  0  -0.635884  0  1.964628  0  0  -0.578644  0  2.205601  0  0  -0.605698  0  2.196603  0  0  -0.32507  -0.558286  0  2.211489  0
