# generated using pymatgen
data_CoH12C8(NO4)2
_symmetry_space_group_name_H-M   'P 1'
_cell_length_a   7.64512701
_cell_length_b   7.48450197
_cell_length_c   9.34625893
_cell_angle_alpha   89.09279053
_cell_angle_beta   93.29374444
_cell_angle_gamma   109.55268716
_symmetry_Int_Tables_number   1
_chemical_formula_structural   CoH12C8(NO4)2
_chemical_formula_sum   'Co2 H24 C16 N4 O16'
_cell_volume   503.11759836
_cell_formula_units_Z   2
loop_
 _symmetry_equiv_pos_site_id
 _symmetry_equiv_pos_as_xyz
  1  'x, y, z'
loop_
 _atom_site_type_symbol
 _atom_site_label
 _atom_site_symmetry_multiplicity
 _atom_site_fract_x
 _atom_site_fract_y
 _atom_site_fract_z
 _atom_site_occupancy
 _atom_site_hse06_10hf_ddec_charge
 _atom_site_hse06_10hf_ddec_spin_density
 _atom_site_hse06_10hf_ddec_sum_bond_order
 _atom_site_hse06_10hf_magmom
 _atom_site_hse06_ddec_charge
 _atom_site_hse06_ddec_spin_density
 _atom_site_hse06_ddec_sum_bond_order
 _atom_site_hse06_magmom
 _atom_site_pbe_cm5_charge
 _atom_site_pbe_ddec_charge
 _atom_site_pbe_ddec_spin_density
 _atom_site_pbe_ddec_sum_bond_order
 _atom_site_pbe_magmom
Co  Co0  1  0.00000159  0.50000065  0.50000002  1  1.019067  -1.050821  2.482638  -0.957  1.107283  -1.060973  2.399625  -0.957  0.58438  0.944399  -1.033297  2.559026  -0.953
Co  Co1  1  0.49999952  0.50000086  0.99999907  1  1.161717  2.912941  2.25063  2.693  1.232823  2.957498  2.176512  2.757  0.654062  1.103317  2.860966  2.305397  2.629
H  H2  1  0.86389016  0.36976755  0.90512071  1  0.142408  -0.000132  0.990886  0.0  0.145348  -0.00018  0.989232  0.0  0.125433  0.140342  -0.000117  0.992029  0.0
H  H3  1  0.64502410  0.63722195  0.42429419  1  0.139354  4.4e-05  1.013298  0.0  0.142455  8.4e-05  1.011343  0.0  0.122688  0.137238  2.6e-05  1.014611  0.0
H  H4  1  0.13610888  0.63023066  0.09487715  1  0.142413  -0.000132  0.990862  0.0  0.145355  -0.00018  0.989207  0.0  0.125436  0.140347  -0.000117  0.992009  0.0
H  H5  1  0.35497683  0.36277769  0.57570692  1  0.139341  4.4e-05  1.013241  0.0  0.142441  8.4e-05  1.011293  0.0  0.122685  0.137225  2.6e-05  1.014554  0.0
H  H6  1  0.84912576  0.25060063  0.74062601  1  0.115004  0.000392  1.037605  0.0  0.116942  0.000295  1.036267  0.0  0.118403  0.113692  0.000485  1.038342  0.001
H  H7  1  0.64794429  0.75355568  0.25751838  1  0.113341  -0.000454  1.037897  0.0  0.115853  -0.000401  1.035861  0.0  0.116114  0.111618  -0.000489  1.039335  0.0
H  H8  1  0.15087547  0.74940041  0.25937082  1  0.114965  0.000392  1.037653  0.0  0.116903  0.000295  1.036316  0.0  0.118392  0.113666  0.000485  1.038377  0.001
H  H9  1  0.35205667  0.24644396  0.74248381  1  0.113354  -0.000454  1.037907  0.0  0.11587  -0.000401  1.035866  0.0  0.116122  0.111625  -0.000489  1.039356  0.0
H  H10  1  0.84346480  0.17264143  0.10604521  1  0.13222  9e-05  0.972952  0.0  0.135161  4.6e-05  0.971119  0.0  0.123486  0.129898  0.000118  0.974721  0.0
H  H11  1  0.66075318  0.83117433  0.62393392  1  0.128611  -3.3e-05  0.984077  0.0  0.131755  -3.7e-05  0.981998  0.0  0.121091  0.126059  5e-06  0.986054  0.0
H  H12  1  0.15653119  0.82735536  0.89395367  1  0.132269  9e-05  0.97296  0.0  0.135212  4.6e-05  0.971124  0.0  0.123493  0.129946  0.000118  0.974731  0.0
H  H13  1  0.33924643  0.16882530  0.37606717  1  0.128576  -3.3e-05  0.984093  0.0  0.131721  -3.7e-05  0.982014  0.0  0.121079  0.126022  5e-06  0.986069  0.0
H  H14  1  0.09070196  0.28358572  0.10889671  1  0.141947  -4.4e-05  1.004925  0.0  0.145846  -0.0001  1.002075  0.0  0.124971  0.139067  3.3e-05  1.007074  0.0
H  H15  1  0.41552967  0.71449917  0.60694005  1  0.143275  0.000106  1.00242  0.0  0.147035  8.4e-05  0.999645  0.0  0.126649  0.140595  3.5e-05  1.004469  0.0
H  H16  1  0.90929365  0.71641391  0.89110214  1  0.141962  -4.4e-05  1.004979  0.0  0.145861  -0.0001  1.002128  0.0  0.124979  0.139081  3.3e-05  1.007129  0.0
H  H17  1  0.58447044  0.28550188  0.39306211  1  0.143293  0.000106  1.002436  0.0  0.147053  8.4e-05  0.99966  0.0  0.126659  0.140612  3.5e-05  1.004478  0.0
H  H18  1  0.04001241  0.83178678  0.58947602  1  0.402978  0.000369  0.916799  0.001  0.414708  0.000391  0.899993  0.001  0.304945  0.395021  -0.000294  0.926408  -0.001
H  H19  1  0.44721805  0.14799807  0.08388327  1  0.39849  8e-05  0.931354  0.0  0.410139  -3e-05  0.914422  0.0  0.295115  0.390443  0.000184  0.943052  0.0
H  H20  1  0.95998624  0.16821426  0.41052182  1  0.402972  0.000369  0.916797  0.001  0.414702  0.000391  0.899993  0.001  0.304945  0.395014  -0.000295  0.926393  -0.001
H  H21  1  0.55278029  0.85200156  0.91611885  1  0.398512  8e-05  0.931321  0.0  0.41016  -3e-05  0.91439  0.0  0.295126  0.390467  0.000184  0.943016  0.0
H  H22  1  0.03229652  0.84481562  0.41922967  1  0.38557  0.000144  0.953596  0.0  0.39671  0.000146  0.937763  0.0  0.296899  0.377614  -0.000103  0.964718  0.0
H  H23  1  0.45363270  0.13927911  0.91455065  1  0.384638  0.000244  0.958982  0.0  0.395578  9.8e-05  0.943125  0.0  0.290768  0.376786  0.000385  0.970329  0.001
H  H24  1  0.96770040  0.15518401  0.58076921  1  0.385544  0.000144  0.953623  0.0  0.396683  0.000146  0.937794  0.0  0.296904  0.377592  -0.000103  0.96474  0.0
H  H25  1  0.54636564  0.86072053  0.08545148  1  0.384719  0.000244  0.958894  0.0  0.395662  9.8e-05  0.943031  0.0  0.290808  0.376866  0.000385  0.970244  0.001
C  C26  1  0.12232369  0.45347191  0.80227436  1  0.649886  0.003062  4.104067  0.004  0.690146  0.001754  4.094353  0.002  0.223075  0.620097  0.005666  4.110491  0.009
C  C27  1  0.38162511  0.54321466  0.30693024  1  0.646782  -0.004115  4.154732  -0.007  0.683018  -0.003164  4.145027  -0.006  0.213399  0.620776  -0.005224  4.160889  -0.009
C  C28  1  0.87767412  0.54652630  0.19772562  1  0.649849  0.003062  4.104208  0.004  0.69011  0.001754  4.094496  0.002  0.223078  0.620059  0.005665  4.110628  0.009
C  C29  1  0.61837612  0.45678213  0.69306876  1  0.646774  -0.004115  4.154793  -0.007  0.683016  -0.003164  4.145083  -0.006  0.213394  0.620767  -0.005223  4.160949  -0.009
C  C30  1  0.93771126  0.30302695  0.83723082  1  -0.231814  0.001419  3.86292  0.002  -0.232386  0.000991  3.867874  0.001  -0.061777  -0.231327  0.001536  3.859883  0.002
C  C31  1  0.56507322  0.69998829  0.34996086  1  -0.235807  -0.000253  3.861892  0.0  -0.236123  -0.000297  3.86674  0.0  -0.067768  -0.235609  -0.000206  3.859085  0.0
C  C32  1  0.06228566  0.69697268  0.16276806  1  -0.231807  0.001419  3.862812  0.002  -0.232381  0.000991  3.867765  0.001  -0.061777  -0.231329  0.001536  3.859768  0.002
C  C33  1  0.43492816  0.30000851  0.65004242  1  -0.235832  -0.000253  3.861977  0.0  -0.236153  -0.000297  3.866823  0.0  -0.067778  -0.235631  -0.000206  3.859167  0.0
C  C34  1  0.99931178  0.00676952  0.84638024  1  0.488827  0.000359  4.049752  0.0  0.518742  0.00022  4.048243  0.0  0.257756  0.468742  0.000348  4.050019  0.0
C  C35  1  0.50238487  0.99532865  0.34694316  1  0.482938  0.000144  4.0633  0.0  0.513496  7.4e-05  4.060882  0.0  0.254594  0.462276  0.000144  4.0644  0.0
C  C36  1  0.00068776  0.99323010  0.15361870  1  0.488911  0.000359  4.049745  0.0  0.518826  0.00022  4.048234  0.0  0.257782  0.46882  0.000348  4.050017  0.0
C  C37  1  0.49761652  0.00467240  0.65305796  1  0.482862  0.000143  4.063374  0.0  0.513421  7.4e-05  4.060954  0.0  0.254605  0.462201  0.000144  4.064476  0.0
C  C38  1  0.97343101  0.15715724  0.07259582  1  -0.197925  0.000141  3.885984  0.0  -0.19864  3.2e-05  3.892158  0.0  -0.049936  -0.197254  0.000298  3.881891  0.0
C  C39  1  0.52925456  0.84362971  0.57849661  1  -0.19725  3e-05  3.891707  0.0  -0.197814  -1e-05  3.897347  0.0  -0.049604  -0.196733  0.000115  3.888068  0.0
C  C40  1  0.02656591  0.84284239  0.92740306  1  -0.197984  0.000141  3.886046  0.0  -0.198699  3.1e-05  3.892218  0.0  -0.049937  -0.197315  0.000298  3.881956  0.0
C  C41  1  0.47074899  0.15636993  0.42150456  1  -0.197292  3e-05  3.891689  0.0  -0.197857  -1e-05  3.897331  0.0  -0.0496  -0.196767  0.000115  3.888029  0.0
N  N42  1  0.96644839  0.14477540  0.91681044  1  -0.05854  -4e-06  3.672668  0.0  -0.077581  -6e-05  3.694021  0.0  -0.262039  -0.045916  6.4e-05  3.658032  0.0
N  N43  1  0.53512885  0.85690806  0.42328375  1  -0.057325  6.9e-05  3.683416  0.0  -0.076305  1.1e-05  3.704124  0.0  -0.264028  -0.044777  0.00037  3.669333  0.0
N  N44  1  0.03354933  0.85522281  0.08318740  1  -0.058505  -4e-06  3.672577  0.0  -0.077546  -6e-05  3.693931  0.0  -0.262061  -0.045886  6.4e-05  3.657945  0.0
N  N45  1  0.46487123  0.14309299  0.57671734  1  -0.057253  6.9e-05  3.683411  0.0  -0.07623  1.1e-05  3.704119  0.0  -0.264026  -0.044703  0.00037  3.669324  0.0
O  O46  1  0.14426282  0.53083041  0.67870854  1  -0.553034  0.008082  2.443516  0.016  -0.596562  0.00628  2.432198  0.013  -0.299743  -0.52102  0.004387  2.452151  0.008
O  O47  1  0.36800276  0.45951500  0.18724495  1  -0.605875  0.025625  2.39141  0.039  -0.640046  0.020994  2.378455  0.031  -0.317719  -0.57983  0.029613  2.39928  0.046
O  O48  1  0.85573849  0.46917063  0.32129044  1  -0.553015  0.008082  2.443573  0.016  -0.596543  0.00628  2.432254  0.013  -0.299754  -0.521003  0.004388  2.452205  0.008
O  O49  1  0.63199983  0.54048605  0.81275299  1  -0.605897  0.025625  2.391472  0.039  -0.64007  0.020994  2.378513  0.031  -0.317727  -0.57985  0.029614  2.399342  0.046
O  O50  1  0.24656264  0.50058251  0.90299876  1  -0.613237  0.023705  2.382257  0.033  -0.647091  0.018661  2.368544  0.025  -0.315407  -0.586235  0.029512  2.389982  0.043
O  O51  1  0.25661716  0.49926641  0.39617850  1  -0.614442  -0.012672  2.339031  -0.015  -0.642959  -0.012004  2.324302  -0.014  -0.319425  -0.592215  -0.012553  2.349454  -0.015
O  O52  1  0.75343605  0.49941429  0.09700232  1  -0.613196  0.023704  2.382225  0.033  -0.647044  0.018661  2.368505  0.025  -0.315409  -0.586198  0.029511  2.389956  0.043
O  O53  1  0.74338172  0.50072329  0.60381942  1  -0.614407  -0.012672  2.338999  -0.015  -0.642925  -0.012004  2.324269  -0.014  -0.319402  -0.592192  -0.012554  2.349447  -0.015
O  O54  1  0.07572628  0.78172673  0.50209000  1  -0.759299  -0.002634  2.261193  -0.003  -0.792442  -0.002907  2.225295  -0.004  -0.559544  -0.731548  0.00311  2.28367  0.006
O  O55  1  0.41187284  0.20100606  0.99297006  1  -0.807088  0.024476  2.182  0.037  -0.832494  0.02031  2.145617  0.03  -0.581645  -0.787801  0.028384  2.206991  0.043
O  O56  1  0.92427418  0.21827573  0.49790894  1  -0.759246  -0.002634  2.261227  -0.003  -0.792389  -0.002907  2.225331  -0.004  -0.559562  -0.731496  0.003109  2.283688  0.006
O  O57  1  0.58812724  0.79899499  0.00703103  1  -0.807198  0.024477  2.181872  0.037  -0.832612  0.020311  2.145503  0.03  -0.581698  -0.78791  0.028384  2.206862  0.043
O  O58  1  0.00457467  0.00525803  0.71116446  1  -0.529244  0.000371  2.209209  0.0  -0.552711  0.000294  2.200092  0.0  -0.292904  -0.513906  -0.000149  2.215438  0.0
O  O59  1  0.49852388  0.99781927  0.21141843  1  -0.525787  0.000328  2.235076  0.0  -0.549838  0.000164  2.225934  0.0  -0.293055  -0.509945  0.000483  2.241647  0.001
O  O60  1  0.99542533  0.99474302  0.28883448  1  -0.529331  0.000371  2.209286  0.0  -0.552797  0.000294  2.200165  0.0  -0.292927  -0.513993  -0.000149  2.215518  0.0
O  O61  1  0.50147831  0.00218036  0.78858165  1  -0.525744  0.000328  2.235119  0.0  -0.549796  0.000164  2.225982  0.0  -0.293065  -0.5099  0.000483  2.241687  0.001
