# generated using pymatgen
data_ZnH16C16(NO3)2
_symmetry_space_group_name_H-M   'P 1'
_cell_length_a   7.49475821
_cell_length_b   9.64375773
_cell_length_c   11.83276391
_cell_angle_alpha   66.79776088
_cell_angle_beta   81.94383494
_cell_angle_gamma   86.18128131
_symmetry_Int_Tables_number   1
_chemical_formula_structural   ZnH16C16(NO3)2
_chemical_formula_sum   'Zn2 H32 C32 N4 O12'
_cell_volume   778.25342820
_cell_formula_units_Z   2
loop_
 _symmetry_equiv_pos_site_id
 _symmetry_equiv_pos_as_xyz
  1  'x, y, z'
loop_
 _atom_site_type_symbol
 _atom_site_label
 _atom_site_symmetry_multiplicity
 _atom_site_fract_x
 _atom_site_fract_y
 _atom_site_fract_z
 _atom_site_occupancy
 _atom_site_hle17_bader_spin_density
 _atom_site_hle17_ddec_charge
 _atom_site_hle17_ddec_spin_density
 _atom_site_hle17_ddec_sum_bond_order
 _atom_site_hle17_magmom
 _atom_site_hse06_10hf_bader_spin_density
 _atom_site_hse06_10hf_ddec_charge
 _atom_site_hse06_10hf_ddec_spin_density
 _atom_site_hse06_10hf_ddec_sum_bond_order
 _atom_site_hse06_10hf_magmom
 _atom_site_hse06_bader_spin_density
 _atom_site_hse06_ddec_charge
 _atom_site_hse06_ddec_spin_density
 _atom_site_hse06_ddec_sum_bond_order
 _atom_site_hse06_magmom
 _atom_site_pbe_bader_spin_density
 _atom_site_pbe_cm5_charge
 _atom_site_pbe_ddec_charge
 _atom_site_pbe_ddec_spin_density
 _atom_site_pbe_ddec_sum_bond_order
 _atom_site_pbe_magmom
Zn  Zn0  1  0.10860542  0.66537676  0.25947078  1  0  1.051647  0  1.792145  0  0  0.875256  0  2.235514  0  0  0.922777  0  2.182701  0  0  0.672997  0.842266  0  2.271582  0
Zn  Zn1  1  0.89139584  0.33462104  0.74052870  1  0  1.051695  0  1.792078  0  0  0.875308  0  2.235444  0  0  0.922829  0  2.182632  0  0  0.673013  0.842317  0  2.271505  0
H  H2  1  0.25562705  0.15197293  0.48232348  1  0  0.09559  0  0.956136  0  0  0.105779  0  1.020347  0  0  0.10884  0  1.018178  0  0  0.106778  0.104158  0  1.020957  0
H  H3  1  0.74437416  0.84802712  0.51767613  1  0  0.095624  0  0.956106  0  0  0.105789  0  1.020339  0  0  0.108847  0  1.018173  0  0  0.106769  0.104169  0  1.02095  0
H  H4  1  0.34210939  0.55057613  0.46865289  1  0  0.087326  0  0.947709  0  0  0.095887  0  1.012352  0  0  0.098635  0  1.009534  0  0  0.120649  0.09367  0  1.014824  0
H  H5  1  0.65789043  0.44942618  0.53134527  1  0  0.087338  0  0.94767  0  0  0.095896  0  1.012323  0  0  0.098643  0  1.009507  0  0  0.120649  0.093683  0  1.014793  0
H  H6  1  0.38808045  0.91625602  0.58652897  1  0  0.098227  0  0.979059  0  0  0.106487  0  1.046029  0  0  0.109028  0  1.044766  0  0  0.105788  0.104484  0  1.047205  0
H  H7  1  0.61191944  0.08374290  0.41347196  1  0  0.098159  0  0.97909  0  0  0.10642  0  1.046072  0  0  0.108962  0  1.044808  0  0  0.105775  0.104418  0  1.047247  0
H  H8  1  0.04799304  0.19689108  0.26237553  1  0  0.12531  0  0.958768  0  0  0.132661  0  1.021263  0  0  0.136291  0  1.020863  0  0  0.105451  0.13006  0  1.021884  0
H  H9  1  0.95201084  0.80311011  0.73762347  1  0  0.12531  0  0.958782  0  0  0.132652  0  1.021284  0  0  0.136285  0  1.020878  0  0  0.105451  0.130048  0  1.021905  0
H  H10  1  0.09885407  0.96105488  0.28389864  1  0  0.085775  0  0.959218  0  0  0.093798  0  1.024214  0  0  0.096655  0  1.021689  0  0  0.119529  0.091517  0  1.026431  0
H  H11  1  0.90114575  0.03894743  0.71609952  1  0  0.085799  0  0.959307  0  0  0.09382  0  1.024285  0  0  0.096677  0  1.021759  0  0  0.119546  0.091541  0  1.026496  0
H  H12  1  0.46145061  0.64705850  0.61113840  1  0  0.103492  0  0.960772  0  0  0.112453  0  1.022795  0  0  0.115044  0  1.023134  0  0  0.107323  0.110503  0  1.023001  0
H  H13  1  0.53854659  0.35294041  0.38886194  1  0  0.103493  0  0.960678  0  0  0.112452  0  1.022711  0  0  0.11504  0  1.023057  0  0  0.107308  0.1105  0  1.022917  0
H  H14  1  0.42422660  0.87657957  0.12300139  1  0  0.077856  0  0.946653  0  0  0.084116  0  1.015299  0  0  0.086697  0  1.013029  0  0  0.114229  0.082487  0  1.01595  0
H  H15  1  0.57577195  0.12341934  0.87699882  1  0  0.077888  0  0.946607  0  0  0.084114  0  1.015295  0  0  0.086694  0  1.013029  0  0  0.114234  0.08249  0  1.015947  0
H  H16  1  0.37676459  0.42180681  0.20566897  1  0  0.065326  0  0.988322  0  0  0.074504  0  1.05591  0  0  0.076221  0  1.054763  0  0  0.110886  0.073083  0  1.057189  0
H  H17  1  0.62323533  0.57819098  0.79433317  1  0  0.065363  0  0.988268  0  0  0.074544  0  1.055877  0  0  0.076262  0  1.054727  0  0  0.110888  0.07312  0  1.057157  0
H  H18  1  0.86913461  0.64285760  0.99875590  1  0  0.102972  0  0.943672  0  0  0.113101  0  1.00748  0  0  0.116363  0  1.004089  0  0  0.110193  0.110462  0  1.009987  0
H  H19  1  0.13086391  0.35714244  0.00124395  1  0  0.102969  0  0.943667  0  0  0.113102  0  1.007473  0  0  0.116363  0  1.004081  0  0  0.110192  0.110465  0  1.009973  0
H  H20  1  0.50489199  0.21306358  0.21710799  1  0  0.103725  0  0.973494  0  0  0.113392  0  1.036709  0  0  0.116248  0  1.037377  0  0  0.097767  0.11135  0  1.036457  0
H  H21  1  0.49510926  0.78693534  0.78289283  1  0  0.103773  0  0.973505  0  0  0.113441  0  1.036715  0  0  0.116297  0  1.037383  0  0  0.097797  0.111394  0  1.036474  0
H  H22  1  0.73235759  0.88343961  0.00647962  1  0  0.109336  0  0.95607  0  0  0.118883  0  1.015632  0  0  0.122259  0  1.014342  0  0  0.108179  0.115999  0  1.017445  0
H  H23  1  0.26764090  0.11656156  0.99351819  1  0  0.109341  0  0.956083  0  0  0.118889  0  1.015646  0  0  0.122262  0  1.014359  0  0  0.10818  0.116005  0  1.017459  0
H  H24  1  0.85509077  0.37205605  0.06509550  1  0  0.096225  0  0.950527  0  0  0.105203  0  1.018375  0  0  0.108351  0  1.014902  0  0  0.105738  0.102573  0  1.021393  0
H  H25  1  0.14490907  0.62794512  0.93490472  1  0  0.096195  0  0.950541  0  0  0.105169  0  1.018388  0  0  0.108318  0  1.014915  0  0  0.105721  0.102539  0  1.021405  0
H  H26  1  0.84695196  0.66437844  0.43473383  1  0  0.420327  0  0.884524  0  0  0.387278  0  0.953105  0  0  0.398237  0  0.937134  0  0  0.284923  0.379454  0  0.964477  0
H  H27  1  0.15304928  0.33562048  0.56526698  1  0  0.420284  0  0.884599  0  0  0.387263  0  0.953155  0  0  0.398225  0  0.937179  0  0  0.284899  0.379438  0  0.96453  0
H  H28  1  0.08851912  0.86371265  0.02673447  1  0  0.424885  0  0.883441  0  0  0.392536  0  0.949287  0  0  0.403353  0  0.933763  0  0  0.291869  0.384939  0  0.960163  0
H  H29  1  0.91148210  0.13628740  0.97326514  1  0  0.424867  0  0.883468  0  0  0.392515  0  0.949319  0  0  0.403333  0  0.933795  0  0  0.291863  0.384913  0  0.960204  0
H  H30  1  0.78459050  0.79286694  0.31057648  1  0  0.417226  0  0.888709  0  0  0.38318  0  0.95831  0  0  0.394963  0  0.941321  0  0  0.279156  0.375074  0  0.969727  0
H  H31  1  0.21541076  0.20713086  0.68942384  1  0  0.41722  0  0.888709  0  0  0.383185  0  0.958295  0  0  0.394968  0  0.941306  0  0  0.279159  0.375079  0  0.969712  0
H  H32  1  0.00133050  0.94575629  0.12090140  1  0  0.416144  0  0.901645  0  0  0.38077  0  0.972785  0  0  0.393133  0  0.954875  0  0  0.285627  0.371996  0  0.985468  0
H  H33  1  0.99867074  0.05424263  0.87909856  1  0  0.416137  0  0.90165  0  0  0.380763  0  0.972788  0  0  0.393126  0  0.954878  0  0  0.285631  0.371992  0  0.985467  0
C  C34  1  0.20077563  0.11664771  0.41709959  1  0  -0.038654  0  3.736862  0  0  -0.064028  0  3.986399  0  0  -0.059549  0  4.005515  0  0  -0.072848  -0.066572  0  3.972065  0
C  C35  1  0.79922422  0.88335346  0.58289979  1  0  -0.038771  0  3.736864  0  0  -0.0641  0  3.986419  0  0  -0.059618  0  4.005533  0  0  -0.072874  -0.066645  0  3.972083  0
C  C36  1  0.24051210  0.96111527  0.43210032  1  0  0.030692  0  3.80905  0  0  0.053063  0  4.042664  0  0  0.047398  0  4.066872  0  0  -0.00674  0.056615  0  4.026225  0
C  C37  1  0.75948641  0.03888477  0.56789868  1  0  0.030737  0  3.809013  0  0  0.053005  0  4.04277  0  0  0.047337  0  4.066979  0  0  -0.006751  0.056553  0  4.026341  0
C  C38  1  0.31808382  0.66645092  0.46057349  1  0  0.150315  0  3.651582  0  0  0.114658  0  3.902313  0  0  0.123491  0  3.917596  0  0  0.057703  0.109398  0  3.891683  0
C  C39  1  0.68191469  0.33354912  0.53942552  1  0  0.15028  0  3.651631  0  0  0.114617  0  3.902371  0  0  0.12345  0  3.917654  0  0  0.05767  0.109349  0  3.891749  0
C  C40  1  0.34283846  0.86926192  0.52554656  1  0  -0.046577  0  3.672061  0  0  -0.073587  0  3.91886  0  0  -0.070587  0  3.937695  0  0  -0.06154  -0.075189  0  3.906268  0
C  C41  1  0.65716004  0.13073924  0.47445463  1  0  -0.046402  0  3.672111  0  0  -0.073389  0  3.918935  0  0  -0.070386  0  3.937767  0  0  -0.061499  -0.074993  0  3.906347  0
C  C42  1  0.09222489  0.37808358  0.32295607  1  0  0.65776  0  3.944929  0  0  0.61124  0  4.232975  0  0  0.646152  0  4.226667  0  0  0.186837  0.587715  0  4.235922  0
C  C43  1  0.90777632  0.62191647  0.67704354  1  0  0.657757  0  3.944899  0  0  0.61126  0  4.23291  0  0  0.646169  0  4.226606  0  0  0.186874  0.587733  0  4.235856  0
C  C44  1  0.10727399  0.22048742  0.33195666  1  0  -0.237739  0  3.669923  0  0  -0.2495  0  3.926216  0  0  -0.262627  0  3.944748  0  0  -0.098398  -0.240547  0  3.91309  0
C  C45  1  0.89272860  0.77951151  0.66804402  1  0  -0.237716  0  3.669947  0  0  -0.24946  0  3.926191  0  0  -0.262587  0  3.944724  0  0  -0.098367  -0.240501  0  3.913057  0
C  C46  1  0.18079323  0.89630459  0.35716047  1  0  0.10623  0  3.627253  0  0  0.071357  0  3.867429  0  0  0.078469  0  3.884371  0  0  0.059871  0.06662  0  3.856441  0
C  C47  1  0.81920666  0.10369433  0.64284047  1  0  0.106175  0  3.627255  0  0  0.071351  0  3.867434  0  0  0.078465  0  3.884374  0  0  0.059855  0.066616  0  3.856444  0
C  C48  1  0.38251753  0.72096788  0.53959221  1  0  -0.095708  0  3.709693  0  0  -0.105446  0  3.95976  0  0  -0.112319  0  3.980331  0  0  -0.077033  -0.101332  0  3.946099  0
C  C49  1  0.61748239  0.27902991  0.46040993  1  0  -0.095758  0  3.709753  0  0  -0.105491  0  3.959817  0  0  -0.112366  0  3.980387  0  0  -0.077004  -0.101368  0  3.946151  0
C  C50  1  0.48672394  0.77574474  0.11372349  1  0  0.138892  0  3.689994  0  0  0.105526  0  3.943904  0  0  0.112732  0  3.962254  0  0  0.048509  0.100646  0  3.929888  0
C  C51  1  0.51327461  0.22425417  0.88627672  1  0  0.138902  0  3.690071  0  0  0.105547  0  3.94397  0  0  0.112752  0  3.962322  0  0  0.04848  0.100659  0  3.929966  0
C  C52  1  0.46126753  0.52113633  0.16204886  1  0  0.091185  0  3.682744  0  0  0.058904  0  3.924841  0  0  0.065616  0  3.943267  0  0  0.051867  0.052378  0  3.914934  0
C  C53  1  0.53873102  0.47886257  0.83795388  1  0  0.091227  0  3.682663  0  0  0.058894  0  3.924812  0  0  0.065605  0  3.943239  0  0  0.051878  0.052374  0  3.914904  0
C  C54  1  0.63577095  0.51009220  0.10479528  1  0  0.031254  0  3.791371  0  0  0.053992  0  4.024788  0  0  0.048347  0  4.049435  0  0  -0.003663  0.057376  0  4.007953  0
C  C55  1  0.36422894  0.48990671  0.89520650  1  0  0.031233  0  3.791422  0  0  0.053954  0  4.024899  0  0  0.048305  0  4.049547  0  0  -0.003729  0.057329  0  4.008071  0
C  C56  1  0.74516635  0.08597161  0.18571003  1  0  0.678502  0  3.922294  0  0  0.629666  0  4.21713  0  0  0.663619  0  4.209782  0  0  0.20008  0.607847  0  4.220222  0
C  C57  1  0.25483357  0.91402618  0.81429042  1  0  0.678441  0  3.922331  0  0  0.629602  0  4.217174  0  0  0.663555  0  4.209827  0  0  0.20004  0.607779  0  4.220268  0
C  C58  1  0.73361023  0.64437488  0.04571274  1  0  -0.022568  0  3.640426  0  0  -0.049508  0  3.885815  0  0  -0.045765  0  3.902987  0  0  -0.054169  -0.049705  0  3.87221  0
C  C59  1  0.26638827  0.35562629  0.95428676  1  0  -0.022518  0  3.640371  0  0  -0.049452  0  3.885764  0  0  -0.045707  0  3.902935  0  0  -0.05413  -0.049646  0  3.872148  0
C  C60  1  0.64232359  0.22850644  0.16958705  1  0  -0.249642  0  3.683862  0  0  -0.261588  0  3.942512  0  0  -0.275077  0  3.963049  0  0  -0.104443  -0.253037  0  3.928634  0
C  C61  1  0.35767768  0.77149135  0.83041412  1  0  -0.249768  0  3.68394  0  0  -0.261733  0  3.942605  0  0  -0.275225  0  3.963143  0  0  -0.104496  -0.253174  0  3.928738  0
C  C62  1  0.65809250  0.77826743  0.04997579  1  0  -0.108648  0  3.717516  0  0  -0.117196  0  3.965452  0  0  -0.12437  0  3.986777  0  0  -0.080882  -0.112375  0  3.949733  0
C  C63  1  0.34190604  0.22173148  0.95002358  1  0  -0.108748  0  3.717478  0  0  -0.117295  0  3.965415  0  0  -0.124469  0  3.986742  0  0  -0.080933  -0.112475  0  3.949698  0
C  C64  1  0.71674286  0.36614427  0.11011613  1  0  -0.018982  0  3.714575  0  0  -0.049757  0  3.973005  0  0  -0.044475  0  3.991783  0  0  -0.069102  -0.052825  0  3.960338  0
C  C65  1  0.28325833  0.63385690  0.88988481  1  0  -0.018841  0  3.714517  0  0  -0.049583  0  3.97292  0  0  -0.044299  0  3.991699  0  0  -0.069008  -0.052649  0  3.960252  0
N  N66  1  0.38851410  0.64907735  0.16752037  1  0  -0.332387  0  3.274609  0  0  -0.258522  0  3.539467  0  0  -0.277375  0  3.558458  0  0  -0.317243  -0.246633  0  3.528505  0
N  N67  1  0.61148582  0.35092043  0.83248092  1  0  -0.332475  0  3.274669  0  0  -0.258553  0  3.539492  0  0  -0.277405  0  3.558482  0  0  -0.317189  -0.246659  0  3.528528  0
N  N68  1  0.21810289  0.75306060  0.37150509  1  0  -0.328138  0  3.326816  0  0  -0.24649  0  3.595451  0  0  -0.265793  0  3.612021  0  0  -0.322321  -0.233515  0  3.583734  0
N  N69  1  0.78189558  0.24694170  0.62849405  1  0  -0.328131  0  3.326797  0  0  -0.246487  0  3.595423  0  0  -0.265792  0  3.611993  0  0  -0.32231  -0.233513  0  3.583713  0
O  O70  1  0.90319272  0.09516277  0.12275501  1  0  -0.685143  0  2.018518  0  0  -0.613144  0  2.236485  0  0  -0.639661  0  2.224491  0  0  -0.334148  -0.593733  0  2.243861  0
O  O71  1  0.09680852  0.90483615  0.87724411  1  0  -0.685117  0  2.01858  0  0  -0.613114  0  2.236541  0  0  -0.639632  0  2.224546  0  0  -0.334138  -0.593701  0  2.243915  0
O  O72  1  0.08444652  0.86206344  0.11204404  1  0  -0.859479  0  1.971135  0  0  -0.791033  0  2.202498  0  0  -0.814252  0  2.165706  0  0  -0.588406  -0.774816  0  2.228293  0
O  O73  1  0.91555337  0.13793547  0.88795689  1  0  -0.859464  0  1.971144  0  0  -0.79101  0  2.202494  0  0  -0.814229  0  2.165701  0  0  -0.588403  -0.77479  0  2.228287  0
O  O74  1  0.14302288  0.41440775  0.40635553  1  0  -0.660961  0  1.989975  0  0  -0.594069  0  2.225656  0  0  -0.621494  0  2.21572  0  0  -0.318153  -0.575046  0  2.231968  0
O  O75  1  0.85697837  0.58559117  0.59364613  1  0  -0.661004  0  1.990002  0  0  -0.5941  0  2.225642  0  0  -0.621523  0  2.21571  0  0  -0.318198  -0.575078  0  2.231952  0
O  O76  1  0.03962921  0.47904768  0.22438512  1  0  -0.620589  0  1.95128  0  0  -0.55475  0  2.198216  0  0  -0.584035  0  2.188992  0  0  -0.31774  -0.534292  0  2.203633  0
O  O77  1  0.96037203  0.52095124  0.77561570  1  0  -0.620578  0  1.951205  0  0  -0.554763  0  2.198147  0  0  -0.584047  0  2.188925  0  0  -0.317753  -0.534306  0  2.203565  0
O  O78  1  0.84364948  0.69075743  0.34487777  1  0  -0.83709  0  1.893055  0  0  -0.776179  0  2.093034  0  0  -0.797777  0  2.058343  0  0  -0.586374  -0.760767  0  2.116953  0
O  O79  1  0.15635176  0.30924149  0.65512135  1  0  -0.837064  0  1.893122  0  0  -0.776195  0  2.093022  0  0  -0.797792  0  2.05833  0  0  -0.58636  -0.760778  0  2.116944  0
O  O80  1  0.67518846  0.96420213  0.26392495  1  0  -0.623898  0  1.921908  0  0  -0.568874  0  2.141335  0  0  -0.593746  0  2.134116  0  0  -0.318743  -0.552271  0  2.143957  0
O  O81  1  0.32481408  0.03579905  0.73607502  1  0  -0.623862  0  1.921852  0  0  -0.568845  0  2.141295  0  0  -0.593711  0  2.134059  0  0  -0.318731  -0.552239  0  2.143919  0
