# generated using pymatgen
data_Zn4H32C40N12O13
_symmetry_space_group_name_H-M   'P 1'
_cell_length_a   23.92969997
_cell_length_b   23.92950168
_cell_length_c   23.93004488
_cell_angle_alpha   66.46020254
_cell_angle_beta   72.52756952
_cell_angle_gamma   107.47746585
_symmetry_Int_Tables_number   1
_chemical_formula_structural   Zn4H32C40N12O13
_chemical_formula_sum   'Zn8 H64 C80 N24 O26'
_cell_volume   10508.62760512
_cell_formula_units_Z   2
loop_
 _symmetry_equiv_pos_site_id
 _symmetry_equiv_pos_as_xyz
  1  'x, y, z'
loop_
 _atom_site_type_symbol
 _atom_site_label
 _atom_site_symmetry_multiplicity
 _atom_site_fract_x
 _atom_site_fract_y
 _atom_site_fract_z
 _atom_site_occupancy
 _atom_site_pbe_bader_charge
 _atom_site_pbe_bader_spin_density
 _atom_site_pbe_cm5_charge
 _atom_site_pbe_ddec_charge
 _atom_site_pbe_ddec_spin_density
 _atom_site_pbe_ddec_sum_bond_order
 _atom_site_pbe_magmom
Zn  Zn0  1  0.05668704  0.95817085  0.48589253  1  1.316489  0  0.674324  0.949131  0  2.406062  0
Zn  Zn1  1  0.05670184  0.09852452  0.45741649  1  1.315649  0  0.674288  0.949099  0  2.406058  0
Zn  Zn2  1  0.94329791  0.98586889  0.45817194  1  1.316428  0  0.674336  0.949132  0  2.405942  0
Zn  Zn3  1  0.94330583  0.95743006  0.59852692  1  1.315623  0  0.674395  0.949313  0  2.405732  0
Zn  Zn4  1  0.94404905  0.54257043  0.01411437  1  1.314279  0  0.674317  0.949106  0  2.406293  0
Zn  Zn5  1  0.05596035  0.51413177  0.04256983  1  1.314166  0  0.674305  0.949093  0  2.405964  0
Zn  Zn6  1  0.94404917  0.40147994  0.04182583  1  1.315835  0  0.674231  0.948881  0  2.406327  0
Zn  Zn7  1  0.05595593  0.54183390  0.90148235  1  1.315855  0  0.67427  0.94886  0  2.406295  0
H  H8  1  0.92416897  0.71612103  0.17544997  1  0.062384  0  0.097632  0.113495  0  1.011028  0
H  H9  1  0.07578538  0.67541975  0.21616365  1  0.061806  0  0.09778  0.113862  0  1.010864  0
H  H10  1  0.92375578  0.82437055  0.28483392  1  0.031233  0  0.097936  0.114285  0  1.011683  0
H  H11  1  0.07614651  0.78464077  0.32458771  1  0.03121  0  0.097917  0.114296  0  1.011983  0
H  H12  1  0.07582002  0.40038146  0.70805837  1  0.034483  0  0.097659  0.113568  0  1.011086  0
H  H13  1  0.92419818  0.20805824  0.90035679  1  0.034701  0  0.097709  0.113786  0  1.011052  0
H  H14  1  0.07619401  0.29150771  0.59927570  1  0.04148  0  0.097987  0.114368  0  1.011943  0
H  H15  1  0.92377047  0.09939867  0.79138491  1  0.042961  0  0.097865  0.114162  0  1.01203  0
H  H16  1  0.60921625  0.40065742  0.17553751  1  0.030979  0  0.097862  0.114291  0  1.011745  0
H  H17  1  0.60921377  0.20854980  0.21519992  1  0.032781  0  0.097929  0.114344  0  1.011816  0
H  H18  1  0.39158324  0.29194338  0.28384978  1  0.074972  0  0.09772  0.113857  0  1.011008  0
H  H19  1  0.39156198  0.09961501  0.32454289  1  0.027605  0  0.097561  0.113413  0  1.011206  0
H  H20  1  0.39078990  0.67547724  0.90069971  1  0.029429  0  0.097946  0.114341  0  1.011961  0
H  H21  1  0.39078776  0.71517214  0.70858559  1  0.034569  0  0.097955  0.114318  0  1.011874  0
H  H22  1  0.60843253  0.78385323  0.79193634  1  0.074908  0  0.097729  0.11377  0  1.01103  0
H  H23  1  0.60841953  0.82454696  0.59963624  1  0.027258  0  0.097663  0.113605  0  1.011096  0
H  H24  1  0.92103095  0.84527964  0.74858120  1  0.473904  0  0.287634  0.295401  0  1.012778  0
H  H25  1  0.91160201  0.80329177  0.83067086  1  0.427316  0  0.29268  0.279505  0  0.9739  0
H  H26  1  0.09382449  0.66957440  0.75143015  1  0.481247  0  0.287599  0.295185  0  1.013145  0
H  H27  1  0.13395170  0.74225640  0.66934664  1  0.426712  0  0.292643  0.279365  0  0.973887  0
H  H28  1  0.90614726  0.65470576  0.92424488  1  0.49313  0  0.287586  0.295243  0  1.013006  0
H  H29  1  0.86604048  0.69668780  0.89168813  1  0.426757  0  0.292648  0.279435  0  0.973951  0
H  H30  1  0.07899603  0.83043878  0.57575691  1  0.477574  0  0.28765  0.295723  0  1.013392  0
H  H31  1  0.08838919  0.75775297  0.60831179  1  0.425288  0  0.292709  0.279595  0  0.973761  0
H  H32  1  0.92100136  0.07574223  0.33039224  1  0.475997  0  0.287662  0.295394  0  1.013017  0
H  H33  1  0.91158742  0.10830230  0.25771830  1  0.424008  0  0.292599  0.279489  0  0.974018  0
H  H34  1  0.09384354  0.42424728  0.15475197  1  0.491486  0  0.28777  0.295574  0  1.012809  0
H  H35  1  0.13394712  0.39168308  0.19673206  1  0.426682  0  0.292646  0.279374  0  0.973832  0
H  H36  1  0.90616170  0.25145079  0.16957334  1  0.481559  0  0.28757  0.295294  0  1.013157  0
H  H37  1  0.86604206  0.16935531  0.24223965  1  0.42707  0  0.292593  0.279314  0  0.973969  0
H  H38  1  0.07896415  0.24853929  0.34528218  1  0.474712  0  0.287569  0.295187  0  1.013002  0
H  H39  1  0.08837241  0.33062909  0.30332477  1  0.426932  0  0.29264  0.279391  0  0.973946  0
H  H40  1  0.91680673  0.63530207  0.07800769  1  0.51165  0  0.296517  0.309311  0  1.00299  0
H  H41  1  0.89013359  0.68339634  0.10810550  1  0.423249  0  0.310334  0.304383  0  0.941512  0
H  H42  1  0.08318538  0.57800687  0.13531892  1  0.50729  0  0.296483  0.309175  0  1.003168  0
H  H43  1  0.10984119  0.60809921  0.18342251  1  0.423233  0  0.310161  0.304273  0  0.941476  0
H  H44  1  0.90828865  0.91152818  0.37597305  1  0.505119  0  0.29611  0.309055  0  1.002751  0
H  H45  1  0.87909061  0.87836299  0.33091322  1  0.445619  0  0.309726  0.303722  0  0.942532  0
H  H46  1  0.09166938  0.87590175  0.41163531  1  0.505355  0  0.296229  0.309438  0  1.002078  0
H  H47  1  0.12086526  0.83080367  0.37849455  1  0.444283  0  0.309568  0.303683  0  0.942766  0
H  H48  1  0.08320929  0.50518986  0.78151059  1  0.515319  0  0.296551  0.309398  0  1.002785  0
H  H49  1  0.10987471  0.50175260  0.70675426  1  0.429953  0  0.310375  0.304567  0  0.941395  0
H  H50  1  0.91681988  0.28149800  0.00517040  1  0.50968  0  0.2965  0.309251  0  1.003149  0
H  H51  1  0.89015763  0.20674330  0.00173924  1  0.430543  0  0.310191  0.304316  0  0.941596  0
H  H52  1  0.09170205  0.21577582  0.49670020  1  0.507772  0  0.29623  0.309345  0  1.002149  0
H  H53  1  0.12090112  0.29006816  0.50064500  1  0.442818  0  0.309496  0.303543  0  0.942468  0
H  H54  1  0.90828733  0.99676721  0.71571935  1  0.508212  0  0.29605  0.308955  0  1.002588  0
H  H55  1  0.87909284  0.00074271  0.78996857  1  0.435413  0  0.309719  0.303799  0  0.942197  0
H  H56  1  0.78751412  0.50325916  0.08845832  1  0.505679  0  0.296208  0.312594  0  0.997479  0
H  H57  1  0.70928538  0.49929811  0.12161115  1  0.440084  0  0.309724  0.303866  0  0.942322  0
H  H58  1  0.78750284  0.28423417  0.12404905  1  0.509931  0  0.296201  0.309254  0  1.00262  0
H  H59  1  0.70928257  0.20997420  0.16909842  1  0.447738  0  0.30963  0.303652  0  0.942382  0
H  H60  1  0.21332655  0.21849926  0.36469108  1  0.523837  0  0.296426  0.309725  0  1.003305  0
H  H61  1  0.29151482  0.29325821  0.31658844  1  0.438239  0  0.310202  0.304376  0  0.941486  0
H  H62  1  0.21330231  0.99481232  0.42195855  1  0.479445  0  0.296612  0.309506  0  1.002836  0
H  H63  1  0.29150142  0.99824185  0.39185705  1  0.423359  0  0.310261  0.30451  0  0.941458  0
H  H64  1  0.21249080  0.58842587  0.00327393  1  0.505844  0  0.296242  0.312629  0  0.997438  0
H  H65  1  0.29073156  0.62156594  0.99932147  1  0.441591  0  0.309586  0.303788  0  0.942354  0
H  H66  1  0.21249091  0.62404609  0.78425357  1  0.509706  0  0.296153  0.309279  0  1.002507  0
H  H67  1  0.29070245  0.66908637  0.71001067  1  0.448473  0  0.309839  0.303914  0  0.942477  0
H  H68  1  0.78667976  0.86466962  0.71850494  1  0.523268  0  0.296495  0.309803  0  1.003238  0
H  H69  1  0.70850169  0.81658656  0.79324828  1  0.437629  0  0.310255  0.304465  0  0.941495  0
H  H70  1  0.78667522  0.92198934  0.49482403  1  0.520782  0  0.296368  0.3092  0  1.003298  0
H  H71  1  0.70847799  0.89187942  0.49825833  1  0.422354  0  0.310302  0.304396  0  0.941381  0
C  C72  1  0.18364911  0.09182046  0.40817288  1  1.371809  0  0.215498  0.621074  0  4.128456  0
C  C73  1  0.00000069  0.13890743  0.36105156  1  1.487996  0  0.225137  0.63058  0  4.099988  0
C  C74  1  0.99997450  0.90852152  0.40863606  1  1.434148  0  0.214074  0.618862  0  4.127728  0
C  C75  1  0.81635054  0.90817228  0.59182521  1  1.369243  0  0.215449  0.621406  0  4.128102  0
C  C76  1  0.00002577  0.86110939  0.63893740  1  1.48785  0  0.225097  0.630298  0  4.100689  0
C  C77  1  0.99999877  0.09146298  0.59138160  1  1.457003  0  0.214119  0.619078  0  4.128054  0
C  C78  1  0.99999857  0.59182584  0.09181849  1  1.382523  0  0.215492  0.62122  0  4.12834  0
C  C79  1  0.00001271  0.36108666  0.13891659  1  1.489657  0  0.224836  0.629887  0  4.100706  0
C  C80  1  0.81715405  0.40857263  0.09141537  1  1.456374  0  0.214015  0.619281  0  4.127696  0
C  C81  1  0.00000156  0.40817674  0.90817847  1  1.403176  0  0.215595  0.621339  0  4.12814  0
C  C82  1  0.99999635  0.63891535  0.86106846  1  1.490485  0  0.224925  0.629981  0  4.100236  0
C  C83  1  0.18285444  0.59141645  0.90859153  1  1.456069  0  0.213909  0.619176  0  4.127901  0
C  C84  1  0.00001792  0.80480778  0.69522280  1  0.020537  0  -0.038548  -0.248957  0  3.944497  0
C  C85  1  0.99999836  0.69520955  0.80478317  1  0.032427  0  -0.038806  -0.249234  0  3.944341  0
C  C86  1  0.95766571  0.77792257  0.76637113  1  0.429671  0  0.078532  0.175195  0  4.046291  0
C  C87  1  0.04427953  0.72402402  0.73363713  1  0.439909  0  0.078468  0.175131  0  4.045842  0
C  C88  1  0.95572838  0.72208707  0.82025808  1  0.385164  0  0.078708  0.17551  0  4.045845  0
C  C89  1  0.04235889  0.77600232  0.67974893  1  0.420483  0  0.078444  0.175262  0  4.046064  0
C  C90  1  0.00000209  0.19520516  0.30476882  1  0.021429  0  -0.038663  -0.24933  0  3.944444  0
C  C91  1  0.00000362  0.30478744  0.19520559  1  0.03343  0  -0.038768  -0.249242  0  3.943867  0
C  C92  1  0.95764891  0.17973998  0.27596616  1  0.42161  0  0.07855  0.175318  0  4.045979  0
C  C93  1  0.04426870  0.32025159  0.22209620  1  0.385562  0  0.078654  0.175482  0  4.045799  0
C  C94  1  0.95572198  0.23363871  0.22400534  1  0.439889  0  0.078683  0.175582  0  4.04608  0
C  C95  1  0.04233765  0.26635221  0.27791513  1  0.430062  0  0.07861  0.175261  0  4.045834  0
C  C96  1  0.99999041  0.62834247  0.12834334  1  0.080897  0  -0.048284  -0.299971  0  3.849655  0
C  C97  1  0.95643324  0.65858512  0.13541600  1  0.398322  0  0.109855  0.336809  0  4.091343  0
C  C98  1  0.95740791  0.69365338  0.17042099  1  0.021032  0  -0.126617  -0.31294  0  3.952998  0
C  C99  1  0.99997520  0.69951590  0.19956226  1  0.099674  0  -0.002261  0.192116  0  4.20014  0
C  C100  1  0.04255992  0.67040259  0.19368031  1  0.01122  0  -0.126827  -0.313472  0  3.953333  0
C  C101  1  0.04354217  0.63541699  0.15859544  1  0.398816  0  0.109992  0.336916  0  4.091393  0
C  C102  1  0.99996166  0.73490243  0.23500672  1  -0.261421  0  -0.04285  -0.100387  0  4.088622  0
C  C103  1  0.99995200  0.76535102  0.26553606  1  -0.114018  0  -0.042593  -0.100147  0  4.089819  0
C  C104  1  0.99994509  0.80074786  0.30096105  1  0.110345  0  -0.000905  0.195175  0  4.19955  0
C  C105  1  0.95689086  0.82927574  0.30743704  1  0.060387  0  -0.126661  -0.314686  0  3.954834  0
C  C106  1  0.95635769  0.86482820  0.34194366  1  0.403857  0  0.109351  0.336073  0  4.092626  0
C  C107  1  0.99996606  0.87197680  0.37213739  1  0.006616  0  -0.047642  -0.297806  0  3.847968  0
C  C108  1  0.04356748  0.84177784  0.36500914  1  0.402421  0  0.109801  0.336839  0  4.091934  0
C  C109  1  0.04300432  0.80723666  0.32949146  1  0.05721  0  -0.126749  -0.314877  0  3.95567  0
C  C110  1  0.00000972  0.37166010  0.87165320  1  0.017442  0  -0.048309  -0.300136  0  3.849656  0
C  C111  1  0.04357451  0.40814663  0.79785956  1  0.455306  0  0.109975  0.337093  0  4.090942  0
C  C112  1  0.04258932  0.37217445  0.76375896  1  0.040844  0  -0.126711  -0.313166  0  3.952955  0
C  C113  1  0.00000245  0.30047300  0.80045067  1  0.126637  0  -0.002233  0.192366  0  4.199417  0
C  C114  1  0.95743348  0.26376507  0.87214917  1  0.013025  0  -0.126785  -0.313628  0  3.953448  0
C  C115  1  0.95646115  0.29785995  0.90812369  1  0.455079  0  0.109912  0.337063  0  4.091384  0
C  C116  1  0.99999875  0.26506294  0.76502577  1  -0.260947  0  -0.042785  -0.100384  0  4.088415  0
C  C117  1  0.00000085  0.23461457  0.73450405  1  -0.102525  0  -0.04273  -0.100184  0  4.089789  0
C  C118  1  0.99998659  0.19921075  0.69908387  1  0.098519  0  -0.000724  0.195297  0  4.199527  0
C  C119  1  0.04304573  0.23577558  0.62750604  1  0.039124  0  -0.12689  -0.315053  0  3.955624  0
C  C120  1  0.04359901  0.20179614  0.59142674  1  0.432624  0  0.109701  0.336833  0  4.091685  0
C  C121  1  0.99998748  0.12799904  0.62789033  1  0.018295  0  -0.047696  -0.298098  0  3.848041  0
C  C122  1  0.95637663  0.09153660  0.70168241  1  0.437678  0  0.109381  0.335958  0  4.092595  0
C  C123  1  0.95691927  0.12762883  0.73565548  1  0.032544  0  -0.12665  -0.314587  0  3.955031  0
C  C124  1  0.74410577  0.37205036  0.12794316  1  -0.006843  0  -0.04781  -0.297756  0  3.848257  0
C  C125  1  0.70677967  0.40851757  0.13509234  1  0.463564  0  0.109406  0.336046  0  4.093399  0
C  C126  1  0.63671666  0.37242980  0.17061678  1  -0.027483  0  -0.126715  -0.314792  0  3.954415  0
C  C127  1  0.60170147  0.30084789  0.19911650  1  0.133955  0  -0.000665  0.195657  0  4.199662  0
C  C128  1  0.63671176  0.26427501  0.19263208  1  0.077855  0  -0.126646  -0.314747  0  3.954994  0
C  C129  1  0.70677451  0.29825484  0.15811968  1  0.411763  0  0.109164  0.335644  0  4.092969  0
C  C130  1  0.53088723  0.26543830  0.23452166  1  -0.093981  0  -0.042913  -0.100848  0  4.089539  0
C  C131  1  0.46989993  0.23494982  0.26501823  1  -0.334646  0  -0.04253  -0.099787  0  4.088112  0
C  C132  1  0.39907881  0.19953019  0.30044700  1  0.118601  0  -0.002429  0.191854  0  4.200272  0
C  C133  1  0.36408315  0.23623500  0.30632548  1  0.00453  0  -0.126834  -0.313613  0  3.953431  0
C  C134  1  0.29401271  0.20213702  0.34140366  1  0.427379  0  0.11004  0.337063  0  4.091421  0
C  C135  1  0.25668830  0.12833624  0.37164915  1  0.071795  0  -0.048339  -0.2998  0  3.849386  0
C  C136  1  0.29399961  0.09185200  0.36456553  1  0.382213  0  0.109934  0.336875  0  4.091108  0
C  C137  1  0.36406991  0.12782420  0.32957333  1  0.06434  0  -0.126537  -0.312722  0  3.952866  0
C  C138  1  0.25589934  0.62791141  0.87207770  1  -0.007059  0  -0.04784  -0.298182  0  3.848195  0
C  C139  1  0.29322868  0.63504599  0.90854904  1  0.363959  0  0.109497  0.336546  0  4.092321  0
C  C140  1  0.36328557  0.67056089  0.87247224  1  0.072683  0  -0.126646  -0.314745  0  3.955116  0
C  C141  1  0.39829550  0.69907043  0.80089149  1  0.131879  0  -0.000918  0.195303  0  4.199188  0
C  C142  1  0.36328488  0.69258881  0.76431347  1  0.076067  0  -0.126577  -0.314574  0  3.9546  0
C  C143  1  0.29322481  0.65808542  0.79828595  1  0.413358  0  0.10934  0.335958  0  4.093214  0
C  C144  1  0.46911280  0.73449352  0.76547002  1  -0.092721  0  -0.042994  -0.100824  0  4.089668  0
C  C145  1  0.53009470  0.76500622  0.73496921  1  -0.333729  0  -0.042464  -0.099825  0  4.088232  0
C  C146  1  0.60091851  0.80044258  0.69954092  1  0.119001  0  -0.002509  0.191831  0  4.20037  0
C  C147  1  0.63592467  0.80632702  0.73623475  1  0.004704  0  -0.126617  -0.313154  0  3.95333  0
C  C148  1  0.70599180  0.84140476  0.70213386  1  0.427251  0  0.110025  0.337101  0  4.091138  0
C  C149  1  0.74331143  0.87165454  0.62833716  1  0.072041  0  -0.048312  -0.299947  0  3.849681  0
C  C150  1  0.70599007  0.86457784  0.59186006  1  0.382433  0  0.10984  0.336707  0  4.091739  0
C  C151  1  0.63592053  0.82957594  0.62783709  1  0.064578  0  -0.126653  -0.313035  0  3.953258  0
N  N152  1  0.91390454  0.80135221  0.78832517  1  -1.224311  0  -0.61734  -0.623875  0  3.332473  0
N  N153  1  0.08965985  0.70221105  0.71168120  1  -1.245308  0  -0.617183  -0.623391  0  3.332336  0
N  N154  1  0.91032696  0.69863236  0.88744775  1  -1.246097  0  -0.617279  -0.623693  0  3.332442  0
N  N155  1  0.08610786  0.79780241  0.61255701  1  -1.239211  0  -0.617264  -0.624335  0  3.332589  0
N  N156  1  0.91388883  0.11254712  0.29776234  1  -1.237242  0  -0.617358  -0.623973  0  3.332649  0
N  N157  1  0.08965984  0.38743872  0.19867393  1  -1.24456  0  -0.617407  -0.623944  0  3.332351  0
N  N158  1  0.91033466  0.21169679  0.20219296  1  -1.245803  0  -0.617303  -0.623813  0  3.332747  0
N  N159  1  0.08608818  0.28829515  0.30136472  1  -1.226075  0  -0.617261  -0.623494  0  3.332269  0
N  N160  1  0.91201042  0.65299492  0.11037022  1  -1.260884  0  -0.598135  -0.621305  0  3.352013  0
N  N161  1  0.08796705  0.61036725  0.15301637  1  -1.256949  0  -0.597942  -0.621106  0  3.351794  0
N  N162  1  0.91464071  0.89330025  0.34412429  1  -1.277948  0  -0.597814  -0.620853  0  3.350941  0
N  N163  1  0.08530402  0.84399435  0.39346680  1  -1.275784  0  -0.598091  -0.621712  0  3.350099  0
N  N164  1  0.08800118  0.47761489  0.75902561  1  -1.292036  0  -0.598196  -0.621693  0  3.351482  0
N  N165  1  0.91203362  0.25901981  0.97759351  1  -1.286574  0  -0.597993  -0.62134  0  3.352002  0
N  N166  1  0.08533346  0.24131236  0.52124452  1  -1.305437  0  -0.597835  -0.621211  0  3.349919  0
N  N167  1  0.91465102  0.02135091  0.74121521  1  -1.29742  0  -0.597748  -0.620725  0  3.350485  0
N  N168  1  0.73743738  0.47869815  0.10665845  1  -1.271397  0  -0.597799  -0.623632  0  3.346805  0
N  N169  1  0.73742701  0.25872281  0.15591576  1  -1.287966  0  -0.597688  -0.620688  0  3.350701  0
N  N170  1  0.26338608  0.24098076  0.34698782  1  -1.289421  0  -0.597954  -0.621935  0  3.352025  0
N  N171  1  0.26336424  0.02238042  0.38960562  1  -1.229315  0  -0.598191  -0.621806  0  3.3517  0
N  N172  1  0.26256634  0.60659796  0.97873268  1  -1.273664  0  -0.597789  -0.623831  0  3.346103  0
N  N173  1  0.26257076  0.65590051  0.75875415  1  -1.28837  0  -0.597911  -0.621095  0  3.351108  0
N  N174  1  0.73662888  0.84699656  0.74097209  1  -1.288423  0  -0.59819  -0.622273  0  3.351961  0
N  N175  1  0.73661948  0.88962097  0.52239424  1  -1.270542  0  -0.597927  -0.621209  0  3.352026  0
O  O176  1  0.99999123  0.00000086  0.50000360  1  -1.230339  0  -0.577906  -1.008113  0  2.597174  0
O  O177  1  0.15201777  0.02512267  0.43704082  1  -1.170173  0  -0.324287  -0.565657  0  2.380552  0
O  O178  1  0.03919345  0.15488402  0.38555347  1  -1.187078  0  -0.317287  -0.554042  0  2.377394  0
O  O179  1  0.95793247  0.93209186  0.41665738  1  -1.179699  0  -0.324007  -0.566273  0  2.381596  0
O  O180  1  0.15202521  0.12690344  0.41092598  1  -1.178301  0  -0.324358  -0.566127  0  2.380256  0
O  O181  1  0.04202175  0.91657410  0.43219209  1  -1.181011  0  -0.323819  -0.565968  0  2.381503  0
O  O182  1  0.96080689  0.07521785  0.38425126  1  -1.186735  0  -0.31701  -0.553611  0  2.37734  0
O  O183  1  0.84797959  0.93707850  0.52511690  1  -1.170227  0  -0.324306  -0.565979  0  2.380259  0
O  O184  1  0.96084248  0.88561448  0.65492031  1  -1.186775  0  -0.317014  -0.553557  0  2.377788  0
O  O185  1  0.84798212  0.91088784  0.62690683  1  -1.175023  0  -0.324264  -0.56612  0  2.380321  0
O  O186  1  0.03922918  0.88433045  0.57524868  1  -1.18634  0  -0.317305  -0.554165  0  2.377732  0
O  O187  1  0.04205993  0.12545738  0.52578556  1  -1.187924  0  -0.323796  -0.566023  0  2.381088  0
O  O188  1  0.95795820  0.02585642  0.62539285  1  -1.192962  0  -0.324109  -0.56637  0  2.382108  0
O  O189  1  0.00000514  0.50000122  0.00000018  1  -1.229262  0  -0.577847  -1.007896  0  2.597159  0
O  O190  1  0.96217975  0.58908174  0.06292824  1  -1.17212  0  -0.32435  -0.565965  0  2.380354  0
O  O191  1  0.04050563  0.42477418  0.11441816  1  -1.187629  0  -0.316897  -0.553363  0  2.377644  0
O  O192  1  0.84874929  0.37456472  0.08337530  1  -1.181957  0  -0.323795  -0.566281  0  2.381537  0
O  O193  1  0.03782365  0.56294583  0.08907483  1  -1.172051  0  -0.324238  -0.565724  0  2.38034  0
O  O194  1  0.84875481  0.47418079  0.06784968  1  -1.181765  0  -0.323853  -0.567342  0  2.38214  0
O  O195  1  0.95952130  0.34511188  0.11571261  1  -1.18889  0  -0.317129  -0.55362  0  2.377708  0
O  O196  1  0.96217967  0.37310135  0.97487937  1  -1.183357  0  -0.324284  -0.565851  0  2.380338  0
O  O197  1  0.04048353  0.61571337  0.84508325  1  -1.18893  0  -0.316985  -0.553346  0  2.377559  0
O  O198  1  0.03782735  0.47488433  0.87310437  1  -1.183442  0  -0.324397  -0.565908  0  2.38023  0
O  O199  1  0.95951334  0.61441061  0.92475581  1  -1.187558  0  -0.317169  -0.553709  0  2.377429  0
O  O200  1  0.15125565  0.56786902  0.97418912  1  -1.181568  0  -0.323696  -0.567266  0  2.38224  0
O  O201  1  0.15125407  0.58339381  0.87457739  1  -1.182072  0  -0.323929  -0.566218  0  2.381438  0
