# generated using pymatgen
data_SnH20C22(OF2)4
_symmetry_space_group_name_H-M   'P 1'
_cell_length_a   4.97260441
_cell_length_b   9.86554281
_cell_length_c   12.11467253
_cell_angle_alpha   100.03639912
_cell_angle_beta   98.24850786
_cell_angle_gamma   97.16650194
_symmetry_Int_Tables_number   1
_chemical_formula_structural   SnH20C22(OF2)4
_chemical_formula_sum   'Sn1 H20 C22 O4 F8'
_cell_volume   572.28670370
_cell_formula_units_Z   1
loop_
 _symmetry_equiv_pos_site_id
 _symmetry_equiv_pos_as_xyz
  1  'x, y, z'
loop_
 _atom_site_type_symbol
 _atom_site_label
 _atom_site_symmetry_multiplicity
 _atom_site_fract_x
 _atom_site_fract_y
 _atom_site_fract_z
 _atom_site_occupancy
 _atom_site_hle17_bader_spin_density
 _atom_site_hle17_ddec_charge
 _atom_site_hle17_ddec_spin_density
 _atom_site_hle17_ddec_sum_bond_order
 _atom_site_hle17_magmom
 _atom_site_hse06_10hf_bader_spin_density
 _atom_site_hse06_10hf_ddec_charge
 _atom_site_hse06_10hf_ddec_spin_density
 _atom_site_hse06_10hf_ddec_sum_bond_order
 _atom_site_hse06_10hf_magmom
 _atom_site_hse06_bader_spin_density
 _atom_site_hse06_ddec_charge
 _atom_site_hse06_ddec_spin_density
 _atom_site_hse06_ddec_sum_bond_order
 _atom_site_hse06_magmom
 _atom_site_pbe_bader_spin_density
 _atom_site_pbe_cm5_charge
 _atom_site_pbe_ddec_charge
 _atom_site_pbe_ddec_spin_density
 _atom_site_pbe_ddec_sum_bond_order
 _atom_site_pbe_magmom
Sn  Sn0  1  0.65369926  0.24277021  0.03688245  1  0  1.513413  0  2.702868  0  0  1.353346  0  3.211621  0  0  1.406669  0  3.178708  0  0  0.635841  1.316113  0  3.234477  0
H  H1  1  0.46323942  0.29495400  0.39632065  1  0  0.151096  0  0.910062  0  0  0.15663  0  0.972247  0  0  0.161265  0  0.968613  0  0  0.119639  0.153321  0  0.974884  0
H  H2  1  0.39256751  0.93659734  0.80720269  1  0  0.146081  0  0.920306  0  0  0.153147  0  0.981761  0  0  0.1571  0  0.978814  0  0  0.12416  0.150361  0  0.983823  0
H  H3  1  0.44413261  0.34702284  0.86442569  1  0  0.118446  0  0.968117  0  0  0.133741  0  1.026887  0  0  0.135805  0  1.028509  0  0  0.091151  0.132248  0  1.025901  0
H  H4  1  0.37880214  0.44564873  0.99298077  1  0  0.123212  0  0.995405  0  0  0.1337  0  1.062795  0  0  0.136369  0  1.064218  0  0  0.092787  0.131808  0  1.061898  0
H  H5  1  0.93176578  0.47304904  0.90369992  1  0  0.06259  0  0.928607  0  0  0.083865  0  0.985124  0  0  0.084169  0  0.985895  0  0  0.087976  0.083508  0  0.984719  0
H  H6  1  0.86895204  0.57210041  0.03084064  1  0  0.064018  0  0.948512  0  0  0.081478  0  1.012312  0  0  0.08194  0  1.012951  0  0  0.087843  0.081021  0  1.011998  0
H  H7  1  0.57319523  0.57051725  0.79003041  1  0  0.057288  0  0.944253  0  0  0.071013  0  1.009783  0  0  0.072473  0  1.008718  0  0  0.077699  0.069866  0  1.010596  0
H  H8  1  0.49208912  0.66463885  0.91521138  1  0  0.049194  0  0.948085  0  0  0.071738  0  1.005492  0  0  0.071646  0  1.007076  0  0  0.083263  0.071748  0  1.004475  0
H  H9  1  0.80310531  0.81547676  0.82155427  1  0  0.082585  0  0.972944  0  0  0.1042  0  1.037855  0  0  0.104576  0  1.038936  0  0  0.074402  0.103926  0  1.037162  0
H  H10  1  0.05853419  0.70819393  0.84039873  1  0  0.089079  0  0.974336  0  0  0.10616  0  1.045292  0  0  0.107307  0  1.045619  0  0  0.07878  0.105347  0  1.045104  0
H  H11  1  0.96181712  0.80764090  0.96098738  1  0  0.089913  0  0.96544  0  0  0.1133  0  1.027184  0  0  0.114108  0  1.028363  0  0  0.082611  0.112694  0  1.026451  0
H  H12  1  0.93051038  0.04141013  0.08200333  1  0  0.121518  0  0.998661  0  0  0.131385  0  1.067483  0  0  0.134257  0  1.068472  0  0  0.091621  0.129313  0  1.066891  0
H  H13  1  0.84921605  0.13385871  0.20978889  1  0  0.116495  0  0.970372  0  0  0.131949  0  1.028965  0  0  0.13388  0  1.030868  0  0  0.08888  0.13057  0  1.027727  0
H  H14  1  0.44091162  0.91212596  0.03263090  1  0  0.056547  0  0.942775  0  0  0.078405  0  1.001821  0  0  0.078451  0  1.002824  0  0  0.087262  0.078256  0  1.001247  0
H  H15  1  0.36178954  0.00659791  0.15785264  1  0  0.060657  0  0.931143  0  0  0.082575  0  0.987008  0  0  0.082686  0  0.988024  0  0  0.087918  0.082434  0  0.986305  0
H  H16  1  0.79048656  0.80864112  0.14866218  1  0  0.052925  0  0.946252  0  0  0.074578  0  1.005034  0  0  0.074638  0  1.006533  0  0  0.083544  0.074439  0  1.00409  0
H  H17  1  0.71814907  0.90560730  0.27441570  1  0  0.054689  0  0.938665  0  0  0.069653  0  1.003276  0  0  0.070906  0  1.002392  0  0  0.076015  0.068611  0  1.003999  0
H  H18  1  0.45959242  0.66579828  0.23985507  1  0  0.088263  0  0.980935  0  0  0.103096  0  1.055038  0  0  0.104307  0  1.054865  0  0  0.071647  0.102166  0  1.055356  0
H  H19  1  0.30721363  0.68021558  0.10160006  1  0  0.087206  0  0.967552  0  0  0.111403  0  1.02988  0  0  0.112182  0  1.030753  0  0  0.081089  0.110853  0  1.029284  0
H  H20  1  0.22173537  0.78318892  0.22281954  1  0  0.086602  0  0.982751  0  0  0.101596  0  1.057928  0  0  0.103071  0  1.057598  0  0  0.075723  0.100553  0  1.058148  0
C  C21  1  0.24554374  0.36534030  0.20206961  1  0  0.694838  0  3.851244  0  0  0.637681  0  4.152388  0  0  0.674201  0  4.140871  0  0  0.240267  0.61288  0  4.159723  0
C  C22  1  0.19037002  0.41860961  0.31906425  1  0  -0.134353  0  3.756877  0  0  -0.13483  0  4.031338  0  0  -0.1428  0  4.04991  0  0  -0.023231  -0.12974  0  4.019199  0
C  C23  1  0.01405072  0.51647723  0.34035359  1  0  0.22349  0  3.768677  0  0  0.179942  0  4.07423  0  0  0.191526  0  4.083037  0  0  0.103195  0.171876  0  4.068702  0
C  C24  1  0.97188941  0.56546069  0.45080473  1  0  0.112241  0  3.813446  0  0  0.078473  0  4.124273  0  0  0.083445  0  4.133454  0  0  0.085181  0.074636  0  4.118467  0
C  C25  1  0.10343431  0.51587693  0.54165885  1  0  0.131297  0  3.809793  0  0  0.093844  0  4.117041  0  0  0.103172  0  4.123564  0  0  0.091994  0.087379  0  4.113121  0
C  C26  1  0.27940165  0.41807282  0.52057685  1  0  0.214072  0  3.818394  0  0  0.181041  0  4.132947  0  0  0.188916  0  4.141501  0  0  0.084732  0.175121  0  4.127807  0
C  C27  1  0.32423910  0.37058406  0.41154213  1  0  -0.152469  0  3.738695  0  0  -0.20444  0  4.029692  0  0  -0.203717  0  4.044484  0  0  -0.094898  -0.204744  0  4.01985  0
C  C28  1  0.05930721  0.11899166  0.86983690  1  0  0.69797  0  3.851558  0  0  0.640417  0  4.152035  0  0  0.67687  0  4.14091  0  0  0.2413  0.615766  0  4.15891  0
C  C29  1  0.11251553  0.07068051  0.75169421  1  0  -0.13623  0  3.752367  0  0  -0.136253  0  4.024296  0  0  -0.144464  0  4.042708  0  0  -0.021808  -0.131041  0  4.012134  0
C  C30  1  0.98493923  0.11635649  0.65723934  1  0  0.21471  0  3.78354  0  0  0.175365  0  4.091136  0  0  0.186626  0  4.099771  0  0  0.096222  0.167596  0  4.085641  0
C  C31  1  0.03027636  0.06356719  0.54802502  1  0  0.110719  0  3.808318  0  0  0.073671  0  4.122151  0  0  0.079326  0  4.129807  0  0  0.081342  0.069226  0  4.117865  0
C  C32  1  0.20481710  0.96447474  0.53177888  1  0  0.132601  0  3.808104  0  0  0.092906  0  4.119387  0  0  0.102449  0  4.125659  0  0  0.090137  0.086213  0  4.11585  0
C  C33  1  0.33329499  0.91940158  0.62615818  1  0  0.209118  0  3.81152  0  0  0.178518  0  4.123803  0  0  0.185454  0  4.133372  0  0  0.084494  0.173322  0  4.117799  0
C  C34  1  0.29014282  0.97202684  0.73439790  1  0  -0.127272  0  3.7221  0  0  -0.177914  0  4.008487  0  0  -0.176027  0  4.022971  0  0  -0.083944  -0.179  0  3.998951  0
C  C35  1  0.53982102  0.40442708  0.95007476  1  0  -0.470829  0  3.562785  0  0  -0.494509  0  3.836158  0  0  -0.50881  0  3.853421  0  0  -0.227906  -0.4851  0  3.824606  0
C  C36  1  0.77048687  0.51852536  0.94444302  1  0  -0.049258  0  3.721767  0  0  -0.088513  0  3.981197  0  0  -0.087312  0  3.997849  0  0  -0.168422  -0.088968  0  3.969599  0
C  C37  1  0.66239730  0.62455593  0.87744125  1  0  -0.060633  0  3.691129  0  0  -0.091131  0  3.948704  0  0  -0.092235  0  3.964026  0  0  -0.170849  -0.090149  0  3.937911  0
C  C38  1  0.88322438  0.74570994  0.87523217  1  0  -0.286583  0  3.720328  0  0  -0.362778  0  3.968404  0  0  -0.365306  0  3.980877  0  0  -0.25339  -0.361083  0  3.960007  0
C  C39  1  0.76303103  0.07951081  0.12225460  1  0  -0.482343  0  3.58334  0  0  -0.504691  0  3.85524  0  0  -0.519352  0  3.872838  0  0  -0.232131  -0.494852  0  3.843261  0
C  C40  1  0.53013187  0.96337429  0.12078894  1  0  -0.048376  0  3.736753  0  0  -0.085899  0  3.992056  0  0  -0.084814  0  4.009648  0  0  -0.169322  -0.086268  0  3.979695  0
C  C41  1  0.62560481  0.85401856  0.18665956  1  0  -0.059542  0  3.690959  0  0  -0.091249  0  3.949997  0  0  -0.09246  0  3.965455  0  0  -0.17174  -0.090085  0  3.93905  0
C  C42  1  0.39101150  0.73941823  0.18782735  1  0  -0.288908  0  3.722604  0  0  -0.370105  0  3.981827  0  0  -0.372209  0  3.992968  0  0  -0.257994  -0.368602  0  3.974202  0
O  O43  1  0.06893327  0.36836238  0.11583528  1  0  -0.635581  0  2.097054  0  0  -0.572336  0  2.354845  0  0  -0.597309  0  2.343929  0  0  -0.276299  -0.555024  0  2.361906  0
O  O44  1  0.47401391  0.32090403  0.19759020  1  0  -0.609994  0  2.025876  0  0  -0.547626  0  2.274165  0  0  -0.574411  0  2.26527  0  0  -0.270026  -0.528975  0  2.279602  0
O  O45  1  0.24165010  0.11189934  0.95298018  1  0  -0.642166  0  2.084525  0  0  -0.573792  0  2.337893  0  0  -0.599849  0  2.327884  0  0  -0.277639  -0.555611  0  2.344068  0
O  O46  1  0.82782683  0.15811618  0.87839925  1  0  -0.607982  0  2.047359  0  0  -0.544759  0  2.297248  0  0  -0.571255  0  2.28833  0  0  -0.26838  -0.526365  0  2.302859  0
F  F47  1  0.88518494  0.57180602  0.25742305  1  0  -0.152566  0  1.30431  0  0  -0.085195  0  1.46573  0  0  -0.095256  0  1.457975  0  0  -0.055266  -0.077951  0  1.471025  0
F  F48  1  0.80588370  0.66206092  0.47025530  1  0  -0.143454  0  1.260465  0  0  -0.096307  0  1.425886  0  0  -0.104743  0  1.418046  0  0  -0.080178  -0.090185  0  1.431352  0
F  F49  1  0.06094551  0.56268772  0.64784052  1  0  -0.134912  0  1.256223  0  0  -0.080636  0  1.413458  0  0  -0.088763  0  1.403562  0  0  -0.066527  -0.074728  0  1.42022  0
F  F50  1  0.40524048  0.37082925  0.61007497  1  0  -0.170863  0  1.238276  0  0  -0.119828  0  1.401094  0  0  -0.128612  0  1.391728  0  0  -0.085693  -0.113483  0  1.407628  0
F  F51  1  0.82037619  0.21518006  0.66673947  1  0  -0.156949  0  1.257986  0  0  -0.109627  0  1.425431  0  0  -0.118081  0  1.415969  0  0  -0.083228  -0.103457  0  1.431847  0
F  F52  1  0.90601481  0.10897779  0.45755537  1  0  -0.149987  0  1.238807  0  0  -0.098312  0  1.399233  0  0  -0.106772  0  1.390211  0  0  -0.080545  -0.092179  0  1.405574  0
F  F53  1  0.24858762  0.91393527  0.42634245  1  0  -0.136358  0  1.250712  0  0  -0.082124  0  1.407602  0  0  -0.09013  0  1.397566  0  0  -0.069174  -0.076265  0  1.41444  0
F  F54  1  0.50140588  0.82220002  0.60872302  1  0  -0.175266  0  1.228809  0  0  -0.125962  0  1.39126  0  0  -0.135105  0  1.383566  0  0  -0.090126  -0.119319  0  1.396539  0
