# generated using pymatgen
data_Zn2H13C24O8F
_symmetry_space_group_name_H-M   'P 1'
_cell_length_a   6.78821944
_cell_length_b   10.86055722
_cell_length_c   34.98567395
_cell_angle_alpha   90.00856883
_cell_angle_beta   90.31072648
_cell_angle_gamma   90.41284524
_symmetry_Int_Tables_number   1
_chemical_formula_structural   Zn2H13C24O8F
_chemical_formula_sum   'Zn4 H26 C48 O16 F2'
_cell_volume   2579.17349448
_cell_formula_units_Z   2
loop_
 _symmetry_equiv_pos_site_id
 _symmetry_equiv_pos_as_xyz
  1  'x, y, z'
loop_
 _atom_site_type_symbol
 _atom_site_label
 _atom_site_symmetry_multiplicity
 _atom_site_fract_x
 _atom_site_fract_y
 _atom_site_fract_z
 _atom_site_occupancy
 _atom_site_pbe_bader_charge
 _atom_site_pbe_bader_spin_density
 _atom_site_pbe_cm5_charge
 _atom_site_pbe_ddec_charge
 _atom_site_pbe_ddec_spin_density
 _atom_site_pbe_ddec_sum_bond_order
 _atom_site_pbe_magmom
Zn  Zn0  1  0.70978692  0.00396097  0.50031551  1  1.314346  0  0.719917  0.952937  0  2.205881  0
Zn  Zn1  1  0.31349893  0.99978019  0.49985323  1  1.305485  0  0.71402  0.949926  0  2.140935  0
Zn  Zn2  1  0.19631313  0.99684326  0.99969824  1  1.30838  0  0.717903  0.95046  0  2.202612  0
Zn  Zn3  1  0.59270225  0.99618838  0.00014776  1  1.305657  0  0.71367  0.948673  0  2.145065  0
H  H4  1  0.77589161  0.99600130  0.87566460  1  0.092252  0  0.106826  0.110517  0  1.004136  0
H  H5  1  0.74344590  0.99655514  0.80502441  1  0.051206  0  0.097532  0.092325  0  1.023461  0
H  H6  1  0.11072200  0.99518568  0.81567735  1  0.036605  0  0.09809  0.093687  0  1.017924  0
H  H7  1  0.14654233  0.99473648  0.88659735  1  0.12325  0  0.107807  0.115037  0  1.006002  0
H  H8  1  0.80490549  0.99721478  0.68337500  1  0.060308  0  0.098035  0.094005  0  1.017206  0
H  H9  1  0.17296515  0.99610242  0.69571016  1  0.068254  0  0.097436  0.092642  0  1.025418  0
H  H10  1  0.13526334  0.99736989  0.62519177  1  0.098596  0  0.106699  0.110334  0  1.004082  0
H  H11  1  0.76377904  0.99881035  0.61259863  1  0.090934  0  0.107522  0.115537  0  1.003751  0
H  H12  1  0.23475807  0.99643393  0.75543224  1  0.06291  0  0.098495  0.092538  0  1.011343  0
H  H13  1  0.68370450  0.99572182  0.74429731  1  0.07402  0  0.098849  0.093457  0  1.010013  0
H  H14  1  0.77512208  0.99531266  0.12496672  1  0.091992  0  0.106794  0.110685  0  1.005066  0
H  H15  1  0.74286389  0.99582963  0.19553238  1  0.056459  0  0.097506  0.092262  0  1.02394  0
H  H16  1  0.11011793  0.99582773  0.18363066  1  0.038872  0  0.098029  0.093892  0  1.01747  0
H  H17  1  0.14570971  0.99535593  0.11278401  1  0.097079  0  0.107981  0.115657  0  1.003753  0
H  H18  1  0.80472565  0.99671460  0.31727163  1  0.055092  0  0.098143  0.094304  0  1.016654  0
H  H19  1  0.17268549  0.99531272  0.30380274  1  0.054487  0  0.097464  0.092641  0  1.023956  0
H  H20  1  0.13564074  0.99669338  0.37425605  1  0.098155  0  0.106826  0.110439  0  1.004583  0
H  H21  1  0.76425782  0.99837856  0.38798547  1  0.075909  0  0.107713  0.114855  0  1.005153  0
H  H22  1  0.23426039  0.99673198  0.24412702  1  0.063298  0  0.098767  0.092863  0  1.011464  0
H  H23  1  0.68321345  0.99478000  0.25615352  1  0.030444  0  0.098858  0.093273  0  1.010412  0
H  H24  1  0.90989620  0.61460016  0.50126244  1  0.106243  0  0.107073  0.11414  0  1.007978  0
H  H25  1  0.27624134  0.62151162  0.49926416  1  0.124118  0  0.115785  0.145074  0  0.995138  0
H  H26  1  0.89752068  0.38373378  0.50115019  1  0.14412  0  0.105248  0.117255  0  1.034195  0
H  H27  1  0.99339163  0.60607129  0.99984005  1  0.081036  0  0.107289  0.11467  0  1.008154  0
H  H28  1  0.62712198  0.61762919  0.99931529  1  0.106865  0  0.115265  0.144443  0  0.994739  0
H  H29  1  0.00485121  0.37529926  0.99985472  1  0.121405  0  0.105576  0.11769  0  1.033201  0
C  C30  1  0.59340529  0.76990955  0.50023940  1  1.526948  0  0.222956  0.602777  0  4.121618  0
C  C31  1  0.43409651  0.99924571  0.57204851  1  1.544338  0  0.220431  0.604491  0  4.132221  0
C  C32  1  0.58293185  0.23494038  0.50014346  1  1.500417  0  0.221857  0.620155  0  4.129034  0
C  C33  1  0.43462531  0.99883839  0.42793547  1  1.543765  0  0.220096  0.603298  0  4.133683  0
C  C34  1  0.31121463  0.76375821  0.99972724  1  1.536393  0  0.222912  0.604368  0  4.12085  0
C  C35  1  0.47394702  0.99521796  0.92797842  1  1.541426  0  0.220157  0.602351  0  4.134507  0
C  C36  1  0.31953012  0.22880357  0.99977144  1  1.49916  0  0.221712  0.61934  0  4.12851  0
C  C37  1  0.47314707  0.99520152  0.07205170  1  1.542854  0  0.219714  0.601767  0  4.135027  0
C  C38  1  0.46291916  0.99532208  0.88548310  1  -0.096281  0  -0.016924  -0.035498  0  3.961581  0
C  C39  1  0.63076765  0.99580144  0.86218601  1  -0.021106  0  -0.078665  -0.084786  0  3.977869  0
C  C40  1  0.61129241  0.99610403  0.82261077  1  0.022792  0  -0.087934  -0.12949  0  3.953849  0
C  C41  1  0.42357736  0.99586184  0.80494784  1  -0.054913  0  -0.00604  0.118557  0  4.037711  0
C  C42  1  0.25695112  0.99537718  0.82881904  1  -0.035391  0  -0.088888  -0.134076  0  3.980263  0
C  C43  1  0.27563986  0.99509737  0.86827375  1  -0.009132  0  -0.080544  -0.080373  0  3.977927  0
C  C44  1  0.39026076  0.99614306  0.76383140  1  -0.001823  0  -0.087413  -0.123817  0  3.994751  0
C  C45  1  0.52797112  0.99606254  0.73604434  1  -0.123694  0  -0.087571  -0.124289  0  3.994275  0
C  C46  1  0.65765647  0.99728726  0.67066507  1  -0.055159  0  -0.089027  -0.135107  0  3.979973  0
C  C47  1  0.49273865  0.99660801  0.69496897  1  -0.021521  0  -0.005768  0.119567  0  4.037994  0
C  C48  1  0.30383205  0.99666921  0.67777513  1  -0.031948  0  -0.088278  -0.131774  0  3.958276  0
C  C49  1  0.28136651  0.99735549  0.63825885  1  -0.05073  0  -0.078849  -0.084195  0  3.980454  0
C  C50  1  0.44753839  0.99817037  0.61452732  1  -0.052967  0  -0.016938  -0.03619  0  3.961034  0
C  C51  1  0.63598725  0.99811466  0.63126413  1  -0.004401  0  -0.080567  -0.08045  0  3.97457  0
C  C52  1  0.46212258  0.99526551  0.11452261  1  -0.068239  0  -0.016763  -0.034512  0  3.960468  0
C  C53  1  0.63003152  0.99536432  0.13815507  1  -0.034687  0  -0.078879  -0.085724  0  3.979352  0
C  C54  1  0.61062469  0.99566084  0.17769082  1  0.004157  0  -0.087979  -0.129799  0  3.955879  0
C  C55  1  0.42295090  0.99575491  0.19498680  1  -0.05494  0  -0.005914  0.119103  0  4.037265  0
C  C56  1  0.25629759  0.99567928  0.17077371  1  -0.027352  0  -0.089022  -0.134534  0  3.979277  0
C  C57  1  0.27488246  0.99539724  0.13135780  1  -0.000981  0  -0.080597  -0.080976  0  3.975236  0
C  C58  1  0.38974416  0.99603907  0.23604351  1  -0.004289  0  -0.0878  -0.124548  0  3.99491  0
C  C59  1  0.52753081  0.99549223  0.26410628  1  -0.073811  0  -0.087382  -0.123807  0  3.993895  0
C  C60  1  0.65760492  0.99673889  0.32972818  1  -0.03519  0  -0.088556  -0.134545  0  3.979581  0
C  C61  1  0.49250848  0.99599167  0.30511580  1  -0.020142  0  -0.005919  0.119116  0  4.037233  0
C  C62  1  0.30373239  0.99594818  0.32196556  1  -0.028167  0  -0.088557  -0.131132  0  3.956002  0
C  C63  1  0.28162278  0.99666072  0.36144181  1  -0.046335  0  -0.079258  -0.085815  0  3.981249  0
C  C64  1  0.44795840  0.99760973  0.38548091  1  -0.045256  0  -0.016549  -0.035142  0  3.961333  0
C  C65  1  0.63629488  0.99760912  0.36909253  1  -0.007433  0  -0.080709  -0.079757  0  3.975798  0
C  C66  1  0.58308885  0.37236863  0.50017048  1  0.088933  0  -0.017754  -0.136941  0  3.941713  0
C  C67  1  0.59429073  0.63228291  0.50027024  1  0.025176  0  -0.007575  0.007424  0  3.969921  0
C  C68  1  0.40975825  0.44249644  0.49965569  1  0.451247  0  0.111454  0.28363  0  4.029992  0
C  C69  1  0.76984504  0.56524242  0.50080473  1  0.018368  0  -0.083866  -0.109346  0  3.97315  0
C  C70  1  0.41319684  0.57005614  0.49970725  1  -0.034546  0  -0.091672  -0.225103  0  3.964997  0
C  C71  1  0.76291716  0.43731658  0.50075321  1  -0.051688  0  -0.075703  -0.066442  0  3.961512  0
C  C72  1  0.31928905  0.36622766  0.99965303  1  0.091427  0  -0.017812  -0.137108  0  3.941483  0
C  C73  1  0.30918406  0.62610293  0.99959913  1  -0.011367  0  -0.0071  0.007028  0  3.967584  0
C  C74  1  0.49288237  0.43765861  0.99945431  1  0.324416  0  0.111062  0.283745  0  4.02957  0
C  C75  1  0.13326883  0.55777095  0.99973307  1  0.038589  0  -0.084695  -0.110373  0  3.970251  0
C  C76  1  0.48994518  0.56516457  0.99941575  1  0.157656  0  -0.091094  -0.223801  0  3.964765  0
C  C77  1  0.13968573  0.42985942  0.99975128  1  -0.045127  0  -0.075072  -0.066019  0  3.960254  0
O  O78  1  0.76108052  0.82671553  0.50038893  1  -1.128891  0  -0.31584  -0.529427  0  2.233079  0
O  O79  1  0.42614652  0.82149374  0.50005538  1  -1.175431  0  -0.309992  -0.56389  0  2.333999  0
O  O80  1  0.26376390  0.99763492  0.55540716  1  -1.125743  0  -0.318483  -0.532452  0  2.209357  0
O  O81  1  0.59751729  0.00169098  0.55441776  1  -1.178946  0  -0.315694  -0.577723  0  2.382029  0
O  O82  1  0.41828105  0.17909621  0.49997855  1  -1.152315  0  -0.310193  -0.565809  0  2.363267  0
O  O83  1  0.75274429  0.18185953  0.50031953  1  -1.130553  0  -0.315898  -0.526665  0  2.234751  0
O  O84  1  0.59799207  0.00136463  0.44592508  1  -1.182053  0  -0.31546  -0.576859  0  2.381517  0
O  O85  1  0.26423852  0.99733977  0.44420135  1  -1.122545  0  -0.318362  -0.531974  0  2.209266  0
O  O86  1  0.14389618  0.81953015  0.99959261  1  -1.133509  0  -0.316669  -0.529942  0  2.233161  0
O  O87  1  0.47869454  0.81652755  0.99997980  1  -1.173999  0  -0.308868  -0.564043  0  2.332318  0
O  O88  1  0.64381242  0.99476524  0.94483429  1  -1.122162  0  -0.31794  -0.530816  0  2.213512  0
O  O89  1  0.30993281  0.99565122  0.94539906  1  -1.18063  0  -0.315247  -0.576143  0  2.374774  0
O  O90  1  0.48414531  0.17442944  0.00000971  1  -1.158158  0  -0.31023  -0.565644  0  2.359997  0
O  O91  1  0.14987986  0.17390793  0.99963065  1  -1.125006  0  -0.315938  -0.526473  0  2.233813  0
O  O92  1  0.30916776  0.99568073  0.05427467  1  -1.183555  0  -0.314396  -0.575183  0  2.374403  0
O  O93  1  0.64308261  0.99471317  0.05557386  1  -1.119848  0  -0.318422  -0.531052  0  2.214273  0
F  F94  1  0.22954082  0.38759123  0.49901266  1  -0.62923  0  -0.086192  -0.12645  0  1.398418  0
F  F95  1  0.67297500  0.38419737  0.99926336  1  -0.624645  0  -0.086007  -0.126917  0  1.399347  0
