# generated using pymatgen
data_NaH8(C2O)4
_symmetry_space_group_name_H-M   'P 1'
_cell_length_a   5.86154729
_cell_length_b   8.02322735
_cell_length_c   16.30934587
_cell_angle_alpha   89.99918882
_cell_angle_beta   97.31823957
_cell_angle_gamma   89.99997427
_symmetry_Int_Tables_number   1
_chemical_formula_structural   NaH8(C2O)4
_chemical_formula_sum   'Na4 H32 C32 O16'
_cell_volume   760.75644159
_cell_formula_units_Z   4
loop_
 _symmetry_equiv_pos_site_id
 _symmetry_equiv_pos_as_xyz
  1  'x, y, z'
loop_
 _atom_site_type_symbol
 _atom_site_label
 _atom_site_symmetry_multiplicity
 _atom_site_fract_x
 _atom_site_fract_y
 _atom_site_fract_z
 _atom_site_occupancy
 _atom_site_hle17_bader_spin_density
 _atom_site_hle17_ddec_charge
 _atom_site_hle17_ddec_spin_density
 _atom_site_hle17_ddec_sum_bond_order
 _atom_site_hle17_magmom
 _atom_site_hse06_10hf_bader_spin_density
 _atom_site_hse06_10hf_ddec_charge
 _atom_site_hse06_10hf_ddec_spin_density
 _atom_site_hse06_10hf_ddec_sum_bond_order
 _atom_site_hse06_10hf_magmom
 _atom_site_hse06_bader_spin_density
 _atom_site_hse06_ddec_charge
 _atom_site_hse06_ddec_spin_density
 _atom_site_hse06_ddec_sum_bond_order
 _atom_site_hse06_magmom
 _atom_site_pbe_bader_spin_density
 _atom_site_pbe_cm5_charge
 _atom_site_pbe_ddec_charge
 _atom_site_pbe_ddec_spin_density
 _atom_site_pbe_ddec_sum_bond_order
 _atom_site_pbe_magmom
Na  Na0  1  0.60378655  0.08943956  0.59139098  1  0  0.908072  0  0.377955  0  0  0.864629  0  0.52924  0  0  0.87467  0  0.508306  0  0  0.686425  0.857232  0  0.544286  0
Na  Na1  1  0.89621698  0.58944172  0.40860496  1  0  0.908072  0  0.378003  0  0  0.86464  0  0.529275  0  0  0.87469  0  0.508339  0  0  0.68642  0.857246  0  0.544324  0
Na  Na2  1  0.39620664  0.91056305  0.40860942  1  0  0.908064  0  0.377991  0  0  0.864605  0  0.529327  0  0  0.874658  0  0.508394  0  0  0.686433  0.857207  0  0.544372  0
Na  Na3  1  0.10379318  0.41055964  0.59139000  1  0  0.908051  0  0.377975  0  0  0.864612  0  0.529259  0  0  0.874665  0  0.508325  0  0  0.686405  0.85722  0  0.544311  0
H  H4  1  0.64069823  0.56542750  0.77350578  1  0  0.084211  0  0.959529  0  0  0.095567  0  1.02683  0  0  0.095896  0  1.027683  0  0  0.107796  0.095286  0  1.026515  0
H  H5  1  0.85930743  0.06545689  0.22649838  1  0  0.084119  0  0.959475  0  0  0.095477  0  1.026827  0  0  0.095809  0  1.027687  0  0  0.107748  0.095196  0  1.026518  0
H  H6  1  0.35931897  0.43455516  0.22649375  1  0  0.084198  0  0.959496  0  0  0.0956  0  1.026777  0  0  0.095931  0  1.02763  0  0  0.107755  0.095319  0  1.026462  0
H  H7  1  0.14068419  0.93454323  0.77350563  1  0  0.084082  0  0.959586  0  0  0.095508  0  1.026856  0  0  0.095841  0  1.027716  0  0  0.107756  0.095225  0  1.026541  0
H  H8  1  0.46783678  0.70704226  0.70647481  1  0  0.107873  0  0.942232  0  0  0.115342  0  1.007781  0  0  0.118358  0  1.005096  0  0  0.114375  0.113182  0  1.00982  0
H  H9  1  0.03215911  0.20706092  0.29353448  1  0  0.107851  0  0.942054  0  0  0.115328  0  1.007663  0  0  0.118339  0  1.004979  0  0  0.114433  0.113172  0  1.009697  0
H  H10  1  0.53218056  0.29295287  0.29352841  1  0  0.107819  0  0.942155  0  0  0.115378  0  1.007632  0  0  0.118392  0  1.004944  0  0  0.114373  0.113215  0  1.009676  0
H  H11  1  0.96782224  0.79294293  0.70647033  1  0  0.107895  0  0.942068  0  0  0.115397  0  1.007655  0  0  0.118412  0  1.004969  0  0  0.114416  0.113234  0  1.009697  0
H  H12  1  0.48117618  0.67037397  0.86585742  1  0  0.103066  0  0.994074  0  0  0.111316  0  1.060849  0  0  0.113683  0  1.061605  0  0  0.098619  0.109481  0  1.060819  0
H  H13  1  0.01883328  0.17041707  0.13414349  1  0  0.102996  0  0.994153  0  0  0.11127  0  1.060888  0  0  0.113637  0  1.061649  0  0  0.098578  0.109434  0  1.060857  0
H  H14  1  0.51881169  0.32962365  0.13413847  1  0  0.10307  0  0.994062  0  0  0.111269  0  1.060887  0  0  0.113636  0  1.061646  0  0  0.098595  0.109432  0  1.060857  0
H  H15  1  0.98119473  0.82962667  0.86586936  1  0  0.103006  0  0.994103  0  0  0.111271  0  1.060861  0  0  0.113637  0  1.061619  0  0  0.098637  0.10944  0  1.060817  0
H  H16  1  0.33037274  0.66912448  0.99658356  1  0  0.086196  0  0.983632  0  0  0.097185  0  1.046196  0  0  0.099204  0  1.046172  0  0  0.097291  0.095839  0  1.046087  0
H  H17  1  0.16963154  0.16914638  0.00341653  1  0  0.086275  0  0.983704  0  0  0.09724  0  1.04631  0  0  0.099266  0  1.046259  0  0  0.097269  0.095897  0  1.046202  0
H  H18  1  0.66960648  0.33087564  0.00341074  1  0  0.086207  0  0.983691  0  0  0.097194  0  1.046249  0  0  0.099228  0  1.04618  0  0  0.097293  0.09585  0  1.04614  0
H  H19  1  0.83038962  0.83089238  0.99659666  1  0  0.086229  0  0.98358  0  0  0.097218  0  1.046149  0  0  0.099235  0  1.04613  0  0  0.097318  0.095875  0  1.04604  0
H  H20  1  0.79384585  0.32796647  0.89789742  1  0  0.084288  0  0.997019  0  0  0.094869  0  1.061214  0  0  0.096559  0  1.061953  0  0  0.095093  0.093501  0  1.061162  0
H  H21  1  0.70613466  0.82799092  0.10210630  1  0  0.084288  0  0.997215  0  0  0.094885  0  1.061382  0  0  0.09658  0  1.062116  0  0  0.095085  0.093513  0  1.061334  0
H  H22  1  0.20617969  0.67199252  0.10209572  1  0  0.084237  0  0.997168  0  0  0.094812  0  1.061369  0  0  0.096505  0  1.062106  0  0  0.095069  0.093446  0  1.061315  0
H  H23  1  0.29381730  0.17199175  0.89789363  1  0  0.08423  0  0.997117  0  0  0.094861  0  1.061274  0  0  0.096553  0  1.06201  0  0  0.095099  0.093488  0  1.061225  0
H  H24  1  0.95381147  0.32276595  0.76660930  1  0  0.117211  0  0.94849  0  0  0.124413  0  1.012553  0  0  0.129025  0  1.009613  0  0  0.112264  0.121154  0  1.014688  0
H  H25  1  0.54618631  0.82279163  0.23339639  1  0  0.117195  0  0.948584  0  0  0.124392  0  1.012649  0  0  0.129006  0  1.009702  0  0  0.112223  0.121131  0  1.014785  0
H  H26  1  0.04622106  0.67721049  0.23338719  1  0  0.117213  0  0.948482  0  0  0.124407  0  1.012546  0  0  0.129021  0  1.009598  0  0  0.112228  0.121148  0  1.014684  0
H  H27  1  0.45377425  0.17719353  0.76660390  1  0  0.117342  0  0.948481  0  0  0.124507  0  1.01258  0  0  0.129118  0  1.009638  0  0  0.112275  0.12125  0  1.014715  0
H  H28  1  0.74680401  0.75200634  0.55846783  1  0  0.429336  0  0.869532  0  0  0.404038  0  0.924392  0  0  0.413297  0  0.910929  0  0  0.299447  0.397501  0  0.933904  0
H  H29  1  0.75319889  0.25200969  0.44152938  1  0  0.429369  0  0.869478  0  0  0.404066  0  0.924341  0  0  0.413325  0  0.910877  0  0  0.299472  0.397529  0  0.933854  0
H  H30  1  0.25319594  0.24799876  0.44152978  1  0  0.429315  0  0.869551  0  0  0.404063  0  0.924311  0  0  0.413321  0  0.91085  0  0  0.299483  0.397531  0  0.933814  0
H  H31  1  0.24680111  0.74799790  0.55846946  1  0  0.429333  0  0.869535  0  0  0.404028  0  0.924404  0  0  0.413285  0  0.910941  0  0  0.299429  0.39749  0  0.933918  0
H  H32  1  0.82448501  0.86050862  0.48438808  1  0  0.405901  0  0.90645  0  0  0.376026  0  0.971321  0  0  0.387331  0  0.954339  0  0  0.289926  0.368003  0  0.983366  0
H  H33  1  0.67551405  0.36051485  0.51561003  1  0  0.405962  0  0.906363  0  0  0.376062  0  0.971274  0  0  0.387367  0  0.954293  0  0  0.28993  0.368036  0  0.983318  0
H  H34  1  0.17550640  0.13949523  0.51561040  1  0  0.405989  0  0.90638  0  0  0.376091  0  0.971283  0  0  0.387397  0  0.9543  0  0  0.289929  0.368066  0  0.983331  0
H  H35  1  0.32448939  0.63949648  0.48438894  1  0  0.405956  0  0.906427  0  0  0.376078  0  0.971298  0  0  0.387385  0  0.954311  0  0  0.289915  0.368054  0  0.983344  0
C  C36  1  0.61881668  0.50333084  0.64625218  1  0  0.688683  0  3.904806  0  0  0.640125  0  4.211634  0  0  0.672223  0  4.202844  0  0  0.207533  0.61834  0  4.216993  0
C  C37  1  0.88116506  0.00335166  0.35374838  1  0  0.688667  0  3.904729  0  0  0.640154  0  4.211528  0  0  0.672267  0  4.202707  0  0  0.207529  0.618371  0  4.216882  0
C  C38  1  0.38116775  0.49664809  0.35374356  1  0  0.688922  0  3.904645  0  0  0.640458  0  4.211361  0  0  0.672576  0  4.202532  0  0  0.207721  0.618676  0  4.216721  0
C  C39  1  0.11880412  0.99666715  0.64625287  1  0  0.68867  0  3.905011  0  0  0.640152  0  4.211839  0  0  0.672265  0  4.203021  0  0  0.207647  0.618366  0  4.217195  0
C  C40  1  0.51079987  0.57485464  0.71872795  1  0  -0.085089  0  3.609439  0  0  -0.140938  0  3.86914  0  0  -0.13798  0  3.869305  0  0  -0.073083  -0.143122  0  3.869115  0
C  C41  1  0.98921091  0.07487379  0.28127635  1  0  -0.085036  0  3.609389  0  0  -0.140927  0  3.86906  0  0  -0.138  0  3.869267  0  0  -0.073227  -0.143113  0  3.869032  0
C  C42  1  0.48921912  0.42514174  0.28127350  1  0  -0.085255  0  3.609591  0  0  -0.141198  0  3.869231  0  0  -0.138259  0  3.869429  0  0  -0.073138  -0.143379  0  3.869201  0
C  C43  1  0.01078240  0.92513006  0.71872711  1  0  -0.084995  0  3.609379  0  0  -0.140944  0  3.86906  0  0  -0.138024  0  3.869268  0  0  -0.073142  -0.143118  0  3.869019  0
C  C44  1  0.22815828  0.49587143  0.80630752  1  0  0.273278  0  3.808862  0  0  0.264484  0  4.068926  0  0  0.275546  0  4.084549  0  0  0.08306  0.256966  0  4.058187  0
C  C45  1  0.27184818  0.99590578  0.19369524  1  0  0.273235  0  3.808628  0  0  0.264329  0  4.068863  0  0  0.275391  0  4.084483  0  0  0.082932  0.256806  0  4.058125  0
C  C46  1  0.77185543  0.50411623  0.19369065  1  0  0.273487  0  3.808741  0  0  0.264706  0  4.068756  0  0  0.275777  0  4.084373  0  0  0.083101  0.257185  0  4.05802  0
C  C47  1  0.72814511  0.00411054  0.80630761  1  0  0.273498  0  3.80858  0  0  0.264656  0  4.068709  0  0  0.275712  0  4.084325  0  0  0.083018  0.25713  0  4.057981  0
C  C48  1  0.33160467  0.59330637  0.87189482  1  0  -0.204874  0  3.764574  0  0  -0.221006  0  4.012186  0  0  -0.226978  0  4.032983  0  0  -0.111652  -0.217024  0  3.998522  0
C  C49  1  0.16841709  0.09333473  0.12810531  1  0  -0.204768  0  3.764876  0  0  -0.220866  0  4.012462  0  0  -0.226841  0  4.033254  0  0  -0.111529  -0.216876  0  3.998796  0
C  C50  1  0.66839686  0.40668627  0.12809917  1  0  -0.204869  0  3.764619  0  0  -0.220964  0  4.012235  0  0  -0.226941  0  4.033035  0  0  -0.111557  -0.216976  0  3.998567  0
C  C51  1  0.83159865  0.90669655  0.87190092  1  0  -0.204815  0  3.764569  0  0  -0.220934  0  4.012171  0  0  -0.226907  0  4.032972  0  0  -0.111558  -0.216944  0  3.99851  0
C  C52  1  0.24259115  0.59253129  0.94726782  1  0  -0.080026  0  3.743363  0  0  -0.096684  0  3.987023  0  0  -0.096959  0  4.00751  0  0  -0.089561  -0.096255  0  3.972789  0
C  C53  1  0.25740475  0.09255557  0.05272942  1  0  -0.080262  0  3.743927  0  0  -0.096874  0  3.987482  0  0  -0.09715  0  4.007998  0  0  -0.089623  -0.096429  0  3.973199  0
C  C54  1  0.75740013  0.40745636  0.05272759  1  0  -0.080096  0  3.743445  0  0  -0.096721  0  3.987103  0  0  -0.096982  0  4.007591  0  0  -0.089632  -0.096283  0  3.972836  0
C  C55  1  0.74259375  0.90746947  0.94727488  1  0  -0.080189  0  3.74332  0  0  -0.096812  0  3.987037  0  0  -0.09708  0  4.007517  0  0  -0.089684  -0.096371  0  3.972761  0
C  C56  1  0.04716202  0.49932295  0.95997652  1  0  0.021242  0  3.794213  0  0  0.034751  0  4.027682  0  0  0.033515  0  4.051427  0  0  -0.022442  0.035634  0  4.011523  0
C  C57  1  0.45283408  0.99933676  0.04002518  1  0  0.02144  0  3.794347  0  0  0.034956  0  4.027796  0  0  0.033716  0  4.051542  0  0  -0.022331  0.035844  0  4.011633  0
C  C58  1  0.95284816  0.50066719  0.04001905  1  0  0.021311  0  3.794066  0  0  0.034731  0  4.027591  0  0  0.03349  0  4.051336  0  0  -0.022412  0.035618  0  4.011431  0
C  C59  1  0.54714566  0.00067083  0.95998264  1  0  0.021375  0  3.793974  0  0  0.034719  0  4.02762  0  0  0.033478  0  4.051367  0  0  -0.022409  0.035608  0  4.011457  0
C  C60  1  0.94505976  0.40396716  0.89233011  1  0  -0.100044  0  3.756789  0  0  -0.118526  0  4.006172  0  0  -0.118527  0  4.025496  0  0  -0.093612  -0.118478  0  3.993596  0
C  C61  1  0.55492712  0.90398392  0.10766842  1  0  -0.100157  0  3.757072  0  0  -0.11863  0  4.006379  0  0  -0.118631  0  4.025706  0  0  -0.093616  -0.118578  0  3.993795  0
C  C62  1  0.05494703  0.59601177  0.10766655  1  0  -0.100161  0  3.757169  0  0  -0.118626  0  4.006543  0  0  -0.118629  0  4.025871  0  0  -0.093708  -0.118575  0  3.993958  0
C  C63  1  0.44503679  0.09600871  0.89232955  1  0  -0.100021  0  3.75697  0  0  -0.118489  0  4.006315  0  0  -0.118487  0  4.025639  0  0  -0.09368  -0.118437  0  3.993732  0
C  C64  1  0.03330993  0.40084090  0.81713416  1  0  -0.18559  0  3.749496  0  0  -0.205445  0  4.007614  0  0  -0.209993  0  4.024517  0  0  -0.102606  -0.202519  0  3.996272  0
C  C65  1  0.46668501  0.90085568  0.18287125  1  0  -0.185488  0  3.749087  0  0  -0.205344  0  4.007285  0  0  -0.209879  0  4.02416  0  0  -0.102577  -0.202431  0  3.995974  0
C  C66  1  0.96670890  0.59914301  0.18286299  1  0  -0.185533  0  3.749448  0  0  -0.205432  0  4.007646  0  0  -0.209978  0  4.024549  0  0  -0.102537  -0.202507  0  3.996303  0
C  C67  1  0.53328762  0.09913945  0.81713014  1  0  -0.185848  0  3.749253  0  0  -0.205694  0  4.007435  0  0  -0.210242  0  4.024339  0  0  -0.102656  -0.202771  0  3.996102  0
O  O68  1  0.79423353  0.58139073  0.62813836  1  0  -0.688659  0  1.945179  0  0  -0.632537  0  2.172917  0  0  -0.656871  0  2.162566  0  0  -0.369883  -0.615465  0  2.179594  0
O  O69  1  0.70577899  0.08138357  0.37186720  1  0  -0.688615  0  1.945892  0  0  -0.632457  0  2.173557  0  0  -0.65679  0  2.163196  0  0  -0.369855  -0.61539  0  2.18023  0
O  O70  1  0.20580266  0.41861811  0.37186380  1  0  -0.688625  0  1.946113  0  0  -0.632552  0  2.173795  0  0  -0.656878  0  2.163424  0  0  -0.36995  -0.615494  0  2.180473  0
O  O71  1  0.29422292  0.91860782  0.62813662  1  0  -0.68877  0  1.945172  0  0  -0.632582  0  2.172771  0  0  -0.656918  0  2.162409  0  0  -0.370004  -0.615507  0  2.179444  0
O  O72  1  0.53382514  0.37305957  0.61020829  1  0  -0.740097  0  2.001568  0  0  -0.69345  0  2.250139  0  0  -0.715412  0  2.235207  0  0  -0.418589  -0.678106  0  2.26009  0
O  O73  1  0.96619276  0.87304733  0.38978989  1  0  -0.740225  0  2.000768  0  0  -0.69359  0  2.249268  0  0  -0.715563  0  2.234332  0  0  -0.418663  -0.678241  0  2.259216  0
O  O74  1  0.46619536  0.62696548  0.38978770  1  0  -0.740372  0  2.000478  0  0  -0.693747  0  2.248943  0  0  -0.715727  0  2.234008  0  0  -0.41875  -0.678378  0  2.258853  0
O  O75  1  0.03381431  0.12694033  0.61021414  1  0  -0.740088  0  2.001797  0  0  -0.693432  0  2.250274  0  0  -0.715394  0  2.235332  0  0  -0.418626  -0.678084  0  2.26022  0
O  O76  1  0.70795178  0.85103556  0.52319664  1  0  -0.917848  0  1.812591  0  0  -0.874796  0  1.988132  0  0  -0.890986  0  1.955237  0  0  -0.694808  -0.86336  0  2.011228  0
O  O77  1  0.79204727  0.35104042  0.47680031  1  0  -0.917935  0  1.812445  0  0  -0.874873  0  1.988022  0  0  -0.891065  0  1.955121  0  0  -0.69481  -0.863434  0  2.011138  0
O  O78  1  0.29204139  0.14896705  0.47680314  1  0  -0.917901  0  1.812562  0  0  -0.874859  0  1.988142  0  0  -0.89105  0  1.955242  0  0  -0.694792  -0.863426  0  2.01124  0
O  O79  1  0.20795607  0.64897091  0.52319621  1  0  -0.917902  0  1.812569  0  0  -0.874844  0  1.988121  0  0  -0.891036  0  1.955228  0  0  -0.694769  -0.86341  0  2.011223  0
O  O80  1  0.30681896  0.48333640  0.73084812  1  0  -0.307098  0  2.377584  0  0  -0.239345  0  2.621502  0  0  -0.255592  0  2.62231  0  0  -0.215573  -0.227795  0  2.620561  0
O  O81  1  0.19319267  0.98336984  0.26915371  1  0  -0.306984  0  2.377629  0  0  -0.239164  0  2.621595  0  0  -0.255402  0  2.622398  0  0  -0.215374  -0.227611  0  2.620648  0
O  O82  1  0.69319975  0.51665001  0.26914596  1  0  -0.306993  0  2.377978  0  0  -0.239261  0  2.621946  0  0  -0.255522  0  2.62276  0  0  -0.215457  -0.227712  0  2.621002  0
O  O83  1  0.80680066  0.01664149  0.73085037  1  0  -0.307097  0  2.377823  0  0  -0.23932  0  2.621804  0  0  -0.255544  0  2.622597  0  0  -0.215467  -0.227767  0  2.620856  0
