# generated using pymatgen
data_CdH4C7N4O3
_symmetry_space_group_name_H-M   'P 1'
_cell_length_a   8.89413151
_cell_length_b   9.65095173
_cell_length_c   10.74398390
_cell_angle_alpha   89.99998083
_cell_angle_beta   89.99990594
_cell_angle_gamma   111.03705780
_symmetry_Int_Tables_number   1
_chemical_formula_structural   CdH4C7N4O3
_chemical_formula_sum   'Cd4 H16 C28 N16 O12'
_cell_volume   860.76152709
_cell_formula_units_Z   4
loop_
 _symmetry_equiv_pos_site_id
 _symmetry_equiv_pos_as_xyz
  1  'x, y, z'
loop_
 _atom_site_type_symbol
 _atom_site_label
 _atom_site_symmetry_multiplicity
 _atom_site_fract_x
 _atom_site_fract_y
 _atom_site_fract_z
 _atom_site_occupancy
 _atom_site_hle17_bader_spin_density
 _atom_site_hle17_ddec_charge
 _atom_site_hle17_ddec_spin_density
 _atom_site_hle17_ddec_sum_bond_order
 _atom_site_hle17_magmom
 _atom_site_hse06_10hf_bader_spin_density
 _atom_site_hse06_10hf_ddec_charge
 _atom_site_hse06_10hf_ddec_spin_density
 _atom_site_hse06_10hf_ddec_sum_bond_order
 _atom_site_hse06_10hf_magmom
 _atom_site_hse06_bader_spin_density
 _atom_site_hse06_ddec_charge
 _atom_site_hse06_ddec_spin_density
 _atom_site_hse06_ddec_sum_bond_order
 _atom_site_hse06_magmom
 _atom_site_pbe_bader_spin_density
 _atom_site_pbe_cm5_charge
 _atom_site_pbe_ddec_charge
 _atom_site_pbe_ddec_spin_density
 _atom_site_pbe_ddec_sum_bond_order
 _atom_site_pbe_magmom
Cd  Cd0  1  0.84963521  0.69554602  0.27642471  1  0  1.162078  0  1.655259  0  0  0.962558  0  2.11011  0  0  1.015473  0  2.061849  0  0  0.814609  0.924494  0  2.143092  0
Cd  Cd1  1  0.65036657  0.30445464  0.77642473  1  0  1.162085  0  1.655235  0  0  0.962568  0  2.110088  0  0  1.015482  0  2.061828  0  0  0.814613  0.924502  0  2.143069  0
Cd  Cd2  1  0.15036605  0.30445438  0.72357502  1  0  1.162063  0  1.655223  0  0  0.962543  0  2.110075  0  0  1.015457  0  2.061815  0  0  0.81461  0.924475  0  2.143057  0
Cd  Cd3  1  0.34963469  0.69554576  0.22357501  1  0  1.162076  0  1.655259  0  0  0.962548  0  2.110112  0  0  1.015463  0  2.061851  0  0  0.814612  0.924484  0  2.143093  0
H  H4  1  0.86132037  0.58315995  0.97579658  1  0  0.089404  0  0.945834  0  0  0.094943  0  1.016561  0  0  0.097998  0  1.012444  0  0  0.126909  0.092755  0  1.019481  0
H  H5  1  0.63868006  0.41683825  0.47579601  1  0  0.089393  0  0.94581  0  0  0.094916  0  1.01655  0  0  0.097971  0  1.012433  0  0  0.126913  0.09273  0  1.019469  0
H  H6  1  0.13868114  0.41683823  0.02420316  1  0  0.089363  0  0.945881  0  0  0.094917  0  1.016586  0  0  0.097971  0  1.01247  0  0  0.126903  0.092728  0  1.01951  0
H  H7  1  0.36132008  0.58316214  0.52420280  1  0  0.089419  0  0.945816  0  0  0.094942  0  1.016559  0  0  0.097997  0  1.012442  0  0  0.126903  0.092755  0  1.019479  0
H  H8  1  0.28422982  0.22083513  0.34891318  1  0  0.086919  0  0.906285  0  0  0.098405  0  0.96296  0  0  0.100914  0  0.959923  0  0  0.137388  0.096929  0  0.964334  0
H  H9  1  0.21577061  0.77916486  0.84891203  1  0  0.086917  0  0.906193  0  0  0.098349  0  0.962937  0  0  0.100859  0  0.959899  0  0  0.137353  0.096871  0  0.964311  0
H  H10  1  0.71576962  0.77916638  0.65108656  1  0  0.086875  0  0.906238  0  0  0.09835  0  0.962938  0  0  0.100858  0  0.959902  0  0  0.137351  0.096873  0  0.964312  0
H  H11  1  0.78423022  0.22083443  0.15108771  1  0  0.086867  0  0.906251  0  0  0.098342  0  0.96295  0  0  0.10085  0  0.959914  0  0  0.137356  0.096865  0  0.964324  0
H  H12  1  0.07567820  0.03904041  0.08812368  1  0  0.120866  0  0.914066  0  0  0.1337  0  0.973335  0  0  0.13641  0  0.970839  0  0  0.121826  0.131612  0  0.975436  0
H  H13  1  0.42432286  0.96095989  0.58812312  1  0  0.120923  0  0.914027  0  0  0.133753  0  0.973295  0  0  0.136461  0  0.970802  0  0  0.121866  0.131664  0  0.975396  0
H  H14  1  0.92432263  0.96095888  0.91187606  1  0  0.120931  0  0.914049  0  0  0.13377  0  0.973298  0  0  0.136479  0  0.970804  0  0  0.121861  0.131681  0  0.975399  0
H  H15  1  0.57567839  0.03904051  0.41187755  1  0  0.120941  0  0.914024  0  0  0.133765  0  0.973288  0  0  0.136474  0  0.970794  0  0  0.121867  0.131675  0  0.975388  0
H  H16  1  0.08687215  0.04833035  0.25269298  1  0  0.132936  0  0.936759  0  0  0.143119  0  1.000448  0  0  0.146135  0  0.998414  0  0  0.125239  0.140911  0  1.002009  0
H  H17  1  0.41312652  0.95166753  0.75269244  1  0  0.132921  0  0.936789  0  0  0.14311  0  1.000475  0  0  0.146128  0  0.998435  0  0  0.125232  0.140902  0  1.002036  0
H  H18  1  0.91312712  0.95166783  0.74730676  1  0  0.132924  0  0.936777  0  0  0.143104  0  1.000472  0  0  0.146123  0  0.998433  0  0  0.125231  0.140897  0  1.002029  0
H  H19  1  0.58687206  0.04833176  0.24730823  1  0  0.132945  0  0.936766  0  0  0.143124  0  1.00046  0  0  0.146142  0  0.998421  0  0  0.12524  0.140916  0  1.00202  0
C  C20  1  0.75186396  0.51131643  0.02133135  1  0  0.26039  0  3.704051  0  0  0.199751  0  3.982031  0  0  0.21565  0  3.995798  0  0  0.140741  0.189163  0  3.97218  0
C  C21  1  0.74813646  0.48868231  0.52133118  1  0  0.26046  0  3.703928  0  0  0.199845  0  3.981915  0  0  0.215744  0  3.995679  0  0  0.140763  0.189253  0  3.972068  0
C  C22  1  0.24813687  0.48868286  0.97866932  1  0  0.260412  0  3.704073  0  0  0.199771  0  3.982068  0  0  0.215669  0  3.995834  0  0  0.140733  0.18918  0  3.972217  0
C  C23  1  0.25186437  0.51131698  0.47866856  1  0  0.260367  0  3.704005  0  0  0.199743  0  3.981994  0  0  0.215641  0  3.995759  0  0  0.14075  0.189153  0  3.972144  0
C  C24  1  0.57170079  0.41120483  0.16273620  1  0  0.306811  0  3.901905  0  0  0.276953  0  4.178703  0  0  0.290715  0  4.198158  0  0  0.191995  0.267972  0  4.165398  0
C  C25  1  0.92830014  0.58879597  0.66273482  1  0  0.306677  0  3.902075  0  0  0.276867  0  4.178824  0  0  0.290628  0  4.198282  0  0  0.191963  0.267887  0  4.165516  0
C  C26  1  0.42829977  0.58879668  0.83726446  1  0  0.306646  0  3.902105  0  0  0.276885  0  4.178794  0  0  0.290647  0  4.19825  0  0  0.19198  0.267904  0  4.165485  0
C  C27  1  0.07170068  0.41120332  0.33726398  1  0  0.306655  0  3.902102  0  0  0.276919  0  4.178757  0  0  0.290682  0  4.198212  0  0  0.191982  0.267938  0  4.165452  0
C  C28  1  0.52514623  0.33160036  0.05155403  1  0  -0.064303  0  3.852039  0  0  -0.066043  0  4.101735  0  0  -0.074054  0  4.126316  0  0  0.064058  -0.061451  0  4.085308  0
C  C29  1  0.97485343  0.66839945  0.55155349  1  0  -0.064204  0  3.852041  0  0  -0.065987  0  4.101751  0  0  -0.073996  0  4.126332  0  0  0.064063  -0.061395  0  4.085323  0
C  C30  1  0.47485321  0.66840115  0.94844571  1  0  -0.064269  0  3.85206  0  0  -0.066038  0  4.101738  0  0  -0.074046  0  4.126318  0  0  0.064055  -0.061448  0  4.085312  0
C  C31  1  0.02514809  0.33159873  0.44844625  1  0  -0.064261  0  3.852043  0  0  -0.066041  0  4.101738  0  0  -0.07405  0  4.12632  0  0  0.064055  -0.061452  0  4.085315  0
C  C32  1  0.37829828  0.20698320  0.04266731  1  0  0.458548  0  3.88783  0  0  0.414905  0  4.173369  0  0  0.443197  0  4.176002  0  0  0.217465  0.395898  0  4.171481  0
C  C33  1  0.12170151  0.79301937  0.54266536  1  0  0.458458  0  3.887986  0  0  0.414851  0  4.173495  0  0  0.443139  0  4.176131  0  0  0.217452  0.395843  0  4.171606  0
C  C34  1  0.62169891  0.79301830  0.95733057  1  0  0.458571  0  3.887782  0  0  0.414929  0  4.173324  0  0  0.443217  0  4.175961  0  0  0.217466  0.395922  0  4.171435  0
C  C35  1  0.87830087  0.20698103  0.45733159  1  0  0.458581  0  3.887797  0  0  0.414901  0  4.17336  0  0  0.443186  0  4.175999  0  0  0.217445  0.395894  0  4.171472  0
C  C36  1  0.35712969  0.26012313  0.26542082  1  0  0.26454  0  3.684335  0  0  0.202584  0  3.969096  0  0  0.221923  0  3.977118  0  0  0.17645  0.190053  0  3.962779  0
C  C37  1  0.14286826  0.73987585  0.76541885  1  0  0.264549  0  3.684317  0  0  0.202634  0  3.969064  0  0  0.221976  0  3.977078  0  0  0.176458  0.190102  0  3.962743  0
C  C38  1  0.64286819  0.73987727  0.73457985  1  0  0.264559  0  3.68432  0  0  0.202613  0  3.96908  0  0  0.221952  0  3.977102  0  0  0.176454  0.190081  0  3.96276  0
C  C39  1  0.85713144  0.26012344  0.23458089  1  0  0.26468  0  3.684291  0  0  0.202712  0  3.969034  0  0  0.222054  0  3.977049  0  0  0.176498  0.190181  0  3.962718  0
C  C40  1  0.15440312  0.04490632  0.16801578  1  0  -0.165143  0  3.637026  0  0  -0.227629  0  3.890772  0  0  -0.228119  0  3.896326  0  0  -0.057518  -0.227376  0  3.887466  0
C  C41  1  0.34559732  0.95509278  0.66801440  1  0  -0.165187  0  3.636986  0  0  -0.227685  0  3.890745  0  0  -0.228172  0  3.896297  0  0  -0.057551  -0.227432  0  3.887437  0
C  C42  1  0.84559771  0.95509297  0.83198489  1  0  -0.165213  0  3.637085  0  0  -0.227687  0  3.890842  0  0  -0.228175  0  3.896396  0  0  -0.057549  -0.227432  0  3.887534  0
C  C43  1  0.65440239  0.04490651  0.33198534  1  0  -0.165233  0  3.636997  0  0  -0.22772  0  3.890744  0  0  -0.228206  0  3.896294  0  0  -0.057561  -0.227462  0  3.887436  0
C  C44  1  0.19595419  0.90474594  0.17229243  1  0  0.708021  0  3.843678  0  0  0.655646  0  4.141844  0  0  0.690595  0  4.133906  0  0  0.214747  0.632082  0  4.14594  0
C  C45  1  0.30404442  0.09525426  0.67229137  1  0  0.708114  0  3.843548  0  0  0.655763  0  4.141685  0  0  0.69071  0  4.133749  0  0  0.214805  0.632199  0  4.145781  0
C  C46  1  0.80404707  0.09525446  0.82770917  1  0  0.708077  0  3.843725  0  0  0.65567  0  4.141944  0  0  0.690619  0  4.134008  0  0  0.214753  0.632105  0  4.146039  0
C  C47  1  0.69595416  0.90474503  0.32770930  1  0  0.708046  0  3.843686  0  0  0.655622  0  4.141927  0  0  0.690569  0  4.133991  0  0  0.214741  0.632058  0  4.146024  0
N  N48  1  0.64110830  0.39623921  0.96311059  1  0  -0.434307  0  3.265266  0  0  -0.353328  0  3.552347  0  0  -0.376322  0  3.570456  0  0  -0.369334  -0.336865  0  3.539016  0
N  N49  1  0.85889035  0.60376012  0.46310966  1  0  -0.434344  0  3.265283  0  0  -0.353362  0  3.552359  0  0  -0.376355  0  3.570464  0  0  -0.36935  -0.3369  0  3.539035  0
N  N50  1  0.35889071  0.60376119  0.03689008  1  0  -0.434317  0  3.265259  0  0  -0.353342  0  3.552348  0  0  -0.376337  0  3.570457  0  0  -0.369354  -0.336879  0  3.539018  0
N  N51  1  0.14111048  0.39623917  0.53688915  1  0  -0.43429  0  3.265196  0  0  -0.35331  0  3.552275  0  0  -0.376304  0  3.570381  0  0  -0.369345  -0.336848  0  3.538947  0
N  N52  1  0.71447056  0.52606146  0.14162102  1  0  -0.497254  0  3.216712  0  0  -0.412238  0  3.50959  0  0  -0.438539  0  3.522591  0  0  -0.371194  -0.394029  0  3.499916  0
N  N53  1  0.78552887  0.47393825  0.64162080  1  0  -0.497244  0  3.216685  0  0  -0.412249  0  3.509548  0  0  -0.438552  0  3.522552  0  0  -0.37119  -0.394039  0  3.499874  0
N  N54  1  0.28553070  0.47393894  0.85837965  1  0  -0.497157  0  3.216742  0  0  -0.412181  0  3.509608  0  0  -0.438484  0  3.522612  0  0  -0.371152  -0.393971  0  3.499932  0
N  N55  1  0.21447014  0.52606215  0.35837987  1  0  -0.497182  0  3.21671  0  0  -0.41221  0  3.509559  0  0  -0.438514  0  3.522562  0  0  -0.371179  -0.394001  0  3.499885  0
N  N56  1  0.49023912  0.37670021  0.27257541  1  0  -0.420096  0  3.061229  0  0  -0.38762  0  3.350473  0  0  -0.404125  0  3.360648  0  0  -0.333744  -0.376673  0  3.343149  0
N  N57  1  0.00976106  0.62329876  0.77257366  1  0  -0.420029  0  3.061329  0  0  -0.387567  0  3.350528  0  0  -0.404071  0  3.360703  0  0  -0.333711  -0.376621  0  3.343202  0
N  N58  1  0.50976101  0.62330019  0.72742526  1  0  -0.420008  0  3.061326  0  0  -0.38756  0  3.350531  0  0  -0.404062  0  3.360705  0  0  -0.333723  -0.376612  0  3.343203  0
N  N59  1  0.99023752  0.37670053  0.22742608  1  0  -0.420085  0  3.061301  0  0  -0.387663  0  3.350524  0  0  -0.404166  0  3.360696  0  0  -0.333746  -0.376715  0  3.343197  0
N  N60  1  0.29768886  0.17866769  0.15994603  1  0  -0.171582  0  3.445556  0  0  -0.084253  0  3.671574  0  0  -0.105161  0  3.693488  0  0  -0.238768  -0.070402  0  3.656732  0
N  N61  1  0.20230978  0.82133253  0.65994395  1  0  -0.171588  0  3.445629  0  0  -0.08426  0  3.671615  0  0  -0.105168  0  3.693531  0  0  -0.238741  -0.070407  0  3.656766  0
N  N62  1  0.70231058  0.82133382  0.84005464  1  0  -0.171585  0  3.445612  0  0  -0.084257  0  3.671619  0  0  -0.105164  0  3.693535  0  0  -0.238716  -0.070405  0  3.656772  0
N  N63  1  0.79769061  0.17866565  0.34005485  1  0  -0.171635  0  3.445628  0  0  -0.084225  0  3.67156  0  0  -0.105133  0  3.693475  0  0  -0.238732  -0.070376  0  3.656719  0
O  O64  1  0.31951814  0.12887206  0.95036790  1  0  -0.541099  0  1.918546  0  0  -0.502365  0  2.14083  0  0  -0.52358  0  2.13524  0  0  -0.307161  -0.487742  0  2.14397  0
O  O65  1  0.18048221  0.87113114  0.45036714  1  0  -0.5411  0  1.918672  0  0  -0.502352  0  2.140937  0  0  -0.523565  0  2.135347  0  0  -0.307172  -0.487731  0  2.144077  0
O  O66  1  0.68048260  0.87113278  0.04963183  1  0  -0.541119  0  1.918464  0  0  -0.502384  0  2.14073  0  0  -0.5236  0  2.135142  0  0  -0.307188  -0.487761  0  2.143869  0
O  O67  1  0.81951862  0.12886815  0.54963167  1  0  -0.541135  0  1.91851  0  0  -0.502383  0  2.140798  0  0  -0.523595  0  2.13521  0  0  -0.307171  -0.487759  0  2.143938  0
O  O68  1  0.34319296  0.92068947  0.18230724  1  0  -0.616055  0  2.029881  0  0  -0.543529  0  2.277533  0  0  -0.573742  0  2.26776  0  0  -0.312263  -0.522583  0  2.283261  0
O  O69  1  0.15680787  0.07931072  0.68230824  1  0  -0.616065  0  2.029845  0  0  -0.543546  0  2.27749  0  0  -0.573761  0  2.267723  0  0  -0.312289  -0.5226  0  2.283216  0
O  O70  1  0.65680830  0.07931093  0.81769343  1  0  -0.616067  0  2.029891  0  0  -0.543547  0  2.277577  0  0  -0.573761  0  2.267809  0  0  -0.31228  -0.522601  0  2.283305  0
O  O71  1  0.84319226  0.92068968  0.31769243  1  0  -0.616089  0  2.029879  0  0  -0.54356  0  2.277563  0  0  -0.573776  0  2.267801  0  0  -0.312292  -0.522613  0  2.283291  0
O  O72  1  0.08284084  0.77833903  0.16673221  1  0  -0.680672  0  2.005651  0  0  -0.605552  0  2.270009  0  0  -0.635362  0  2.254687  0  0  -0.341436  -0.584737  0  2.279383  0
O  O73  1  0.41715891  0.22166118  0.66673281  1  0  -0.680745  0  2.005601  0  0  -0.605635  0  2.269955  0  0  -0.635444  0  2.254632  0  0  -0.341478  -0.58482  0  2.279331  0
O  O74  1  0.91715886  0.22166026  0.83326846  1  0  -0.680697  0  2.005704  0  0  -0.605573  0  2.270088  0  0  -0.635382  0  2.254766  0  0  -0.341446  -0.584758  0  2.279463  0
O  O75  1  0.58284123  0.77833922  0.33326879  1  0  -0.680651  0  2.005706  0  0  -0.605508  0  2.270077  0  0  -0.635316  0  2.254758  0  0  -0.341421  -0.584692  0  2.279452  0
