# generated using pymatgen
data_ZnH18C15N6Cl2O
_symmetry_space_group_name_H-M   'P 1'
_cell_length_a   7.86968882
_cell_length_b   8.88471128
_cell_length_c   13.85639254
_cell_angle_alpha   104.28556974
_cell_angle_beta   100.11297459
_cell_angle_gamma   106.75612990
_symmetry_Int_Tables_number   1
_chemical_formula_structural   ZnH18C15N6Cl2O
_chemical_formula_sum   'Zn2 H36 C30 N12 Cl4 O2'
_cell_volume   866.65314333
_cell_formula_units_Z   2
loop_
 _symmetry_equiv_pos_site_id
 _symmetry_equiv_pos_as_xyz
  1  'x, y, z'
loop_
 _atom_site_type_symbol
 _atom_site_label
 _atom_site_symmetry_multiplicity
 _atom_site_fract_x
 _atom_site_fract_y
 _atom_site_fract_z
 _atom_site_occupancy
 _atom_site_hle17_bader_spin_density
 _atom_site_hle17_ddec_charge
 _atom_site_hle17_ddec_spin_density
 _atom_site_hle17_ddec_sum_bond_order
 _atom_site_hle17_magmom
 _atom_site_hse06_10hf_bader_spin_density
 _atom_site_hse06_10hf_ddec_charge
 _atom_site_hse06_10hf_ddec_spin_density
 _atom_site_hse06_10hf_ddec_sum_bond_order
 _atom_site_hse06_10hf_magmom
 _atom_site_hse06_bader_spin_density
 _atom_site_hse06_ddec_charge
 _atom_site_hse06_ddec_spin_density
 _atom_site_hse06_ddec_sum_bond_order
 _atom_site_hse06_magmom
 _atom_site_pbe_bader_spin_density
 _atom_site_pbe_cm5_charge
 _atom_site_pbe_ddec_charge
 _atom_site_pbe_ddec_spin_density
 _atom_site_pbe_ddec_sum_bond_order
 _atom_site_pbe_magmom
Zn  Zn0  1  0.34756658  0.45489475  0.21030818  1  0  0.892883  0  2.116431  0  0  0.726708  0  2.613271  0  0  0.76683  0  2.562086  0  0  0.555015  0.698785  0  2.648377  0
Zn  Zn1  1  0.65243556  0.54510562  0.78969184  1  0  0.892902  0  2.11644  0  0  0.726734  0  2.613287  0  0  0.766858  0  2.562099  0  0  0.555019  0.698811  0  2.648397  0
H  H2  1  0.28998163  0.24395940  0.32848209  1  0  0.270452  0  0.949748  0  0  0.253164  0  1.020132  0  0  0.260394  0  1.014704  0  0  0.283753  0.24802  0  1.024054  0
H  H3  1  0.71001793  0.75604097  0.67151840  1  0  0.270488  0  0.949714  0  0  0.253196  0  1.0201  0  0  0.260426  0  1.014671  0  0  0.283764  0.248051  0  1.02402  0
H  H4  1  0.86059865  0.52126444  0.00264258  1  0  0.278346  0  0.944836  0  0  0.255866  0  1.021072  0  0  0.262848  0  1.016002  0  0  0.291297  0.250912  0  1.024713  0
H  H5  1  0.13940396  0.47873717  0.99735769  1  0  0.278369  0  0.944805  0  0  0.255867  0  1.021062  0  0  0.262849  0  1.01599  0  0  0.291279  0.250911  0  1.024702  0
H  H6  1  0.41252162  0.28616402  0.99498644  1  0  0.101507  0  0.982919  0  0  0.105951  0  1.056361  0  0  0.109234  0  1.05209  0  0  0.120135  0.103496  0  1.059448  0
H  H7  1  0.58748018  0.71383882  0.00501322  1  0  0.101481  0  0.982902  0  0  0.105929  0  1.056348  0  0  0.10921  0  1.052077  0  0  0.120119  0.103467  0  1.059441  0
H  H8  1  0.26414578  0.13769370  0.46581735  1  0  0.075139  0  0.943831  0  0  0.088708  0  1.010321  0  0  0.089131  0  1.010389  0  0  0.105593  0.088352  0  1.010404  0
H  H9  1  0.73585249  0.86230667  0.53418302  1  0  0.075134  0  0.94383  0  0  0.088699  0  1.010324  0  0  0.089118  0  1.01039  0  0  0.105592  0.088342  0  1.010407  0
H  H10  1  0.13073516  0.93667427  0.37857157  1  0  0.08364  0  0.935634  0  0  0.097683  0  0.999407  0  0  0.098595  0  0.999209  0  0  0.111466  0.096982  0  0.999677  0
H  H11  1  0.86926521  0.06332486  0.62142808  1  0  0.083622  0  0.935606  0  0  0.09766  0  0.999392  0  0  0.098568  0  0.99919  0  0  0.111396  0.096956  0  0.999669  0
H  H12  1  0.79272113  0.85731459  0.31739771  1  0  0.086187  0  0.970212  0  0  0.093792  0  1.041016  0  0  0.096732  0  1.039383  0  0  0.092118  0.091633  0  1.0423  0
H  H13  1  0.20727830  0.14268207  0.68260290  1  0  0.086175  0  0.970179  0  0  0.093748  0  1.041013  0  0  0.096715  0  1.039352  0  0  0.092134  0.091596  0  1.042291  0
H  H14  1  0.51126706  0.91686285  0.34051059  1  0  0.086922  0  0.955648  0  0  0.095797  0  1.018862  0  0  0.098467  0  1.017988  0  0  0.091579  0.093836  0  1.019595  0
H  H15  1  0.48872965  0.08313009  0.65948989  1  0  0.086799  0  0.95567  0  0  0.095664  0  1.018899  0  0  0.098354  0  1.018006  0  0  0.091536  0.093698  0  1.019633  0
H  H16  1  0.53904986  0.19874363  0.45035590  1  0  0.083322  0  0.989152  0  0  0.0904  0  1.059216  0  0  0.093105  0  1.058254  0  0  0.088416  0.088457  0  1.059989  0
H  H17  1  0.46094780  0.80125178  0.54964506  1  0  0.083316  0  0.989148  0  0  0.090431  0  1.059172  0  0  0.093137  0  1.058209  0  0  0.088446  0.08849  0  1.059943  0
H  H18  1  0.84441074  0.41271928  0.53533674  1  0  0.08136  0  0.980399  0  0  0.088901  0  1.049318  0  0  0.091215  0  1.048935  0  0  0.091802  0.087245  0  1.049649  0
H  H19  1  0.15558480  0.58727737  0.46466205  1  0  0.08136  0  0.980394  0  0  0.088865  0  1.049353  0  0  0.091178  0  1.048974  0  0  0.09179  0.087209  0  1.049683  0
H  H20  1  0.12868634  0.35131232  0.51280480  1  0  0.09085  0  0.971693  0  0  0.098917  0  1.040164  0  0  0.101818  0  1.038864  0  0  0.0906  0.096788  0  1.041209  0
H  H21  1  0.87130967  0.64868556  0.48719351  1  0  0.090787  0  0.971691  0  0  0.098868  0  1.040156  0  0  0.10177  0  1.038856  0  0  0.090584  0.096738  0  1.041197  0
H  H22  1  0.34403085  0.05093830  0.84057089  1  0  0.119204  0  0.964359  0  0  0.135682  0  1.031058  0  0  0.136537  0  1.031662  0  0  0.105144  0.134922  0  1.0308  0
H  H23  1  0.65596741  0.94906206  0.15942803  1  0  0.119201  0  0.964363  0  0  0.135674  0  1.031055  0  0  0.13653  0  1.031658  0  0  0.105138  0.134917  0  1.030796  0
H  H24  1  0.13313641  0.88598658  0.81888334  1  0  0.117999  0  0.950511  0  0  0.134718  0  1.015195  0  0  0.135966  0  1.014942  0  0  0.109614  0.133696  0  1.015503  0
H  H25  1  0.86686234  0.11401502  0.18111655  1  0  0.117975  0  0.950543  0  0  0.134694  0  1.015228  0  0  0.135943  0  1.014973  0  0  0.109604  0.133672  0  1.015538  0
H  H26  1  0.34777438  0.86659990  0.86966513  1  0  0.103562  0  0.936334  0  0  0.125126  0  0.996513  0  0  0.125564  0  0.996732  0  0  0.104656  0.124672  0  0.996497  0
H  H27  1  0.65222437  0.13340171  0.13033475  1  0  0.103592  0  0.93645  0  0  0.125159  0  0.996609  0  0  0.125594  0  0.996838  0  0  0.104681  0.124712  0  0.99658  0
H  H28  1  0.72832643  0.41968658  0.11346737  1  0  0.060855  0  0.942073  0  0  0.074267  0  1.01322  0  0  0.074361  0  1.013452  0  0  0.101309  0.074075  0  1.013208  0
H  H29  1  0.27167619  0.58031503  0.88653289  1  0  0.060854  0  0.942141  0  0  0.074295  0  1.013282  0  0  0.07439  0  1.013511  0  0  0.10132  0.074104  0  1.013269  0
H  H30  1  0.78720158  0.62266588  0.19876714  1  0  0.070934  0  0.945786  0  0  0.08302  0  1.017681  0  0  0.083653  0  1.016789  0  0  0.102171  0.082469  0  1.018433  0
H  H31  1  0.21279974  0.37733573  0.80123227  1  0  0.070985  0  0.945827  0  0  0.083087  0  1.017692  0  0  0.083719  0  1.016803  0  0  0.102222  0.082536  0  1.018446  0
H  H32  1  0.09571096  0.62553357  0.27676297  1  0  0.061457  0  0.932112  0  0  0.072046  0  1.002191  0  0  0.072808  0  1.001256  0  0  0.100327  0.071352  0  1.003046  0
H  H33  1  0.90428990  0.37446680  0.72323837  1  0  0.061434  0  0.932083  0  0  0.072033  0  1.002175  0  0  0.072796  0  1.001239  0  0  0.10033  0.071339  0  1.003031  0
H  H34  1  0.91669793  0.45801009  0.28683016  1  0  0.059197  0  0.907049  0  0  0.077568  0  0.962207  0  0  0.077658  0  0.96267  0  0  0.102162  0.077398  0  0.962022  0
H  H35  1  0.08330292  0.54199028  0.71316973  1  0  0.059178  0  0.907033  0  0  0.077559  0  0.962204  0  0  0.077649  0  0.962669  0  0  0.10216  0.077386  0  0.962023  0
H  H36  1  0.99773581  0.32998758  0.10710445  1  0  0.347679  0  0.945373  0  0  0.310816  0  1.034982  0  0  0.322424  0  1.023294  0  0  0.284293  0.302714  0  1.043047  0
H  H37  1  0.00226600  0.67001527  0.89289592  1  0  0.347697  0  0.945407  0  0  0.310872  0  1.034958  0  0  0.322477  0  1.02327  0  0  0.284326  0.30277  0  1.043019  0
C  C38  1  0.02679889  0.75409127  0.09529657  1  0  0.582749  0  3.848507  0  0  0.530505  0  4.138162  0  0  0.557939  0  4.144221  0  0  0.336778  0.512187  0  4.133511  0
C  C39  1  0.97320373  0.24591034  0.90470297  1  0  0.582783  0  3.848496  0  0  0.53057  0  4.138092  0  0  0.558009  0  4.144149  0  0  0.336821  0.512263  0  4.133434  0
C  C40  1  0.18743174  0.95066674  0.03805785  1  0  0.301938  0  3.837661  0  0  0.258355  0  4.112022  0  0  0.274723  0  4.12861  0  0  0.213954  0.247687  0  4.100632  0
C  C41  1  0.81256959  0.04933486  0.96194228  1  0  0.301891  0  3.837547  0  0  0.258346  0  4.111872  0  0  0.274717  0  4.128461  0  0  0.21395  0.247671  0  4.100498  0
C  C42  1  0.22994800  0.07355288  0.13299890  1  0  -0.070276  0  3.795901  0  0  -0.071922  0  4.058835  0  0  -0.080758  0  4.081806  0  0  0.062791  -0.066681  0  4.04383  0
C  C43  1  0.77005591  0.92644873  0.86700221  1  0  -0.070166  0  3.795654  0  0  -0.071851  0  4.058644  0  0  -0.080688  0  4.081614  0  0  0.062839  -0.066613  0  4.043642  0
C  C44  1  0.16995548  0.02009934  0.21424647  1  0  0.41275  0  3.87224  0  0  0.374611  0  4.146899  0  0  0.399356  0  4.155301  0  0  0.24499  0.358213  0  4.140808  0
C  C45  1  0.83004794  0.97990103  0.78575295  1  0  0.412824  0  3.872167  0  0  0.374644  0  4.146897  0  0  0.39939  0  4.155297  0  0  0.245005  0.358241  0  4.140814  0
C  C46  1  0.34689189  0.19456341  0.02896615  1  0  0.182031  0  3.636458  0  0  0.114032  0  3.913126  0  0  0.131175  0  3.921575  0  0  0.147097  0.102845  0  3.907206  0
C  C47  1  0.65310943  0.80543820  0.97103398  1  0  0.182084  0  3.636439  0  0  0.11408  0  3.913108  0  0  0.131224  0  3.921559  0  0  0.14711  0.102905  0  3.907178  0
C  C48  1  0.15132726  0.06878864  0.39531786  1  0  0.003377  0  3.663557  0  0  -0.062035  0  3.91421  0  0  -0.056404  0  3.924095  0  0  -0.056986  -0.065868  0  3.907639  0
C  C49  1  0.84867053  0.93121049  0.60468226  1  0  0.003442  0  3.663472  0  0  -0.061954  0  3.914093  0  0  -0.056309  0  3.923969  0  0  -0.056898  -0.065785  0  3.907523  0
C  C50  1  0.97864495  0.10191704  0.41124724  1  0  0.060893  0  3.747578  0  0  0.087421  0  3.975397  0  0  0.086143  0  4.000781  0  0  -0.017161  0.088332  0  3.958187  0
C  C51  1  0.02135317  0.89807961  0.58875107  1  0  0.06084  0  3.747443  0  0  0.087346  0  3.975296  0  0  0.086061  0  4.000681  0  0  -0.017212  0.088256  0  3.958089  0
C  C52  1  0.80435528  0.98000771  0.36415138  1  0  -0.123134  0  3.753983  0  0  -0.141617  0  3.996276  0  0  -0.144807  0  4.018867  0  0  -0.095128  -0.139335  0  3.980935  0
C  C53  1  0.19564285  0.01998894  0.63584838  1  0  -0.12307  0  3.753901  0  0  -0.141515  0  3.996199  0  0  -0.144728  0  4.018788  0  0  -0.09512  -0.139239  0  3.980862  0
C  C54  1  0.64571229  0.01379766  0.37745663  1  0  -0.07462  0  3.784336  0  0  -0.083133  0  4.026664  0  0  -0.085364  0  4.049241  0  0  -0.097602  -0.081487  0  4.011259  0
C  C55  1  0.35428441  0.98619528  0.62254312  1  0  -0.074506  0  3.784404  0  0  -0.083003  0  4.026718  0  0  -0.085255  0  4.049302  0  0  -0.097534  -0.081351  0  4.011313  0
C  C56  1  0.66076718  0.17023892  0.43847579  1  0  -0.078858  0  3.782986  0  0  -0.094156  0  4.028431  0  0  -0.096609  0  4.051127  0  0  -0.100382  -0.092405  0  4.012943  0
C  C57  1  0.33922919  0.82975650  0.56152504  1  0  -0.078857  0  3.783086  0  0  -0.094181  0  4.028499  0  0  -0.096634  0  4.051202  0  0  -0.100411  -0.092431  0  4.013011  0
C  C58  1  0.83418762  0.29189945  0.48672420  1  0  -0.079902  0  3.810645  0  0  -0.089498  0  4.055682  0  0  -0.091946  0  4.078902  0  0  -0.098903  -0.087738  0  4.039814  0
C  C59  1  0.16580697  0.70809472  0.51327482  1  0  -0.079902  0  3.810627  0  0  -0.089472  0  4.055687  0  0  -0.091917  0  4.078898  0  0  -0.0989  -0.08772  0  4.03983  0
C  C60  1  0.99248824  0.25783975  0.47352078  1  0  -0.130639  0  3.748723  0  0  -0.147561  0  3.986202  0  0  -0.150825  0  4.008524  0  0  -0.098544  -0.145223  0  3.970993  0
C  C61  1  0.00750859  0.74215690  0.52647813  1  0  -0.130577  0  3.748536  0  0  -0.147507  0  3.986024  0  0  -0.15077  0  4.008341  0  0  -0.098532  -0.145164  0  3.970805  0
C  C62  1  0.27269437  0.95335507  0.86941178  1  0  -0.157279  0  3.593207  0  0  -0.256744  0  3.832872  0  0  -0.252954  0  3.840765  0  0  -0.128784  -0.258977  0  3.827587  0
C  C63  1  0.72730438  0.04664653  0.13058810  1  0  -0.157277  0  3.593345  0  0  -0.25673  0  3.832992  0  0  -0.252944  0  3.840888  0  0  -0.128787  -0.258969  0  3.82771  0
C  C64  1  0.84335890  0.53616366  0.15527227  1  0  0.016181  0  3.696093  0  0  -0.049314  0  3.965837  0  0  -0.044355  0  3.976356  0  0  -0.068626  -0.052494  0  3.95842  0
C  C65  1  0.15664372  0.46383795  0.84472727  1  0  0.01615  0  3.696224  0  0  -0.049385  0  3.966003  0  0  -0.044431  0  3.976536  0  0  -0.068672  -0.052564  0  3.958583  0
C  C66  1  0.98442297  0.50767810  0.23247223  1  0  0.123862  0  3.588266  0  0  0.06386  0  3.857452  0  0  0.071076  0  3.862426  0  0  -0.073314  0.058972  0  3.854024  0
C  C67  1  0.01557836  0.49232351  0.76752863  1  0  0.123946  0  3.588163  0  0  0.063889  0  3.857464  0  0  0.071102  0  3.862438  0  0  -0.073316  0.059006  0  3.854037  0
N  N68  1  0.06711331  0.85940759  0.19122071  1  0  -0.538207  0  3.003395  0  0  -0.497214  0  3.283077  0  0  -0.519515  0  3.291445  0  0  -0.340469  -0.482263  0  3.277134  0
N  N69  1  0.93289141  0.14059278  0.80877956  1  0  -0.538247  0  3.003436  0  0  -0.497242  0  3.283102  0  0  -0.519544  0  3.29147  0  0  -0.340479  -0.482295  0  3.277163  0
N  N70  1  0.08607087  0.78989209  0.01374175  1  0  -0.547408  0  3.084464  0  0  -0.494886  0  3.356501  0  0  -0.516691  0  3.36548  0  0  -0.350638  -0.480185  0  3.350064  0
N  N71  1  0.91392917  0.21010952  0.98625826  1  0  -0.547355  0  3.084325  0  0  -0.494845  0  3.356369  0  0  -0.516658  0  3.365353  0  0  -0.35063  -0.480135  0  3.34991  0
N  N72  1  0.21090290  0.12177627  0.31096865  1  0  -0.37134  0  3.316992  0  0  -0.309459  0  3.557365  0  0  -0.330186  0  3.567022  0  0  -0.405254  -0.295201  0  3.550444  0
N  N73  1  0.78909972  0.87822534  0.68903306  1  0  -0.371405  0  3.317069  0  0  -0.309493  0  3.557438  0  0  -0.330224  0  3.567085  0  0  -0.405246  -0.295229  0  3.550515  0
N  N74  1  0.32794894  0.22573685  0.12474943  1  0  -0.39407  0  3.306813  0  0  -0.324581  0  3.609605  0  0  -0.341834  0  3.620738  0  0  -0.36199  -0.312832  0  3.601998  0
N  N75  1  0.67205367  0.77426476  0.87525083  1  0  -0.394166  0  3.306694  0  0  -0.32467  0  3.609502  0  0  -0.341924  0  3.620636  0  0  -0.362049  -0.312917  0  3.601887  0
N  N76  1  0.91558836  0.59628732  0.07731726  1  0  -0.448259  0  3.333277  0  0  -0.384943  0  3.584997  0  0  -0.405745  0  3.593765  0  0  -0.434643  -0.370561  0  3.578599  0
N  N77  1  0.08441426  0.40371428  0.92268300  1  0  -0.4484  0  3.33334  0  0  -0.385064  0  3.58508  0  0  -0.405866  0  3.593844  0  0  -0.434672  -0.37068  0  3.578674  0
N  N78  1  0.26695861  0.02984261  0.97413580  1  0  -0.096149  0  3.487203  0  0  0.001342  0  3.715534  0  0  -0.01565  0  3.737378  0  0  -0.239232  0.012522  0  3.70046  0
N  N79  1  0.73304142  0.97015900  0.02586421  1  0  -0.096227  0  3.487269  0  0  0.001256  0  3.715588  0  0  -0.015736  0  3.737431  0  0  -0.239257  0.012434  0  3.700519  0
Cl  Cl80  1  0.47330985  0.51718677  0.37640713  1  0  -0.530474  0  0.964238  0  0  -0.463699  0  1.236035  0  0  -0.479425  0  1.212446  0  0  -0.285255  -0.452474  0  1.252192  0
Cl  Cl81  1  0.52669100  0.48281360  0.62359277  1  0  -0.530473  0  0.964245  0  0  -0.463699  0  1.236038  0  0  -0.479426  0  1.212455  0  0  -0.285244  -0.452473  0  1.252196  0
Cl  Cl82  1  0.42257153  0.64438310  0.13026118  1  0  -0.542886  0  0.99786  0  0  -0.47693  0  1.28301  0  0  -0.491671  0  1.259425  0  0  -0.276741  -0.466366  0  1.29922  0
Cl  Cl83  1  0.57743157  0.35561975  0.86974005  1  0  -0.542913  0  0.9979  0  0  -0.476966  0  1.283053  0  0  -0.491705  0  1.259467  0  0  -0.276758  -0.466404  0  1.29926  0
O  O84  1  0.06599546  0.39360067  0.18364698  1  0  -0.571754  0  2.258432  0  0  -0.491557  0  2.532538  0  0  -0.513002  0  2.518543  0  0  -0.407413  -0.476471  0  2.541793  0
O  O85  1  0.93400764  0.60640218  0.81635353  1  0  -0.571791  0  2.258475  0  0  -0.491597  0  2.532579  0  0  -0.51304  0  2.518587  0  0  -0.407439  -0.476514  0  2.541834  0
