# generated using pymatgen
data_AlH4C17NCl4O7
_symmetry_space_group_name_H-M   'P 1'
_cell_length_a   6.63817214
_cell_length_b   21.56621650
_cell_length_c   24.29053778
_cell_angle_alpha   99.03055430
_cell_angle_beta   90.00419100
_cell_angle_gamma   90.00847816
_symmetry_Int_Tables_number   1
_chemical_formula_structural   AlH4C17NCl4O7
_chemical_formula_sum   'Al4 H16 C68 N4 Cl16 O28'
_cell_volume   3434.33595175
_cell_formula_units_Z   4
loop_
 _symmetry_equiv_pos_site_id
 _symmetry_equiv_pos_as_xyz
  1  'x, y, z'
loop_
 _atom_site_type_symbol
 _atom_site_label
 _atom_site_symmetry_multiplicity
 _atom_site_fract_x
 _atom_site_fract_y
 _atom_site_fract_z
 _atom_site_occupancy
 _atom_site_pbe_bader_charge
 _atom_site_pbe_bader_spin_density
 _atom_site_pbe_cm5_charge
 _atom_site_pbe_ddec_charge
 _atom_site_pbe_ddec_spin_density
 _atom_site_pbe_ddec_sum_bond_order
 _atom_site_pbe_magmom
Al  Al0  1  0.20060778  0.24930783  0.74832757  1  2.500698  0  0.397229  1.659569  0  2.561523  0
Al  Al1  1  0.79279212  0.75081845  0.25123139  1  2.501035  0  0.396655  1.653167  0  2.569446  0
Al  Al2  1  0.70063184  0.25066981  0.75164074  1  2.500433  0  0.397201  1.659341  0  2.562217  0
Al  Al3  1  0.29277865  0.74918174  0.24876030  1  2.500909  0  0.396633  1.653144  0  2.570154  0
H  H4  1  0.31982767  0.59211008  0.33652641  1  0.105832  0  0.112723  0.136272  0  0.983947  0
H  H5  1  0.67380005  0.40881843  0.66392558  1  0.116195  0  0.112853  0.13535  0  0.985314  0
H  H6  1  0.81988452  0.90792960  0.16348047  1  0.105405  0  0.112779  0.136224  0  0.98396  0
H  H7  1  0.17362960  0.09119667  0.83609501  1  0.115282  0  0.112912  0.135505  0  0.984874  0
H  H8  1  0.76227305  0.67943341  0.39801060  1  0.123992  0  0.111802  0.1329  0  0.998731  0
H  H9  1  0.23056362  0.32088749  0.60240410  1  0.118415  0  0.112637  0.134664  0  0.993018  0
H  H10  1  0.26217097  0.82059792  0.10200660  1  0.1242  0  0.111978  0.133128  0  0.997983  0
H  H11  1  0.73054189  0.17913939  0.89757362  1  0.117907  0  0.112609  0.134625  0  0.99282  0
H  H12  1  0.78535648  0.64604709  0.96754859  1  0.132614  0  0.116268  0.130903  0  1.002743  0
H  H13  1  0.28734999  0.36524437  0.02272706  1  0.147579  0  0.114391  0.128105  0  1.009711  0
H  H14  1  0.28780330  0.85372375  0.53267659  1  0.163955  0  0.11588  0.130408  0  1.003353  0
H  H15  1  0.78555832  0.13504560  0.47697162  1  0.100485  0  0.114676  0.128366  0  1.00983  0
H  H16  1  0.44745041  0.33299070  0.76186476  1  0.610091  0  0.356708  0.438267  0  0.843969  0
H  H17  1  0.54646153  0.66708108  0.23682330  1  0.614012  0  0.360524  0.443192  0  0.832825  0
H  H18  1  0.94737541  0.16697992  0.73826406  1  0.607987  0  0.356907  0.43871  0  0.842956  0
H  H19  1  0.04651880  0.83293658  0.26298829  1  0.612963  0  0.360598  0.443307  0  0.832619  0
C  C20  1  0.45217955  0.16979128  0.66815751  1  1.656781  0  0.265113  0.657746  0  4.129913  0
C  C21  1  0.53991574  0.83009266  0.33167063  1  1.6483  0  0.264432  0.654515  0  4.141273  0
C  C22  1  0.95220159  0.33020238  0.83180547  1  1.657922  0  0.265359  0.657935  0  4.128356  0
C  C23  1  0.03985012  0.66989227  0.16832054  1  1.648357  0  0.264627  0.654314  0  4.140889  0
C  C24  1  0.44974929  0.17927870  0.81802903  1  1.556523  0  0.26816  0.643446  0  4.094585  0
C  C25  1  0.54359470  0.82020198  0.18155774  1  1.555771  0  0.268709  0.643249  0  4.098795  0
C  C26  1  0.94983083  0.32070510  0.68194682  1  1.555326  0  0.268655  0.644038  0  4.093997  0
C  C27  1  0.04348645  0.67982567  0.31844598  1  1.555058  0  0.26816  0.642417  0  4.100664  0
C  C28  1  0.18102464  0.55489058  0.40469876  1  0.018852  0  0.023261  0.123668  0  4.011261  0
C  C29  1  0.81294948  0.44579097  0.59569180  1  0.0511  0  0.02522  0.125399  0  4.008236  0
C  C30  1  0.68099966  0.94515827  0.09531777  1  0.016343  0  0.023306  0.123698  0  4.01077  0
C  C31  1  0.31283089  0.05424910  0.90433371  1  0.06149  0  0.025168  0.125573  0  4.007454  0
C  C32  1  0.19426379  0.59548475  0.36565761  1  0.085002  0  -0.089745  -0.175144  0  3.971032  0
C  C33  1  0.79911981  0.40517546  0.63471213  1  0.058002  0  -0.089387  -0.173123  0  3.97024  0
C  C34  1  0.69426480  0.90455550  0.13435715  1  0.085167  0  -0.089853  -0.175133  0  3.970829  0
C  C35  1  0.29897825  0.09485013  0.86530808  1  0.047985  0  -0.08921  -0.173409  0  3.970097  0
C  C36  1  0.04116234  0.63948068  0.36292459  1  0.007877  0  -0.01245  -0.007049  0  3.988882  0
C  C37  1  0.95156589  0.36098812  0.63742491  1  -0.018344  0  -0.012828  -0.009363  0  3.992256  0
C  C38  1  0.54116599  0.86054815  0.13708365  1  0.009184  0  -0.012415  -0.007204  0  3.988885  0
C  C39  1  0.45147754  0.13902469  0.86256763  1  -0.018251  0  -0.012799  -0.008732  0  3.992212  0
C  C40  1  0.88015650  0.64493765  0.40062322  1  0.012336  0  -0.09065  -0.173811  0  3.96795  0
C  C41  1  0.11279767  0.35542214  0.59975726  1  0.043438  0  -0.091305  -0.175369  0  3.969195  0
C  C42  1  0.38008736  0.85509370  0.09939635  1  0.012855  0  -0.090687  -0.173815  0  3.966172  0
C  C43  1  0.61276408  0.14460300  0.90023437  1  0.0434  0  -0.091483  -0.175626  0  3.969135  0
C  C44  1  0.87326635  0.60654339  0.44139565  1  0.066206  0  0.024008  0.126811  0  4.012185  0
C  C45  1  0.12043655  0.39388372  0.55904772  1  0.054259  0  0.024635  0.127899  0  4.012389  0
C  C46  1  0.37320415  0.89350985  0.05863124  1  0.066923  0  0.024157  0.127085  0  4.011312  0
C  C47  1  0.62040352  0.10616823  0.94095740  1  0.054648  0  0.0251  0.128143  0  4.012381  0
C  C48  1  0.02061258  0.55920807  0.44388487  1  0.18342  0  -0.004318  0.022498  0  4.060661  0
C  C49  1  0.97355585  0.44133773  0.55654795  1  0.184207  0  -0.004211  0.022851  0  4.06135  0
C  C50  1  0.52055383  0.94084654  0.05613995  1  0.183236  0  -0.004559  0.021992  0  4.060577  0
C  C51  1  0.47349219  0.05870533  0.94347676  1  0.185193  0  -0.004379  0.02292  0  4.060555  0
C  C52  1  0.00598442  0.51815101  0.48323004  1  -0.370338  0  -0.040606  -0.067475  0  4.127516  0
C  C53  1  0.98876551  0.48243592  0.51726445  1  0.10467  0  -0.039937  -0.068084  0  4.128572  0
C  C54  1  0.50592996  0.98190610  0.01679653  1  -0.368567  0  -0.040421  -0.066818  0  4.126958  0
C  C55  1  0.48871710  0.01760642  0.98276062  1  0.102435  0  -0.040124  -0.068632  0  4.128883  0
C  C56  1  0.07005528  0.37093654  0.92919240  1  0.034269  0  0.030943  0.097863  0  3.990125  0
C  C57  1  0.95077475  0.63413042  0.06744593  1  0.082734  0  0.032415  0.100026  0  3.980632  0
C  C58  1  0.56948432  0.12916264  0.57070391  1  0.032896  0  0.030351  0.097297  0  3.990651  0
C  C59  1  0.45156092  0.86579488  0.43260795  1  0.082034  0  0.032172  0.099714  0  3.980101  0
C  C60  1  0.96407562  0.38126370  0.88175587  1  0.107498  0  -0.015161  -0.145831  0  3.963425  0
C  C61  1  0.03613981  0.62092665  0.11680906  1  0.08937  0  -0.010871  -0.136412  0  3.958158  0
C  C62  1  0.46398072  0.11876024  0.61819484  1  0.105943  0  -0.014981  -0.145234  0  3.963513  0
C  C63  1  0.53626860  0.87905895  0.38318411  1  0.088033  0  -0.010965  -0.13683  0  3.958845  0
C  C64  1  0.87629758  0.44019695  0.88017687  1  0.059086  0  0.030779  0.10222  0  3.981131  0
C  C65  1  0.11985939  0.56156238  0.11833761  1  0.124994  0  0.03288  0.107322  0  3.980035  0
C  C66  1  0.37664428  0.05977415  0.61980394  1  0.059387  0  0.030747  0.102315  0  3.98131  0
C  C67  1  0.61935098  0.93850243  0.38158698  1  0.123535  0  0.032116  0.105921  0  3.980468  0
C  C68  1  0.90544048  0.49131328  0.92380425  1  0.063534  0  -0.003531  -0.036144  0  3.98523  0
C  C69  1  0.13222865  0.51581087  0.06999899  1  0.08553  0  -0.002629  -0.031309  0  3.992084  0
C  C70  1  0.40618321  0.00865982  0.57620727  1  0.111756  0  -0.003373  -0.035865  0  3.986096  0
C  C71  1  0.63162104  0.98430011  0.42988789  1  0.085787  0  -0.00165  -0.028642  0  3.990022  0
C  C72  1  0.00955054  0.47957779  0.97306511  1  0.016457  0  0.017214  0.039636  0  3.875686  0
C  C73  1  0.02804514  0.52762110  0.02089721  1  -0.04304  0  0.016374  0.037775  0  3.878412  0
C  C74  1  0.50961856  0.02046160  0.52686821  1  0.017408  0  0.016514  0.039227  0  3.876089  0
C  C75  1  0.52811935  0.97240557  0.47905236  1  -0.04615  0  0.01595  0.036881  0  3.878607  0
C  C76  1  0.09286314  0.41886132  0.97548611  1  0.053069  0  -0.00852  0.024978  0  4.024414  0
C  C77  1  0.93790050  0.58758801  0.01970450  1  0.019718  0  -0.006549  0.029805  0  4.023754  0
C  C78  1  0.59217693  0.08126368  0.52438611  1  0.108058  0  -0.00787  0.025882  0  4.024008  0
C  C79  1  0.43866302  0.91234805  0.48034239  1  0.083519  0  -0.006396  0.029912  0  4.022602  0
C  C80  1  0.83399356  0.55413036  0.92405321  1  0.17976  0  0.080754  0.054271  0  3.929285  0
C  C81  1  0.23365271  0.45668126  0.06655143  1  0.18057  0  0.080497  0.051133  0  3.930008  0
C  C82  1  0.33563557  0.94575158  0.57607167  1  0.125716  0  0.081111  0.053937  0  3.930033  0
C  C83  1  0.73238733  0.04354122  0.43324362  1  0.170479  0  0.080699  0.050823  0  3.932935  0
C  C84  1  0.84408329  0.59943536  0.96989309  1  0.102413  0  -0.075176  -0.15673  0  3.954942  0
C  C85  1  0.20858425  0.40948861  0.02274889  1  0.08821  0  -0.073591  -0.151504  0  3.949777  0
C  C86  1  0.34570500  0.90042945  0.53024790  1  0.012686  0  -0.074863  -0.155893  0  3.954787  0
C  C87  1  0.70726275  0.09073280  0.47703015  1  0.092878  0  -0.074014  -0.152868  0  3.951796  0
N  N88  1  0.76540858  0.57765385  0.87310462  1  0.422845  0  0.048752  0.50262  0  4.269878  0
N  N89  1  0.39691458  0.44622596  0.10553145  1  0.441836  0  0.049272  0.503506  0  4.259252  0
N  N90  1  0.26868475  0.92217384  0.62715256  1  0.407619  0  0.048514  0.503211  0  4.267571  0
N  N91  1  0.89518813  0.05409240  0.39416936  1  0.414541  0  0.051776  0.50673  0  4.261806  0
Cl  Cl92  1  0.36117780  0.49765323  0.40513878  1  -0.18169  0  0.002682  -0.061025  0  1.526545  0
Cl  Cl93  1  0.63358123  0.50318929  0.59528330  1  -0.176264  0  0.005555  -0.057257  0  1.525977  0
Cl  Cl94  1  0.86124154  0.00240629  0.09487378  1  -0.181836  0  0.002617  -0.061128  0  1.526109  0
Cl  Cl95  1  0.13339492  0.99684851  0.90476454  1  -0.176179  0  0.005545  -0.057336  0  1.525564  0
Cl  Cl96  1  0.68155329  0.61616841  0.48961342  1  -0.17454  0  0.001629  -0.065713  0  1.537438  0
Cl  Cl97  1  0.31266182  0.38424526  0.51097047  1  -0.179945  0  0.000969  -0.066573  0  1.534046  0
Cl  Cl98  1  0.18145020  0.88387369  0.01040937  1  -0.17465  0  0.001657  -0.065795  0  1.537256  0
Cl  Cl99  1  0.81264102  0.11583355  0.98903832  1  -0.179919  0  0.000871  -0.066638  0  1.53403  0
Cl  Cl100  1  0.16733515  0.29731767  0.93194613  1  -0.163636  0  0.042009  -0.015009  0  1.530386  0
Cl  Cl101  1  0.85934920  0.70854330  0.06525217  1  -0.173908  0  0.04232  -0.016516  0  1.524527  0
Cl  Cl102  1  0.66640249  0.20284046  0.56794449  1  -0.163712  0  0.042151  -0.014935  0  1.530065  0
Cl  Cl103  1  0.36093634  0.79129298  0.43486637  1  -0.172388  0  0.042526  -0.016177  0  1.523806  0
Cl  Cl104  1  0.72648643  0.44823804  0.82380572  1  -0.157026  0  0.043665  -0.004014  0  1.594634  0
Cl  Cl105  1  0.18985198  0.54403865  0.18245011  1  -0.158034  0  0.040164  -0.009022  0  1.559131  0
Cl  Cl106  1  0.22690607  0.05163880  0.67616874  1  -0.157185  0  0.043538  -0.004247  0  1.593967  0
Cl  Cl107  1  0.68846445  0.95604657  0.31740439  1  -0.157524  0  0.040538  -0.008499  0  1.558881  0
O  O108  1  0.62117567  0.19737300  0.80340047  1  -1.256464  0  -0.233367  -0.583117  0  2.354772  0
O  O109  1  0.37255706  0.80219221  0.19658272  1  -1.251714  0  -0.233063  -0.583789  0  2.351698  0
O  O110  1  0.12124611  0.30253549  0.69650977  1  -1.256064  0  -0.233496  -0.58318  0  2.35473  0
O  O111  1  0.87246728  0.69791696  0.30350580  1  -1.251451  0  -0.232326  -0.582955  0  2.352419  0
O  O112  1  0.27985992  0.19045787  0.68359445  1  -1.240685  0  -0.226844  -0.579908  0  2.374902  0
O  O113  1  0.71249315  0.81090044  0.31471780  1  -1.244612  0  -0.225523  -0.577149  0  2.359426  0
O  O114  1  0.77986459  0.30945848  0.81643376  1  -1.240352  0  -0.227163  -0.579961  0  2.374445  0
O  O115  1  0.21249728  0.68918142  0.18520104  1  -1.243604  0  -0.225975  -0.577628  0  2.358915  0
O  O116  1  0.28034147  0.19173818  0.79746674  1  -1.260579  0  -0.239023  -0.606617  0  2.346748  0
O  O117  1  0.71373001  0.80764015  0.20150893  1  -1.258345  0  -0.238418  -0.604296  0  2.352866  0
O  O118  1  0.78047223  0.30831120  0.70257926  1  -1.259652  0  -0.239255  -0.606723  0  2.346437  0
O  O119  1  0.21356071  0.69229644  0.29839592  1  -1.258306  0  -0.23831  -0.604074  0  2.353571  0
O  O120  1  0.11980793  0.31368555  0.80917264  1  -1.249511  0  -0.229149  -0.585371  0  2.357211  0
O  O121  1  0.87133236  0.68688936  0.18990635  1  -1.248552  0  -0.226238  -0.580804  0  2.3548  0
O  O122  1  0.61983451  0.18636597  0.69073908  1  -1.248074  0  -0.229015  -0.585056  0  2.358284  0
O  O123  1  0.37129217  0.81300216  0.31016320  1  -1.248496  0  -0.226288  -0.581056  0  2.354612  0
O  O124  1  0.45008072  0.28759287  0.75383447  1  -1.410882  0  -0.447823  -0.996778  0  2.21857  0
O  O125  1  0.54357987  0.71236713  0.24655062  1  -1.413355  0  -0.447219  -0.994293  0  2.209908  0
O  O126  1  0.95003871  0.21238484  0.74614098  1  -1.408367  0  -0.447939  -0.997241  0  2.218293  0
O  O127  1  0.04361575  0.78763406  0.25342686  1  -1.41255  0  -0.447306  -0.994423  0  2.209988  0
O  O128  1  0.59257461  0.59901306  0.87312313  1  -0.435541  0  -0.135521  -0.323431  0  1.864216  0
O  O129  1  0.89241821  0.57720883  0.83583136  1  -0.429099  0  -0.127604  -0.316405  0  1.888541  0
O  O130  1  0.39320621  0.39746861  0.12621790  1  -0.432898  0  -0.129952  -0.314908  0  1.863332  0
O  O131  1  0.53286434  0.48625788  0.11157253  1  -0.481969  0  -0.143012  -0.342163  0  1.90132  0
O  O132  1  0.09666461  0.90020288  0.62730450  1  -0.427759  0  -0.134595  -0.323001  0  1.863056  0
O  O133  1  0.39626192  0.92320529  0.66436272  1  -0.418374  0  -0.128696  -0.317852  0  1.888676  0
O  O134  1  0.89086717  0.10282467  0.37345491  1  -0.433435  0  -0.131486  -0.317024  0  1.866112  0
O  O135  1  0.03136481  0.01414967  0.38807249  1  -0.452601  0  -0.144187  -0.343215  0  1.901288  0
