# generated using pymatgen
data_Zn3H16C32(NO3)4
_symmetry_space_group_name_H-M   'P 1'
_cell_length_a   21.84533910
_cell_length_b   21.84536734
_cell_length_c   24.70737796
_cell_angle_alpha   116.24902512
_cell_angle_beta   116.24723661
_cell_angle_gamma   89.99542330
_symmetry_Int_Tables_number   1
_chemical_formula_structural   Zn3H16C32(NO3)4
_chemical_formula_sum   'Zn6 H32 C64 N8 O24'
_cell_volume   9200.21487222
_cell_formula_units_Z   2
loop_
 _symmetry_equiv_pos_site_id
 _symmetry_equiv_pos_as_xyz
  1  'x, y, z'
loop_
 _atom_site_type_symbol
 _atom_site_label
 _atom_site_symmetry_multiplicity
 _atom_site_fract_x
 _atom_site_fract_y
 _atom_site_fract_z
 _atom_site_occupancy
 _atom_site_pbe_bader_charge
 _atom_site_pbe_bader_spin_density
 _atom_site_pbe_cm5_charge
 _atom_site_pbe_ddec_charge
 _atom_site_pbe_ddec_spin_density
 _atom_site_pbe_ddec_sum_bond_order
 _atom_site_pbe_magmom
Zn  Zn0  1  0.99997972  0.55832139  0.00000422  1  1.297665  0  0.733892  0.971618  0  2.072084  0
Zn  Zn1  1  0.44168089  0.00002062  0.99999681  1  1.297639  0  0.733909  0.971626  0  2.072067  0
Zn  Zn2  1  0.00004090  0.44167760  0.00000006  1  1.29918  0  0.733849  0.971245  0  2.073196  0
Zn  Zn3  1  0.55832204  0.99995681  0.99999648  1  1.299256  0  0.733883  0.971305  0  2.073095  0
Zn  Zn4  1  0.46695403  0.46692259  0.93391846  1  1.301669  0  0.735049  0.973744  0  2.066754  0
Zn  Zn5  1  0.53307604  0.53304735  0.06608266  1  1.28695  0  0.73487  0.973659  0  2.067147  0
H  H6  1  0.21226922  0.58344455  0.34900900  1  0.102747  0  0.108522  0.108155  0  1.00563  0
H  H7  1  0.76557805  0.21225864  0.34911442  1  0.107365  0  0.108343  0.108104  0  1.00531  0
H  H8  1  0.13674971  0.76553583  0.34903371  1  0.099574  0  0.108425  0.108013  0  1.005171  0
H  H9  1  0.58337452  0.13669872  0.34892284  1  0.099006  0  0.108724  0.10819  0  1.005427  0
H  H10  1  0.86332987  0.41661640  0.65107766  1  0.099114  0  0.108744  0.108226  0  1.005453  0
H  H11  1  0.41655582  0.78772470  0.65098758  1  0.102854  0  0.108585  0.108253  0  1.005536  0
H  H12  1  0.78771531  0.23443475  0.65088375  1  0.107711  0  0.108347  0.108125  0  1.005351  0
H  H13  1  0.23447363  0.86325808  0.65096944  1  0.100016  0  0.108427  0.107984  0  1.005214  0
H  H14  1  0.15458603  0.39014595  0.92370646  1  0.100903  0  0.108958  0.114215  0  0.989192  0
H  H15  1  0.53367916  0.15458779  0.92373009  1  0.096225  0  0.108941  0.114597  0  0.988166  0
H  H16  1  0.76924021  0.53365509  0.92377618  1  0.103056  0  0.108949  0.114311  0  0.988906  0
H  H17  1  0.38999215  0.76919105  0.92375113  1  0.10003  0  0.10879  0.114054  0  0.98862  0
H  H18  1  0.23080599  0.61000871  0.07624987  1  0.10009  0  0.108798  0.114132  0  0.988598  0
H  H19  1  0.60985331  0.84541419  0.07628925  1  0.101115  0  0.108968  0.114239  0  0.989176  0
H  H20  1  0.84541177  0.46632337  0.07626986  1  0.096326  0  0.108965  0.114629  0  0.98816  0
H  H21  1  0.46634568  0.23076121  0.07622528  1  0.103104  0  0.108947  0.114281  0  0.988932  0
H  H22  1  0.26759505  0.39145719  0.92022366  1  0.083021  0  0.108792  0.114231  0  0.988406  0
H  H23  1  0.52878257  0.26760471  0.92021183  1  0.07778  0  0.10901  0.115058  0  0.987592  0
H  H24  1  0.65264623  0.52880491  0.92013456  1  0.086734  0  0.108904  0.114624  0  0.988313  0
H  H25  1  0.39128207  0.65259259  0.92011197  1  0.087157  0  0.10894  0.114604  0  0.988207  0
H  H26  1  0.34740601  0.60872272  0.07989384  1  0.087549  0  0.108972  0.114617  0  0.988048  0
H  H27  1  0.60854276  0.73240511  0.07977521  1  0.082786  0  0.108818  0.114295  0  0.988332  0
H  H28  1  0.73239674  0.47121954  0.07978998  1  0.07784  0  0.109012  0.115052  0  0.987564  0
H  H29  1  0.47119433  0.34735719  0.07986879  1  0.086642  0  0.108872  0.114626  0  0.98829  0
H  H30  1  0.14546759  0.51801673  0.21895296  1  0.121734  0  0.110145  0.11763  0  0.987745  0
H  H31  1  0.70102969  0.14545084  0.21905575  1  0.110494  0  0.110117  0.117379  0  0.988101  0
H  H32  1  0.07352814  0.70092107  0.21897480  1  0.088406  0  0.110269  0.117833  0  0.988137  0
H  H33  1  0.51802650  0.07348825  0.21886392  1  0.083092  0  0.110207  0.117962  0  0.987234  0
H  H34  1  0.92653908  0.48196690  0.78113739  1  0.139322  0  0.110188  0.117961  0  0.987123  0
H  H35  1  0.48198248  0.85452559  0.78104423  1  0.121708  0  0.110135  0.117614  0  0.987695  0
H  H36  1  0.85452456  0.29897917  0.78094053  1  0.11082  0  0.110066  0.117379  0  0.988062  0
H  H37  1  0.29908623  0.92647976  0.78102808  1  0.088222  0  0.11033  0.117913  0  0.988123  0
C  C38  1  0.11793785  0.50009247  0.99996659  1  1.541021  0  0.22168  0.601304  0  4.155321  0
C  C39  1  0.50004348  0.11793620  0.99999146  1  1.549923  0  0.222184  0.600229  0  4.153303  0
C  C40  1  0.88206557  0.49995742  0.00000873  1  1.55037  0  0.222215  0.600278  0  4.153193  0
C  C41  1  0.49991094  0.88206031  0.00003060  1  1.541166  0  0.22184  0.601491  0  4.15493  0
C  C42  1  0.31394328  0.50009436  0.00005044  1  -0.075531  0  -0.01092  -0.020864  0  3.960885  0
C  C43  1  0.49998034  0.31391868  0.00004278  1  -0.013876  0  -0.010746  -0.020599  0  3.961457  0
C  C44  1  0.68608463  0.50002146  0.99996226  1  -0.013427  0  -0.010627  -0.020374  0  3.961236  0
C  C45  1  0.49990954  0.68605791  0.99995594  1  -0.075896  0  -0.010907  -0.020892  0  3.960903  0
C  C46  1  0.18618107  0.50010040  0.99995066  1  -0.045847  0  -0.01113  -0.020071  0  3.96355  0
C  C47  1  0.50004643  0.18619409  0.99999763  1  -0.046564  0  -0.01087  -0.01612  0  3.958115  0
C  C48  1  0.81380703  0.49995635  0.00000234  1  -0.047083  0  -0.010934  -0.016088  0  3.958085  0
C  C49  1  0.49989816  0.81381706  0.00004780  1  -0.045865  0  -0.011102  -0.020012  0  3.963447  0
C  C50  1  0.49996913  0.61773542  0.99992300  1  1.556784  0  0.222787  0.602272  0  4.152134  0
C  C51  1  0.38225813  0.50001904  0.00006552  1  1.557236  0  0.22275  0.602101  0  4.15248  0
C  C52  1  0.49996891  0.38222291  0.00003710  1  1.551211  0  0.223015  0.60378  0  4.149762  0
C  C53  1  0.61777288  0.50003075  0.99995505  1  1.551488  0  0.223039  0.60369  0  4.149862  0
C  C54  1  0.06709529  0.56702855  0.13414442  1  1.507559  0  0.219982  0.598394  0  4.157883  0
C  C55  1  0.56709426  0.06707343  0.13414215  1  1.500214  0  0.219661  0.597453  0  4.157046  0
C  C56  1  0.93292792  0.43290494  0.86585717  1  1.500157  0  0.219574  0.597423  0  4.156965  0
C  C57  1  0.43297213  0.93290358  0.86585439  1  1.507517  0  0.21991  0.59838  0  4.157845  0
C  C58  1  0.14465086  0.57242881  0.24810596  1  -0.09942  0  -0.079616  -0.086685  0  3.959566  0
C  C59  1  0.67573189  0.14461299  0.24816699  1  0.029738  0  -0.079659  -0.086099  0  3.959095  0
C  C60  1  0.10352539  0.67566713  0.24811637  1  -0.031248  0  -0.079678  -0.086606  0  3.960376  0
C  C61  1  0.57244243  0.10346405  0.24806465  1  -0.061931  0  -0.079314  -0.087556  0  3.958529  0
C  C62  1  0.89655180  0.42755498  0.75193398  1  -0.118175  0  -0.079244  -0.08757  0  3.958151  0
C  C63  1  0.42757133  0.85534423  0.75189135  1  -0.09946  0  -0.079593  -0.086692  0  3.959463  0
C  C64  1  0.85537755  0.32427582  0.75183206  1  0.029153  0  -0.079557  -0.086092  0  3.959276  0
C  C65  1  0.32433772  0.89647827  0.75188471  1  -0.074371  0  -0.079778  -0.086839  0  3.960467  0
C  C66  1  0.18142189  0.60862944  0.32017475  1  0.031115  0  -0.078236  -0.105938  0  3.964262  0
C  C67  1  0.71155829  0.18137380  0.32023540  1  -0.110881  0  -0.077742  -0.10662  0  3.964406  0
C  C68  1  0.13881574  0.71153629  0.32018732  1  0.035254  0  -0.078078  -0.105879  0  3.963962  0
C  C69  1  0.60859788  0.13874390  0.32013345  1  0.01618  0  -0.078541  -0.106318  0  3.963752  0
C  C70  1  0.86127262  0.39139787  0.67986634  1  0.016407  0  -0.078593  -0.106253  0  3.963876  0
C  C71  1  0.39137191  0.81857417  0.67982140  1  0.030734  0  -0.078275  -0.105933  0  3.964127  0
C  C72  1  0.81861300  0.28844727  0.67976297  1  -0.110455  0  -0.077767  -0.106554  0  3.964412  0
C  C73  1  0.28847179  0.86118896  0.67981409  1  0.03515  0  -0.078074  -0.105745  0  3.964126  0
C  C74  1  0.17839762  0.67836444  0.35674979  1  0.009355  0  -0.000745  0.023025  0  3.998462  0
C  C75  1  0.67834391  0.17835913  0.35675567  1  0.047459  0  -0.001155  0.023505  0  3.99767  0
C  C76  1  0.82164297  0.32165772  0.64324399  1  0.046437  0  -0.001131  0.02335  0  3.997779  0
C  C77  1  0.32163829  0.82160135  0.64324790  1  0.009483  0  -0.000769  0.022816  0  3.998784  0
C  C78  1  0.10586845  0.60580816  0.21161367  1  -0.007471  0  -0.011351  -0.02212  0  3.951396  0
C  C79  1  0.60585029  0.10581336  0.21161366  1  0.031601  0  -0.011409  -0.01994  0  3.947968  0
C  C80  1  0.89418870  0.39415073  0.78838517  1  0.031834  0  -0.011413  -0.019984  0  3.948048  0
C  C81  1  0.39419381  0.89413170  0.78838469  1  0.035866  0  -0.011351  -0.02201  0  3.951331  0
C  C82  1  0.28354651  0.78351031  0.56706228  1  0.92499  0  0.241661  0.250161  0  3.974805  0
C  C83  1  0.78350435  0.28358269  0.56705974  1  0.910669  0  0.2415  0.249435  0  3.975906  0
C  C84  1  0.71641735  0.21649460  0.43293866  1  0.910652  0  0.241537  0.249401  0  3.975778  0
C  C85  1  0.21649161  0.71645766  0.43293605  1  0.925307  0  0.241615  0.250036  0  3.974526  0
C  C86  1  0.19655686  0.43807380  0.95662205  1  0.002756  0  -0.080965  -0.095404  0  3.975755  0
C  C87  1  0.51872083  0.19658475  0.95667188  1  0.003495  0  -0.081273  -0.096153  0  3.972253  0
C  C88  1  0.76012821  0.51864179  0.95665111  1  -0.050096  0  -0.080884  -0.095885  0  3.975195  0
C  C89  1  0.43787443  0.76011396  0.95669353  1  -0.052251  0  -0.080802  -0.093882  0  3.97469  0
C  C90  1  0.23988650  0.56212818  0.04330984  1  -0.052045  0  -0.080742  -0.093894  0  3.974418  0
C  C91  1  0.56192671  0.80344209  0.04337664  1  0.002746  0  -0.080967  -0.095461  0  3.97561  0
C  C92  1  0.80341611  0.48128179  0.04332930  1  0.003316  0  -0.081239  -0.096175  0  3.972249  0
C  C93  1  0.48135900  0.23987380  0.04335111  1  -0.050709  0  -0.080861  -0.095766  0  3.975116  0
C  C94  1  0.25947099  0.43860268  0.95518947  1  -0.03031  0  -0.080136  -0.09276  0  3.971975  0
C  C95  1  0.51665962  0.25947441  0.95519534  1  -0.033805  0  -0.080614  -0.09529  0  3.97277  0
C  C96  1  0.69572335  0.51663257  0.95511212  1  -0.012937  0  -0.080566  -0.09437  0  3.973391  0
C  C97  1  0.43840555  0.69570617  0.95513873  1  0.043268  0  -0.080539  -0.09473  0  3.972891  0
C  C98  1  0.30429243  0.56159335  0.04486446  1  0.042596  0  -0.080605  -0.094754  0  3.972916  0
C  C99  1  0.56139505  0.74052928  0.04480964  1  -0.029833  0  -0.080167  -0.092803  0  3.972288  0
C  C100  1  0.74052651  0.48334396  0.04480533  1  -0.034147  0  -0.080673  -0.09532  0  3.972917  0
C  C101  1  0.48336869  0.30427808  0.04488954  1  -0.012798  0  -0.080541  -0.094345  0  3.97358  0
N  N102  1  0.19392288  0.77145841  0.46585570  1  -0.59833  0  -0.155437  -0.149366  0  3.208718  0
N  N103  1  0.69432833  0.19395617  0.46585874  1  -0.486344  0  -0.155173  -0.148618  0  3.20804  0
N  N104  1  0.27197026  0.69436666  0.46585156  1  -0.498099  0  -0.15535  -0.149301  0  3.207898  0
N  N105  1  0.77141043  0.27198678  0.46584889  1  -0.621324  0  -0.155623  -0.149791  0  3.209598  0
N  N106  1  0.72800139  0.22860038  0.53415004  1  -0.621932  0  -0.155439  -0.149625  0  3.209518  0
N  N107  1  0.22855186  0.80608664  0.53414771  1  -0.531967  0  -0.155519  -0.149389  0  3.208904  0
N  N108  1  0.80605443  0.30566024  0.53414011  1  -0.486459  0  -0.155119  -0.148556  0  3.208206  0
N  N109  1  0.30563269  0.72802820  0.53414262  1  -0.613758  0  -0.155253  -0.149234  0  3.20795  0
O  O110  1  0.09881227  0.55807076  0.01535133  1  -1.148969  0  -0.315947  -0.552085  0  2.273775  0
O  O111  1  0.45740207  0.09883860  0.01534568  1  -1.15108  0  -0.316383  -0.552748  0  2.274317  0
O  O112  1  0.91654958  0.45733764  0.01535031  1  -1.151693  0  -0.315981  -0.552015  0  2.272367  0
O  O113  1  0.55790673  0.91649901  0.01537116  1  -1.144177  0  -0.316094  -0.552757  0  2.273677  0
O  O114  1  0.08349466  0.44209364  0.98461926  1  -1.143905  0  -0.315908  -0.55259  0  2.273693  0
O  O115  1  0.44193425  0.90118828  0.98465038  1  -1.148882  0  -0.316002  -0.552167  0  2.273526  0
O  O116  1  0.90116331  0.54260006  0.98465602  1  -1.151156  0  -0.316405  -0.552803  0  2.274273  0
O  O117  1  0.54266350  0.08344987  0.98464765  1  -1.151251  0  -0.315996  -0.552028  0  2.272257  0
O  O118  1  0.03911105  0.60231799  0.10373565  1  -1.155984  0  -0.315814  -0.553637  0  2.278072  0
O  O119  1  0.50138454  0.03913066  0.10374236  1  -1.159513  0  -0.315444  -0.553206  0  2.277249  0
O  O120  1  0.06464580  0.50131622  0.10373478  1  -1.158659  0  -0.315627  -0.55301  0  2.2765  0
O  O121  1  0.60238559  0.06459735  0.10372364  1  -1.148567  0  -0.315603  -0.553498  0  2.277468  0
O  O122  1  0.93540068  0.39761521  0.89627505  1  -1.148544  0  -0.315603  -0.553493  0  2.277649  0
O  O123  1  0.39768108  0.96088823  0.89626499  1  -1.155932  0  -0.315796  -0.553659  0  2.277978  0
O  O124  1  0.96087228  0.49861734  0.89625947  1  -1.159537  0  -0.315395  -0.553179  0  2.27704  0
O  O125  1  0.49868175  0.93535268  0.89626279  1  -1.158692  0  -0.3156  -0.553024  0  2.276626  0
O  O126  1  0.45643892  0.56272925  0.94348849  1  -1.153992  0  -0.317215  -0.553694  0  2.269871  0
O  O127  1  0.38080015  0.45643890  0.94363758  1  -1.157256  0  -0.316667  -0.553048  0  2.270319  0
O  O128  1  0.48708739  0.38075415  0.94359807  1  -1.145632  0  -0.316806  -0.553991  0  2.26986  0
O  O129  1  0.56276749  0.48711314  0.94352236  1  -1.155664  0  -0.317187  -0.554289  0  2.269115  0
O  O130  1  0.51288946  0.43724191  0.05648878  1  -1.15524  0  -0.317247  -0.554425  0  2.268011  0
O  O131  1  0.43727694  0.54356753  0.05652252  1  -1.153904  0  -0.317331  -0.553849  0  2.269039  0
O  O132  1  0.54356326  0.61920286  0.05637100  1  -1.156774  0  -0.316833  -0.553345  0  2.269232  0
O  O133  1  0.61924660  0.51291807  0.05641078  1  -1.145462  0  -0.316942  -0.554141  0  2.268856  0
