# generated using pymatgen
data_CdH8C8N5Cl
_symmetry_space_group_name_H-M   'P 1'
_cell_length_a   9.56123363
_cell_length_b   9.55246945
_cell_length_c   13.86016154
_cell_angle_alpha   102.62284452
_cell_angle_beta   108.44915108
_cell_angle_gamma   102.87838170
_symmetry_Int_Tables_number   1
_chemical_formula_structural   CdH8C8N5Cl
_chemical_formula_sum   'Cd4 H32 C32 N20 Cl4'
_cell_volume   1111.96543865
_cell_formula_units_Z   4
loop_
 _symmetry_equiv_pos_site_id
 _symmetry_equiv_pos_as_xyz
  1  'x, y, z'
loop_
 _atom_site_type_symbol
 _atom_site_label
 _atom_site_symmetry_multiplicity
 _atom_site_fract_x
 _atom_site_fract_y
 _atom_site_fract_z
 _atom_site_occupancy
 _atom_site_pbe_bader_spin_density
 _atom_site_pbe_cm5_charge
 _atom_site_pbe_ddec_charge
 _atom_site_pbe_ddec_spin_density
 _atom_site_pbe_ddec_sum_bond_order
 _atom_site_pbe_magmom
Cd  Cd0  1  0.47305799  0.69956929  0.01561093  1  0  0.712493  0.840304  0  2.395595  0
Cd  Cd1  1  0.18409809  0.45734073  0.48446832  1  0  0.712179  0.839854  0  2.39423  0
Cd  Cd2  1  0.52694534  0.30043377  0.98438726  1  0  0.712487  0.840222  0  2.395664  0
Cd  Cd3  1  0.81589796  0.54265642  0.51552945  1  0  0.712188  0.83981  0  2.394178  0
H  H4  1  0.33836592  0.86504593  0.88632015  1  0  0.283691  0.277367  0  0.999082  0
H  H5  1  0.47846521  0.45139599  0.61349636  1  0  0.283672  0.277772  0  0.998696  0
H  H6  1  0.66163556  0.13495462  0.11368155  1  0  0.283695  0.277373  0  0.999105  0
H  H7  1  0.52153036  0.54860325  0.38650454  1  0  0.283669  0.277755  0  0.998675  0
H  H8  1  0.22857794  0.68567364  0.82702672  1  0  0.267638  0.271726  0  0.998111  0
H  H9  1  0.35869598  0.40098504  0.67301473  1  0  0.267823  0.272992  0  0.997701  0
H  H10  1  0.77142056  0.31432802  0.17297307  1  0  0.26762  0.271703  0  0.998147  0
H  H11  1  0.64130114  0.59901196  0.32698685  1  0  0.267781  0.272893  0  0.997743  0
H  H12  1  0.34835870  0.55792322  0.17928620  1  0  0.099446  0.067712  0  1.047122  0
H  H13  1  0.87919376  0.16931272  0.32089148  1  0  0.099353  0.067142  0  1.047581  0
H  H14  1  0.65164367  0.44208401  0.82071827  1  0  0.09947  0.067783  0  1.047158  0
H  H15  1  0.12080256  0.83068531  0.67911154  1  0  0.099372  0.067196  0  1.047573  0
H  H16  1  0.12972478  0.54240890  0.24519216  1  0  0.095176  0.10551  0  1.053434  0
H  H17  1  0.79758924  0.88461420  0.25494899  1  0  0.094538  0.10434  0  1.054215  0
H  H18  1  0.87027615  0.45759720  0.75481108  1  0  0.095143  0.105464  0  1.05349  0
H  H19  1  0.20240930  0.11538389  0.74505453  1  0  0.094529  0.104334  0  1.05421  0
H  H20  1  0.91583395  0.64346442  0.15862538  1  0  0.09542  0.101418  0  1.032864  0
H  H21  1  0.98485177  0.75675006  0.34132337  1  0  0.095406  0.101621  0  1.033669  0
H  H22  1  0.08416566  0.35653727  0.84137466  1  0  0.095413  0.101417  0  1.03288  0
H  H23  1  0.01514824  0.24324926  0.65867924  1  0  0.095405  0.10161  0  1.03367  0
H  H24  1  0.93822631  0.76643451  0.02151227  1  0  0.102461  0.112175  0  1.036301  0
H  H25  1  0.24470898  0.91587760  0.47825150  1  0  0.10254  0.112278  0  1.035853  0
H  H26  1  0.06177264  0.23356496  0.97848652  1  0  0.102475  0.11219  0  1.036277  0
H  H27  1  0.75529105  0.08412180  0.52174968  1  0  0.102515  0.112242  0  1.035808  0
H  H28  1  0.05339692  0.77405194  0.88178165  1  0  0.102332  0.080153  0  1.002161  0
H  H29  1  0.39161853  0.17069926  0.61823394  1  0  0.102894  0.081003  0  1.002517  0
H  H30  1  0.94660132  0.22594517  0.11821875  1  0  0.10234  0.080164  0  1.002118  0
H  H31  1  0.60838005  0.82929898  0.38176672  1  0  0.102899  0.081057  0  1.002511  0
H  H32  1  0.20696808  0.92500958  0.98442738  1  0  0.111982  0.104856  0  0.988241  0
H  H33  1  0.44042751  0.22166943  0.51566541  1  0  0.111855  0.105214  0  0.98815  0
H  H34  1  0.79302788  0.07499097  0.01557022  1  0  0.111964  0.104845  0  0.988244  0
H  H35  1  0.55957031  0.77832994  0.48433457  1  0  0.111835  0.10519  0  0.988217  0
C  C36  1  0.25395264  0.60226953  0.14709667  1  0  0.036413  0.091672  0  3.978505  0
C  C37  1  0.95550898  0.10683496  0.35297704  1  0  0.036755  0.091605  0  3.979175  0
C  C38  1  0.74604828  0.39773657  0.85290657  1  0  0.036311  0.091475  0  3.978655  0
C  C39  1  0.04448704  0.89316205  0.64702358  1  0  0.036722  0.091415  0  3.979291  0
C  C40  1  0.13295103  0.59369070  0.18273813  1  0  -0.092586  -0.13794  0  3.97289  0
C  C41  1  0.91122936  0.95011714  0.31730872  1  0  -0.092208  -0.135804  0  3.973835  0
C  C42  1  0.86704878  0.40631537  0.81726487  1  0  -0.09254  -0.137814  0  3.972992  0
C  C43  1  0.08876996  0.04987985  0.68269478  1  0  -0.092186  -0.135694  0  3.973691  0
C  C44  1  0.01600024  0.65178943  0.13588116  1  0  -0.066887  -0.007909  0  3.948305  0
C  C45  1  0.01597691  0.87973879  0.36408399  1  0  -0.066952  -0.008783  0  3.948798  0
C  C46  1  0.98400036  0.34821558  0.86412110  1  0  -0.066825  -0.00788  0  3.94843  0
C  C47  1  0.98401832  0.12025932  0.63591665  1  0  -0.066924  -0.008756  0  3.948786  0
C  C48  1  0.02722287  0.71893816  0.05805629  1  0  -0.085288  -0.171927  0  3.935381  0
C  C49  1  0.16082153  0.96857045  0.44180698  1  0  -0.085162  -0.170529  0  3.932551  0
C  C50  1  0.97277485  0.28106457  0.94194424  1  0  -0.085312  -0.171915  0  3.935508  0
C  C51  1  0.83917815  0.03142778  0.55819465  1  0  -0.085181  -0.170512  0  3.932707  0
C  C52  1  0.15311870  0.72420963  0.02662318  1  0  0.122438  0.234434  0  3.936401  0
C  C53  1  0.19756512  0.12601941  0.47335420  1  0  0.122722  0.232497  0  3.938092  0
C  C54  1  0.84688378  0.27579431  0.97337932  1  0  0.122355  0.23429  0  3.936389  0
C  C55  1  0.80243156  0.87397986  0.52664695  1  0  0.122704  0.23244  0  3.938227  0
C  C56  1  0.16938274  0.80235351  0.94459660  1  0  -0.065054  -0.049002  0  3.911258  0
C  C57  1  0.35756716  0.22411632  0.55542170  1  0  -0.06508  -0.049281  0  3.911509  0
C  C58  1  0.83061766  0.19764712  0.05540271  1  0  -0.065074  -0.048992  0  3.911202  0
C  C59  1  0.64243063  0.77588298  0.44457970  1  0  -0.065075  -0.049347  0  3.91162  0
C  C60  1  0.53799069  0.00382262  0.22780049  1  0  0.3118  0.452768  0  4.252555  0
C  C61  1  0.27618174  0.31007872  0.27220064  1  0  0.310643  0.450746  0  4.252356  0
C  C62  1  0.46201166  0.99617347  0.77220064  1  0  0.311803  0.452656  0  4.252284  0
C  C63  1  0.72382492  0.68991702  0.72778837  1  0  0.310666  0.450812  0  4.252023  0
C  C64  1  0.59789435  0.18460209  0.38701385  1  0  0.311493  0.449483  0  4.27625  0
C  C65  1  0.29731062  0.21082250  0.11285631  1  0  0.311329  0.449668  0  4.279196  0
C  C66  1  0.40210876  0.81540394  0.61299274  1  0  0.311368  0.449199  0  4.276295  0
C  C67  1  0.70270185  0.78917792  0.88713403  1  0  0.311371  0.449631  0  4.279169  0
N  N68  1  0.26265238  0.66482864  0.07024579  1  0  -0.335094  -0.290638  0  3.521168  0
N  N69  1  0.09478312  0.19219784  0.42978848  1  0  -0.335591  -0.290165  0  3.52187  0
N  N70  1  0.73734923  0.33517976  0.92975728  1  0  -0.334996  -0.290494  0  3.521098  0
N  N71  1  0.90521511  0.80779920  0.57021335  1  0  -0.335554  -0.290049  0  3.521799  0
N  N72  1  0.28252719  0.77024315  0.89926161  1  0  -0.631617  -0.553054  0  3.351274  0
N  N73  1  0.37088495  0.38269061  0.60071103  1  0  -0.632172  -0.555342  0  3.351053  0
N  N74  1  0.71747063  0.22975622  0.10073836  1  0  -0.631567  -0.552987  0  3.351131  0
N  N75  1  0.62911140  0.61730753  0.39928986  1  0  -0.6321  -0.555157  0  3.350897  0
N  N76  1  0.55101874  0.94662868  0.14772940  1  0  -0.383524  -0.540625  0  3.026443  0
N  N77  1  0.29939898  0.40307023  0.35240439  1  0  -0.382988  -0.539401  0  3.023193  0
N  N78  1  0.44898569  0.05337438  0.85226976  1  0  -0.383512  -0.540489  0  3.026453  0
N  N79  1  0.70059573  0.59692240  0.64759231  1  0  -0.382926  -0.539367  0  3.023372  0
N  N80  1  0.51485583  0.05778102  0.31319126  1  0  -0.308273  -0.385806  0  3.54368  0
N  N81  1  0.24421431  0.20159836  0.18666948  1  0  -0.307942  -0.385403  0  3.544711  0
N  N82  1  0.48514931  0.94220962  0.68680809  1  0  -0.308213  -0.385606  0  3.543734  0
N  N83  1  0.75580797  0.79840537  0.81333006  1  0  -0.308036  -0.38541  0  3.544425  0
N  N84  1  0.66575982  0.29569053  0.46101778  1  0  -0.394346  -0.538559  0  3.095594  0
N  N85  1  0.33449518  0.20463753  0.03887081  1  0  -0.394697  -0.539216  0  3.096906  0
N  N86  1  0.33422970  0.70430319  0.53897581  1  0  -0.394295  -0.538489  0  3.095185  0
N  N87  1  0.66550029  0.79535769  0.96112000  1  0  -0.394763  -0.539338  0  3.096638  0
Cl  Cl88  1  0.61992533  0.57250171  0.14425711  1  0  -0.289567  -0.513454  0  1.229414  0
Cl  Cl89  1  0.92859696  0.47567181  0.35580315  1  0  -0.289452  -0.513418  0  1.228622  0
Cl  Cl90  1  0.38007105  0.42749654  0.85574164  1  0  -0.289576  -0.513483  0  1.229448  0
Cl  Cl91  1  0.07139873  0.52432414  0.64419578  1  0  -0.289458  -0.513446  0  1.228619  0
