# generated using pymatgen
data_Sm2H18C22O17
_symmetry_space_group_name_H-M   'P 1'
_cell_length_a   6.00083880
_cell_length_b   8.83934751
_cell_length_c   12.32980701
_cell_angle_alpha   104.78461904
_cell_angle_beta   91.71291786
_cell_angle_gamma   104.89123242
_symmetry_Int_Tables_number   1
_chemical_formula_structural   Sm2H18C22O17
_chemical_formula_sum   'Sm2 H18 C22 O17'
_cell_volume   607.92713950
_cell_formula_units_Z   1
loop_
 _symmetry_equiv_pos_site_id
 _symmetry_equiv_pos_as_xyz
  1  'x, y, z'
loop_
 _atom_site_type_symbol
 _atom_site_label
 _atom_site_symmetry_multiplicity
 _atom_site_fract_x
 _atom_site_fract_y
 _atom_site_fract_z
 _atom_site_occupancy
 _atom_site_hle17_bader_spin_density
 _atom_site_hle17_ddec_charge
 _atom_site_hle17_ddec_spin_density
 _atom_site_hle17_ddec_sum_bond_order
 _atom_site_hle17_magmom
 _atom_site_hse06_10hf_bader_spin_density
 _atom_site_hse06_10hf_ddec_charge
 _atom_site_hse06_10hf_ddec_spin_density
 _atom_site_hse06_10hf_ddec_sum_bond_order
 _atom_site_hse06_10hf_magmom
 _atom_site_hse06_bader_spin_density
 _atom_site_hse06_ddec_charge
 _atom_site_hse06_ddec_spin_density
 _atom_site_hse06_ddec_sum_bond_order
 _atom_site_hse06_magmom
 _atom_site_pbe_bader_spin_density
 _atom_site_pbe_cm5_charge
 _atom_site_pbe_ddec_charge
 _atom_site_pbe_ddec_spin_density
 _atom_site_pbe_ddec_sum_bond_order
 _atom_site_pbe_magmom
Sm  Sm0  1  0.73522378  0.29140026  0.39713428  1  0  2.262651  0  1.618434  0  0  2.101372  0  2.089525  0  0  2.2151  0  1.921244  0  0  1.492042  2.066048  0  2.121609  0
Sm  Sm1  1  0.25776569  0.70168267  0.59005382  1  0  2.275357  0  1.59156  0  0  2.111396  0  2.059723  0  0  2.225263  0  1.892132  0  0  1.490372  2.076061  0  2.091172  0
H  H2  1  0.91453534  0.83990211  0.34092557  1  0  0.135016  0  0.923042  0  0  0.144676  0  0.980847  0  0  0.148259  0  0.977662  0  0  0.12816  0.142231  0  0.982962  0
H  H3  1  0.07186225  0.15816319  0.65404652  1  0  0.133882  0  0.919792  0  0  0.143505  0  0.97796  0  0  0.147105  0  0.974704  0  0  0.126727  0.141008  0  0.980095  0
H  H4  1  0.16844078  0.78170988  0.29554866  1  0  0.093767  0  0.922794  0  0  0.102499  0  0.986801  0  0  0.104545  0  0.985056  0  0  0.115407  0.101122  0  0.987938  0
H  H5  1  0.82078659  0.21754249  0.70269893  1  0  0.094558  0  0.922082  0  0  0.10261  0  0.986487  0  0  0.104693  0  0.984712  0  0  0.113667  0.101189  0  0.987591  0
H  H6  1  0.22347104  0.56372509  0.18439034  1  0  0.118401  0  0.937723  0  0  0.133642  0  0.986902  0  0  0.137031  0  0.984933  0  0  0.114829  0.131243  0  0.9883  0
H  H7  1  0.77366401  0.43752460  0.81097591  1  0  0.113512  0  0.943827  0  0  0.128189  0  0.99486  0  0  0.131664  0  0.992625  0  0  0.110094  0.125798  0  0.996336  0
H  H8  1  0.68174173  0.62681595  0.97532094  1  0  0.111822  0  0.958677  0  0  0.123597  0  1.018802  0  0  0.126506  0  1.017669  0  0  0.106652  0.121298  0  1.0202  0
H  H9  1  0.31583502  0.37483322  0.01995696  1  0  0.110953  0  0.955199  0  0  0.123196  0  1.014796  0  0  0.126055  0  1.013726  0  0  0.106561  0.12095  0  1.016107  0
H  H10  1  0.10595376  0.15934135  0.10822744  1  0  0.09396  0  0.924464  0  0  0.103875  0  0.989762  0  0  0.105094  0  0.989694  0  0  0.111583  0.103181  0  0.989544  0
H  H11  1  0.89403850  0.85049164  0.88988196  1  0  0.097243  0  0.919294  0  0  0.106884  0  0.98428  0  0  0.107961  0  0.984572  0  0  0.113932  0.106245  0  0.983825  0
H  H12  1  0.01146321  0.97457581  0.14908428  1  0  0.102924  0  0.94313  0  0  0.10921  0  1.010439  0  0  0.11192  0  1.008324  0  0  0.114269  0.107367  0  1.011734  0
H  H13  1  0.99048292  0.02991938  0.84312995  1  0  0.107122  0  0.944757  0  0  0.112796  0  1.011258  0  0  0.115545  0  1.00927  0  0  0.116285  0.110907  0  1.012482  0
H  H14  1  0.56958504  0.82638780  0.11784429  1  0  0.122587  0  0.949332  0  0  0.129293  0  1.013527  0  0  0.133202  0  1.010687  0  0  0.111376  0.126496  0  1.015573  0
H  H15  1  0.42749656  0.17255467  0.87586360  1  0  0.121025  0  0.951352  0  0  0.12783  0  1.015937  0  0  0.131781  0  1.013057  0  0  0.110281  0.125014  0  1.017998  0
H  H16  1  0.70333483  0.29527144  0.05423467  1  0  0.11223  0  0.98343  0  0  0.118635  0  1.051186  0  0  0.120612  0  1.051982  0  0  0.104451  0.11724  0  1.050599  0
H  H17  1  0.29354776  0.70368647  0.93951849  1  0  0.111424  0  0.984689  0  0  0.117915  0  1.052671  0  0  0.11974  0  1.053683  0  0  0.103248  0.116609  0  1.051964  0
H  H18  1  0.47576011  0.42554759  0.56211067  1  0  0.435378  0  0.849144  0  0  0.408693  0  0.914936  0  0  0.418091  0  0.901391  0  0  0.314269  0.40152  0  0.925649  0
H  H19  1  0.66868930  0.58806555  0.55918001  1  0  0.422261  0  0.897703  0  0  0.390409  0  0.963473  0  0  0.401285  0  0.948514  0  0  0.30303  0.382028  0  0.975553  0
C  C20  1  0.89579144  0.59200991  0.32883780  1  0  0.710815  0  3.846821  0  0  0.663527  0  4.149428  0  0  0.696547  0  4.14714  0  0  0.217078  0.64068  0  4.155567  0
C  C21  1  0.09002137  0.40549017  0.66479571  1  0  0.699329  0  3.858971  0  0  0.650175  0  4.166238  0  0  0.683199  0  4.163391  0  0  0.211183  0.62736  0  4.172522  0
C  C22  1  0.97755312  0.74245007  0.28735631  1  0  -0.081663  0  3.618419  0  0  -0.135603  0  3.875956  0  0  -0.133279  0  3.87525  0  0  -0.059402  -0.137165  0  3.876021  0
C  C23  1  0.01142682  0.25648560  0.70826947  1  0  -0.079414  0  3.612101  0  0  -0.13264  0  3.871122  0  0  -0.130313  0  3.870231  0  0  -0.060002  -0.133991  0  3.871001  0
C  C24  1  0.94512991  0.60977223  0.09052788  1  0  0.24353  0  3.823554  0  0  0.231678  0  4.090819  0  0  0.241272  0  4.106362  0  0  0.07338  0.225057  0  4.080015  0
C  C25  1  0.05223036  0.39185634  0.90467645  1  0  0.24369  0  3.821364  0  0  0.231715  0  4.088945  0  0  0.240992  0  4.104822  0  0  0.072221  0.225282  0  4.077994  0
C  C26  1  0.12317116  0.53769003  0.10344854  1  0  -0.171487  0  3.759668  0  0  -0.191064  0  4.01196  0  0  -0.193932  0  4.029733  0  0  -0.10167  -0.188931  0  3.999645  0
C  C27  1  0.87456744  0.46411346  0.89177916  1  0  -0.177657  0  3.77384  0  0  -0.196633  0  4.026518  0  0  -0.199678  0  4.04461  0  0  -0.10623  -0.19442  0  4.01401  0
C  C28  1  0.82177370  0.57205021  0.98465555  1  0  -0.160569  0  3.762105  0  0  -0.182291  0  4.019053  0  0  -0.184434  0  4.036188  0  0  -0.101312  -0.180793  0  4.007949  0
C  C29  1  0.17604383  0.42979591  0.01048876  1  0  -0.158404  0  3.753103  0  0  -0.180333  0  4.010683  0  0  -0.18238  0  4.027738  0  0  -0.099976  -0.178895  0  3.999617  0
C  C30  1  0.18446363  0.18456254  0.28377650  1  0  0.743294  0  3.834758  0  0  0.701192  0  4.126058  0  0  0.735229  0  4.119941  0  0  0.237791  0.67797  0  4.13309  0
C  C31  1  0.80813051  0.81468059  0.71480568  1  0  0.744018  0  3.799929  0  0  0.699319  0  4.088976  0  0  0.733726  0  4.081552  0  0  0.244642  0.675996  0  4.096021  0
C  C32  1  0.02825397  0.10610063  0.17465854  1  0  -0.070576  0  3.607726  0  0  -0.121612  0  3.861216  0  0  -0.119654  0  3.862258  0  0  -0.060464  -0.123028  0  3.861562  0
C  C33  1  0.97059440  0.89801279  0.82082463  1  0  -0.072438  0  3.609652  0  0  -0.122519  0  3.861572  0  0  -0.121073  0  3.862852  0  0  -0.058121  -0.12347  0  3.861424  0
C  C34  1  0.65002943  0.06639052  0.09354904  1  0  0.258411  0  3.788737  0  0  0.255074  0  4.045634  0  0  0.262263  0  4.063769  0  0  0.076893  0.249922  0  4.034608  0
C  C35  1  0.34692727  0.93259862  0.90023533  1  0  0.256694  0  3.792237  0  0  0.254616  0  4.047662  0  0  0.261844  0  4.065606  0  0  0.075913  0.249507  0  4.036544  0
C  C36  1  0.53724977  0.90056556  0.06403490  1  0  -0.155851  0  3.739033  0  0  -0.178746  0  3.995173  0  0  -0.1819  0  4.013401  0  0  -0.095671  -0.176404  0  3.982519  0
C  C37  1  0.46015564  0.09830627  0.92955374  1  0  -0.159419  0  3.744583  0  0  -0.182798  0  4.000277  0  0  -0.186267  0  4.018845  0  0  -0.098431  -0.180268  0  3.98735  0
C  C38  1  0.38404433  0.83280173  0.96592696  1  0  -0.153676  0  3.749211  0  0  -0.176205  0  4.000327  0  0  -0.17967  0  4.021554  0  0  -0.09571  -0.173675  0  3.985544  0
C  C39  1  0.61335169  0.16607992  0.02765604  1  0  -0.150347  0  3.744415  0  0  -0.172257  0  3.99578  0  0  -0.175668  0  4.016953  0  0  -0.093345  -0.16974  0  3.981086  0
C  C40  1  0.42715887  0.05243713  0.53635966  1  0  0.560188  0  3.937037  0  0  0.519169  0  4.234355  0  0  0.548313  0  4.231917  0  0  0.217075  0.498993  0  4.240018  0
C  C41  1  0.56356473  0.94596366  0.46067799  1  0  0.557277  0  3.945295  0  0  0.516504  0  4.243429  0  0  0.545501  0  4.241524  0  0  0.218459  0.49646  0  4.248899  0
O  O42  1  0.00411534  0.58848188  0.41977849  1  0  -0.825172  0  2.097665  0  0  -0.766617  0  2.366819  0  0  -0.808011  0  2.353776  0  0  -0.440543  -0.748047  0  2.374186  0
O  O43  1  0.97474683  0.41171125  0.57733290  1  0  -0.808956  0  2.108496  0  0  -0.75172  0  2.377371  0  0  -0.791671  0  2.36527  0  0  -0.424125  -0.733566  0  2.384225  0
O  O44  1  0.72766948  0.47513393  0.27693912  1  0  -0.64919  0  1.947211  0  0  -0.606984  0  2.181619  0  0  -0.636718  0  2.171197  0  0  -0.358058  -0.591118  0  2.18726  0
O  O45  1  0.26774057  0.51883620  0.71242485  1  0  -0.672989  0  1.960732  0  0  -0.628404  0  2.199511  0  0  -0.657739  0  2.188436  0  0  -0.366353  -0.612481  0  2.205663  0
O  O46  1  0.88120862  0.71996312  0.17578173  1  0  -0.256607  0  2.354166  0  0  -0.189494  0  2.58837  0  0  -0.205337  0  2.589526  0  0  -0.176973  -0.178055  0  2.586984  0
O  O47  1  0.11445025  0.28096447  0.81895294  1  0  -0.259568  0  2.3527  0  0  -0.192379  0  2.587275  0  0  -0.207969  0  2.588262  0  0  -0.180123  -0.181157  0  2.585956  0
O  O48  1  0.10907366  0.26771507  0.36641666  1  0  -0.70624  0  2.051937  0  0  -0.658777  0  2.305437  0  0  -0.692539  0  2.295369  0  0  -0.390416  -0.64163  0  2.312156  0
O  O49  1  0.88090243  0.72332941  0.63370951  1  0  -0.725777  0  2.136903  0  0  -0.663354  0  2.378505  0  0  -0.697626  0  2.366649  0  0  -0.38061  -0.645046  0  2.385781  0
O  O50  1  0.60849820  0.83517712  0.71203920  1  0  -0.697413  0  2.037969  0  0  -0.651145  0  2.288555  0  0  -0.685518  0  2.277772  0  0  -0.381794  -0.63282  0  2.29302  0
O  O51  1  0.38402627  0.16116002  0.28424189  1  0  -0.722892  0  2.034568  0  0  -0.675547  0  2.289469  0  0  -0.711015  0  2.278012  0  0  -0.40763  -0.656674  0  2.294485  0
O  O52  1  0.80503542  0.13564184  0.19165207  1  0  -0.374715  0  2.401689  0  0  -0.306621  0  2.648483  0  0  -0.326817  0  2.649672  0  0  -0.226704  -0.296844  0  2.648293  0
O  O53  1  0.18988081  0.86333901  0.80275854  1  0  -0.360822  0  2.379579  0  0  -0.295913  0  2.626495  0  0  -0.315202  0  2.628049  0  0  -0.216919  -0.286492  0  2.626186  0
O  O54  1  0.47821702  0.20107336  0.53758010  1  0  -0.667087  0  2.070179  0  0  -0.614876  0  2.310899  0  0  -0.644704  0  2.298936  0  0  -0.35423  -0.598446  0  2.317306  0
O  O55  1  0.51662855  0.79806717  0.46102281  1  0  -0.649759  0  2.024677  0  0  -0.602554  0  2.265509  0  0  -0.632827  0  2.25405  0  0  -0.373911  -0.586435  0  2.271  0
O  O56  1  0.71088735  0.01569422  0.40505611  1  0  -0.653411  0  2.034093  0  0  -0.608669  0  2.274895  0  0  -0.639192  0  2.263209  0  0  -0.369153  -0.592785  0  2.280776  0
O  O57  1  0.27772580  0.98158720  0.59077483  1  0  -0.653716  0  2.017605  0  0  -0.609665  0  2.258265  0  0  -0.640112  0  2.246533  0  0  -0.365299  -0.593834  0  2.26426  0
O  O58  1  0.52388155  0.50276348  0.51651146  1  0  -0.917505  0  1.868385  0  0  -0.867774  0  2.069647  0  0  -0.899091  0  2.033429  0  0  -0.608696  -0.854576  0  2.092162  0
