# generated using pymatgen
data_CuH6C14(NO2)2
_symmetry_space_group_name_H-M   'P 1'
_cell_length_a   18.31167286
_cell_length_b   18.31165256
_cell_length_c   26.42992010
_cell_angle_alpha   69.72903293
_cell_angle_beta   69.72899493
_cell_angle_gamma   59.99352303
_symmetry_Int_Tables_number   1
_chemical_formula_structural   CuH6C14(NO2)2
_chemical_formula_sum   'Cu12 H72 C168 N24 O48'
_cell_volume   7033.70216317
_cell_formula_units_Z   12
loop_
 _symmetry_equiv_pos_site_id
 _symmetry_equiv_pos_as_xyz
  1  'x, y, z'
loop_
 _atom_site_type_symbol
 _atom_site_label
 _atom_site_symmetry_multiplicity
 _atom_site_fract_x
 _atom_site_fract_y
 _atom_site_fract_z
 _atom_site_occupancy
 _atom_site_pbe_bader_charge
 _atom_site_pbe_bader_spin_density
 _atom_site_pbe_cm5_charge
 _atom_site_pbe_ddec_charge
 _atom_site_pbe_ddec_spin_density
 _atom_site_pbe_ddec_sum_bond_order
 _atom_site_pbe_magmom
Cu  Cu0  1  0.24993878  0.81515034  0.70873604  1  1.083592  0.583906  0.690104  0.782501  0.738815  2.384299  0.584
Cu  Cu1  1  0.81518179  0.22615579  0.70875012  1  1.084838  0.583984  0.689881  0.783034  0.739463  2.383996  0.584
Cu  Cu2  1  0.22617573  0.24993152  0.70874173  1  1.082137  0.583918  0.689502  0.78212  0.739366  2.382977  0.584
Cu  Cu3  1  0.25006793  0.27382420  0.79125582  1  1.080387  0.583871  0.689541  0.782153  0.739378  2.382812  0.584
Cu  Cu4  1  0.27384459  0.68481549  0.79125123  1  1.084787  0.583997  0.689888  0.782952  0.739476  2.384055  0.585
Cu  Cu5  1  0.68484797  0.25006101  0.79126602  1  1.083661  0.583917  0.690123  0.782536  0.738828  2.384157  0.584
Cu  Cu6  1  0.75006273  0.18484794  0.29126509  1  1.083689  0.583908  0.690088  0.782464  0.738818  2.384276  0.584
Cu  Cu7  1  0.18481908  0.77384452  0.29124992  1  1.084814  0.583984  0.689882  0.783097  0.739463  2.383862  0.584
Cu  Cu8  1  0.77382643  0.75006590  0.29125756  1  1.082271  0.583922  0.689557  0.782168  0.739367  2.382925  0.584
Cu  Cu9  1  0.74993487  0.72617411  0.20874272  1  1.080664  0.583873  0.689532  0.782162  0.739373  2.382828  0.584
Cu  Cu10  1  0.72615628  0.31518248  0.20874936  1  1.084865  0.583996  0.689873  0.782929  0.739474  2.384061  0.585
Cu  Cu11  1  0.31515354  0.74993727  0.20873473  1  1.083609  0.583916  0.690087  0.782475  0.738831  2.384213  0.584
H  H12  1  0.36462480  0.76610479  0.89006072  1  0.115589  0.000365  0.112536  0.123374  0.000265  0.985591  0.0
H  H13  1  0.76618916  0.97915048  0.89006649  1  0.109514  0.000365  0.112601  0.123825  0.000266  0.985059  0.0
H  H14  1  0.97917339  0.36461516  0.89005364  1  0.100199  0.000369  0.112222  0.123191  0.000265  0.985663  0.0
H  H15  1  0.13538425  0.52082842  0.60994459  1  0.100078  0.00037  0.112224  0.123167  0.000266  0.985661  0.0
H  H16  1  0.52084810  0.73381094  0.60993400  1  0.109556  0.000366  0.112569  0.123779  0.000266  0.985038  0.0
H  H17  1  0.73389649  0.13537639  0.60993947  1  0.11557  0.000365  0.112562  0.123412  0.000265  0.98558  0.0
H  H18  1  0.63537477  0.23389432  0.10994105  1  0.115562  0.000364  0.112548  0.123397  0.000265  0.985637  0.0
H  H19  1  0.23381236  0.02084954  0.10993194  1  0.109494  0.000365  0.11256  0.123771  0.000266  0.985101  0.0
H  H20  1  0.02082877  0.63538458  0.10994509  1  0.10023  0.000369  0.112217  0.12319  0.000265  0.985664  0.0
H  H21  1  0.86461597  0.47917100  0.39005506  1  0.100085  0.000369  0.112219  0.123178  0.000265  0.98568  0.0
H  H22  1  0.47915083  0.26618845  0.39006748  1  0.109526  0.000365  0.112554  0.123777  0.000266  0.985062  0.0
H  H23  1  0.26610567  0.86462510  0.39005808  1  0.115581  0.000365  0.112573  0.12343  0.000265  0.985576  0.0
H  H24  1  0.26789537  0.99056809  0.76382727  1  0.131889  0.000689  0.112432  0.125321  0.000619  1.007802  0.0
H  H25  1  0.99062404  0.97765686  0.76384413  1  0.148693  0.000689  0.112007  0.125384  0.00062  1.007018  0.0
H  H26  1  0.97768166  0.26786606  0.76385107  1  0.116648  0.000696  0.112399  0.125681  0.000619  1.006393  0.0
H  H27  1  0.23213365  0.52231689  0.73614820  1  0.116465  0.000696  0.112393  0.125657  0.000619  1.00645  0.0
H  H28  1  0.52234330  0.50937703  0.73615643  1  0.14823  0.000689  0.112018  0.125422  0.00062  1.007101  0.0
H  H29  1  0.50942977  0.23210489  0.73617257  1  0.131841  0.000689  0.112448  0.12534  0.000619  1.0078  0.0
H  H30  1  0.73210614  0.00942902  0.23617376  1  0.131839  0.000689  0.11244  0.125327  0.000619  1.007749  0.0
H  H31  1  0.00937876  0.02234027  0.23615583  1  0.148686  0.000689  0.112023  0.125377  0.00062  1.007006  0.0
H  H32  1  0.02231985  0.73213455  0.23614722  1  0.116613  0.000696  0.1124  0.125648  0.000619  1.006423  0.0
H  H33  1  0.76786721  0.47768166  0.26385188  1  0.116592  0.000696  0.112406  0.125676  0.000619  1.006452  0.0
H  H34  1  0.47765951  0.49062127  0.26384362  1  0.148663  0.000689  0.112016  0.125356  0.00062  1.007098  0.0
H  H35  1  0.49057174  0.76789514  0.26382625  1  0.131809  0.000689  0.112437  0.125309  0.000619  1.007782  0.0
H  H36  1  0.34939302  0.00949252  0.89095902  1  0.088797  0.000362  0.113544  0.123592  0.000262  0.986003  0.0
H  H37  1  0.00958965  0.75005497  0.89097103  1  0.109871  0.000361  0.113185  0.123171  0.000262  0.98629  0.0
H  H38  1  0.75006840  0.34943956  0.89097816  1  0.067362  0.000363  0.113175  0.123279  0.000262  0.986009  0.0
H  H39  1  0.15056027  0.74993371  0.60902223  1  0.067351  0.000363  0.113143  0.123213  0.000262  0.985965  0.0
H  H40  1  0.74994616  0.49040953  0.60903019  1  0.109893  0.000361  0.113171  0.123137  0.000262  0.986215  0.0
H  H41  1  0.49050961  0.15060708  0.60903923  1  0.088607  0.000363  0.113563  0.123623  0.000262  0.985973  0.0
H  H42  1  0.65060720  0.99050690  0.10904139  1  0.088911  0.000363  0.11358  0.123654  0.000262  0.985991  0.0
H  H43  1  0.99041058  0.24994444  0.10903014  1  0.1099  0.000361  0.113185  0.123157  0.000262  0.986267  0.0
H  H44  1  0.24993440  0.65056107  0.10902058  1  0.067227  0.000363  0.113145  0.123222  0.000262  0.986007  0.0
H  H45  1  0.84943930  0.25006657  0.39097850  1  0.067339  0.000363  0.113161  0.123252  0.000262  0.986002  0.0
H  H46  1  0.25005471  0.50959078  0.39096872  1  0.109908  0.000361  0.113159  0.123145  0.000262  0.986201  0.0
H  H47  1  0.50949320  0.84939238  0.39095941  1  0.088792  0.000363  0.113537  0.123583  0.000262  0.986009  0.0
H  H48  1  0.51473277  0.72272705  0.17327824  1  0.101433  -2.8e-05  0.133238  0.081211  -2.4e-05  0.961943  0.0
H  H49  1  0.72282170  0.58917730  0.17328173  1  0.11908  -2.7e-05  0.13333  0.081242  -2.4e-05  0.961356  0.0
H  H50  1  0.58923217  0.51475222  0.17328715  1  0.108878  -2.7e-05  0.13301  0.080819  -2.4e-05  0.960901  0.0
H  H51  1  0.98524829  0.91076876  0.32671233  1  0.108879  -2.7e-05  0.133043  0.080885  -2.4e-05  0.960912  0.0
H  H52  1  0.91082272  0.77717791  0.32671777  1  0.119056  -2.7e-05  0.13334  0.081268  -2.4e-05  0.961359  0.0
H  H53  1  0.77727345  0.98526752  0.32672073  1  0.101401  -2.8e-05  0.133244  0.081211  -2.4e-05  0.961979  0.0
H  H54  1  0.48526099  0.27727341  0.82672497  1  0.101518  -2.8e-05  0.133235  0.081214  -2.4e-05  0.962027  0.0
H  H55  1  0.27717787  0.41082356  0.82671772  1  0.119044  -2.7e-05  0.133338  0.081249  -2.4e-05  0.961357  0.0
H  H56  1  0.41076805  0.48524837  0.82671222  1  0.10887  -2.7e-05  0.133019  0.080841  -2.4e-05  0.960901  0.0
H  H57  1  0.01474418  0.08923400  0.67329065  1  0.108758  -2.7e-05  0.133026  0.080851  -2.4e-05  0.960918  0.0
H  H58  1  0.08917750  0.22282209  0.67328249  1  0.119055  -2.7e-05  0.133346  0.081258  -2.4e-05  0.961351  0.0
H  H59  1  0.22272613  0.01473276  0.67327811  1  0.10144  -2.8e-05  0.133226  0.081185  -2.4e-05  0.961976  0.0
H  H60  1  0.57576275  0.79675693  0.00262797  1  0.093469  2e-05  0.120845  0.089742  1e-06  0.964586  0.0
H  H61  1  0.79665668  0.62492924  0.00262428  1  0.084687  1.9e-05  0.12129  0.090637  1e-06  0.963886  0.0
H  H62  1  0.62486498  0.57572466  0.00263361  1  0.085399  1.9e-05  0.12093  0.090552  1e-06  0.963475  0.0
H  H63  1  0.92427656  0.87513497  0.49736556  1  0.085392  1.9e-05  0.12094  0.090523  1e-06  0.963539  0.0
H  H64  1  0.87507068  0.70334416  0.49737494  1  0.084707  1.9e-05  0.121288  0.090649  1e-06  0.963919  0.0
H  H65  1  0.70324258  0.92423731  0.49737130  1  0.093504  2e-05  0.120852  0.089768  1e-06  0.964558  0.0
H  H66  1  0.42423231  0.20324181  0.99737573  1  0.093303  2e-05  0.120835  0.089726  1e-06  0.96468  0.0
H  H67  1  0.20334419  0.37507048  0.99737514  1  0.084708  1.9e-05  0.121292  0.090641  1e-06  0.963925  0.0
H  H68  1  0.37513524  0.42427650  0.99736562  1  0.085397  1.9e-05  0.120953  0.090553  1e-06  0.963514  0.0
H  H69  1  0.07572108  0.12486673  0.50263681  1  0.08551  1.9e-05  0.120957  0.090536  1e-06  0.963453  0.0
H  H70  1  0.12492890  0.29665612  0.50262541  1  0.084715  1.9e-05  0.121296  0.090661  1e-06  0.963903  0.0
H  H71  1  0.29675635  0.07576325  0.50262763  1  0.093457  2e-05  0.120848  0.089752  1e-06  0.96457  0.0
H  H72  1  0.34034134  0.76659183  0.08768964  1  0.125927  -9.4e-05  0.127168  0.106665  -7.9e-05  0.979922  0.0
H  H73  1  0.76659055  0.80534604  0.08771461  1  0.144776  -9.2e-05  0.127183  0.107687  -7.9e-05  0.980163  0.0
H  H74  1  0.80540132  0.34033720  0.08771274  1  0.118854  -9.3e-05  0.126943  0.106659  -7.9e-05  0.980365  0.0
H  H75  1  0.15966364  0.69459834  0.41228621  1  0.118838  -9.3e-05  0.126937  0.106667  -7.9e-05  0.980384  0.0
H  H76  1  0.69465379  0.73341066  0.41228500  1  0.144766  -9.2e-05  0.12719  0.107692  -7.8e-05  0.980197  0.0
H  H77  1  0.73340880  0.15965869  0.41231037  1  0.12592  -9.4e-05  0.127168  0.106668  -7.9e-05  0.979909  0.0
H  H78  1  0.65965242  0.23341154  0.91231212  1  0.12604  -9.3e-05  0.127137  0.106641  -7.9e-05  0.979926  0.0
H  H79  1  0.23341097  0.19465456  0.91228444  1  0.144782  -9.2e-05  0.127197  0.107691  -7.8e-05  0.980181  0.0
H  H80  1  0.19459891  0.65966397  0.91228611  1  0.118842  -9.3e-05  0.12694  0.106669  -7.9e-05  0.980391  0.0
H  H81  1  0.84033207  0.30540361  0.58771467  1  0.118741  -9.3e-05  0.126894  0.106612  -7.8e-05  0.980424  0.0
H  H82  1  0.30534643  0.26658993  0.58771475  1  0.144781  -9.2e-05  0.127187  0.107683  -7.8e-05  0.9802  0.0
H  H83  1  0.26659206  0.84034045  0.58768957  1  0.125903  -9.4e-05  0.12718  0.106687  -7.9e-05  0.979954  0.0
C  C84  1  0.42699728  0.81533093  0.98551570  1  -0.171813  0.00088  -0.051061  -0.124504  0.000569  4.140054  0.001
C  C85  1  0.81544929  0.77206590  0.98554646  1  -0.153511  0.000878  -0.050697  -0.122424  0.000568  4.138256  0.001
C  C86  1  0.77210802  0.42690419  0.98555586  1  -0.242691  0.000886  -0.049499  -0.12167  0.000567  4.1388  0.001
C  C87  1  0.07309567  0.72789479  0.51444211  1  -0.242017  0.000886  -0.049489  -0.121713  0.000567  4.138772  0.001
C  C88  1  0.72793263  0.68455157  0.51445339  1  -0.15383  0.000878  -0.050688  -0.122426  0.000568  4.138143  0.001
C  C89  1  0.68467012  0.07300286  0.51448329  1  -0.171976  0.000881  -0.051015  -0.124459  0.000569  4.139996  0.001
C  C90  1  0.57300165  0.18466846  0.01448578  1  -0.17134  0.00088  -0.051134  -0.124594  0.000569  4.14012  0.001
C  C91  1  0.18455158  0.22793382  0.01445296  1  -0.154005  0.000878  -0.050709  -0.122417  0.000568  4.138223  0.001
C  C92  1  0.22789349  0.57309584  0.01444296  1  -0.241674  0.000885  -0.049537  -0.121776  0.000567  4.138872  0.001
C  C93  1  0.92690197  0.27210632  0.48555889  1  -0.24174  0.000886  -0.049481  -0.12158  0.000567  4.138758  0.001
C  C94  1  0.27206565  0.31544985  0.48554624  1  -0.153469  0.000878  -0.050698  -0.122461  0.000568  4.13826  0.001
C  C95  1  0.31532881  0.92699886  0.48551574  1  -0.171903  0.00088  -0.051046  -0.12447  0.000569  4.14008  0.001
C  C96  1  0.36268068  0.88264317  0.89590348  1  0.1172  0.001793  0.000572  0.125596  0.001066  4.119737  0.001
C  C97  1  0.88274112  0.85867830  0.89594047  1  0.081843  0.001795  0.000662  0.125468  0.001065  4.120329  0.001
C  C98  1  0.85873297  0.36261516  0.89594671  1  0.077749  0.001796  0.000358  0.124509  0.001064  4.122256  0.001
C  C99  1  0.13738445  0.64127017  0.60405194  1  0.077615  0.001796  0.000366  0.124506  0.001064  4.122289  0.001
C  C100  1  0.64132115  0.61725917  0.60406006  1  0.081855  0.001796  0.000654  0.125387  0.001065  4.120264  0.001
C  C101  1  0.61735779  0.13732029  0.60409538  1  0.117222  0.001793  0.000574  0.125612  0.001066  4.119606  0.001
C  C102  1  0.63731761  0.11735650  0.10409771  1  0.11743  0.001793  0.000546  0.125582  0.001066  4.119698  0.001
C  C103  1  0.11725910  0.14132111  0.10405917  1  0.081882  0.001795  0.000669  0.125498  0.001065  4.120217  0.001
C  C104  1  0.14126919  0.63738633  0.10405122  1  0.077585  0.001796  0.000398  0.124626  0.001064  4.122178  0.001
C  C105  1  0.86261449  0.35873039  0.39594812  1  0.077589  0.001796  0.000345  0.124539  0.001064  4.122322  0.001
C  C106  1  0.35867842  0.38274053  0.39594006  1  0.081854  0.001796  0.000616  0.125356  0.001065  4.120253  0.001
C  C107  1  0.38264308  0.86268234  0.39590297  1  0.117389  0.001793  0.000634  0.125711  0.001066  4.119748  0.001
C  C108  1  0.34873066  0.83409262  0.87192708  1  -0.085956  -0.000387  -0.06236  -0.116041  -0.000906  3.867313  0.0
C  C109  1  0.83417619  0.94516239  0.87194752  1  -0.019242  -0.000439  -0.062493  -0.11661  -0.000909  3.864819  0.0
C  C110  1  0.94520072  0.34869931  0.87194854  1  0.009113  -0.000439  -0.062156  -0.115426  -0.0009  3.866074  0.0
C  C111  1  0.15130037  0.55480083  0.62805082  1  0.009181  -0.000439  -0.062137  -0.115333  -0.000899  3.866152  0.0
C  C112  1  0.55483637  0.66582279  0.62805392  1  -0.019284  -0.000439  -0.062471  -0.116574  -0.000908  3.864797  0.0
C  C113  1  0.66590800  0.15127051  0.62807331  1  -0.085953  -0.000387  -0.062371  -0.116052  -0.000906  3.867289  0.0
C  C114  1  0.65126827  0.16590735  0.12807350  1  -0.08584  -0.000387  -0.062379  -0.11607  -0.000906  3.867393  0.0
C  C115  1  0.16582339  0.05483673  0.12805236  1  -0.019252  -0.000439  -0.062479  -0.116607  -0.000909  3.864884  0.0
C  C116  1  0.05480144  0.65130160  0.12804991  1  0.009095  -0.000439  -0.062168  -0.115485  -0.0009  3.866047  0.0
C  C117  1  0.84869985  0.44519916  0.37194945  1  0.009185  -0.000439  -0.062171  -0.115441  -0.0009  3.866201  0.0
C  C118  1  0.44516256  0.33417718  0.37194704  1  -0.019257  -0.000439  -0.062477  -0.116611  -0.000908  3.864853  0.0
C  C119  1  0.33409351  0.84873126  0.37192585  1  -0.08583  -0.000387  -0.062391  -0.1161  -0.000905  3.867406  0.0
C  C120  1  0.31460921  0.87327934  0.82442590  1  0.074265  0.017383  -0.013878  -0.02351  0.012186  3.982902  0.014
C  C121  1  0.87334685  0.98761076  0.82444383  1  -0.00578  0.017509  -0.01318  -0.022411  0.012171  3.98222  0.014
C  C122  1  0.98763349  0.31459103  0.82444002  1  -0.031763  0.017524  -0.014467  -0.023898  0.012182  3.982824  0.014
C  C123  1  0.18540911  0.51236666  0.67555726  1  -0.031769  0.017524  -0.014498  -0.024019  0.012182  3.983022  0.014
C  C124  1  0.51238823  0.62665605  0.67555624  1  -0.006172  0.017509  -0.013116  -0.022199  0.01217  3.982136  0.014
C  C125  1  0.62672284  0.18538922  0.67557366  1  0.07425  0.017384  -0.013882  -0.023558  0.012187  3.982884  0.014
C  C126  1  0.68538972  0.12672063  0.17557506  1  0.073936  0.017385  -0.013885  -0.023592  0.012187  3.982962  0.014
C  C127  1  0.12665467  0.01238810  0.17555489  1  -0.005807  0.017509  -0.01317  -0.022336  0.012171  3.98212  0.014
C  C128  1  0.01236673  0.68540956  0.17555859  1  -0.031716  0.017523  -0.0145  -0.023964  0.012182  3.982851  0.014
C  C129  1  0.81459240  0.48763278  0.32444169  1  -0.031744  0.017524  -0.014438  -0.0239  0.012182  3.982918  0.014
C  C130  1  0.48761264  0.37334367  0.32444469  1  -0.00611  0.01751  -0.013136  -0.022234  0.012171  3.982126  0.014
C  C131  1  0.37327997  0.81461083  0.32442484  1  0.074007  0.017385  -0.013855  -0.023545  0.012187  3.982985  0.014
C  C132  1  0.29382853  0.96045857  0.80097238  1  -0.066295  0.001467  -0.067614  -0.087689  0.000649  3.903551  0.001
C  C133  1  0.96051116  0.94466696  0.80098539  1  -0.079333  0.001473  -0.067214  -0.087322  0.000646  3.902001  0.001
C  C134  1  0.94468083  0.29383250  0.80098456  1  -0.054833  0.001473  -0.066415  -0.08604  0.00065  3.900989  0.001
C  C135  1  0.20617062  0.55531626  0.69901465  1  -0.054613  0.001472  -0.066384  -0.085942  0.00065  3.900866  0.001
C  C136  1  0.55533286  0.53948839  0.69901713  1  -0.078711  0.001472  -0.067322  -0.087581  0.000646  3.90196  0.001
C  C137  1  0.53953927  0.20617257  0.69902876  1  -0.066356  0.001466  -0.067626  -0.08772  0.000648  3.903516  0.001
C  C138  1  0.70617234  0.03953940  0.19902860  1  -0.0659  0.001467  -0.067585  -0.087629  0.000649  3.903549  0.001
C  C139  1  0.03948971  0.05533218  0.19901493  1  -0.079312  0.001473  -0.067226  -0.087339  0.000646  3.901918  0.001
C  C140  1  0.05531940  0.70616925  0.19901378  1  -0.054819  0.001473  -0.066391  -0.085908  0.00065  3.900972  0.001
C  C141  1  0.79383154  0.44468174  0.30098525  1  -0.05481  0.001472  -0.066411  -0.085989  0.00065  3.900847  0.001
C  C142  1  0.44466737  0.46051160  0.30098390  1  -0.07921  0.001472  -0.067274  -0.087399  0.000645  3.901899  0.001
C  C143  1  0.46046289  0.79382718  0.30097110  1  -0.066084  0.001466  -0.067653  -0.08767  0.000648  3.903613  0.001
C  C144  1  0.30535672  0.00960757  0.82517214  1  0.045861  0.016873  -0.012515  -0.021496  0.01188  3.98863  0.013
C  C145  1  0.00965747  0.85978867  0.82518949  1  0.031382  0.017096  -0.013409  -0.024655  0.011888  3.991632  0.013
C  C146  1  0.85977107  0.30542956  0.82516959  1  0.064976  0.016863  -0.013667  -0.024314  0.011899  3.993384  0.013
C  C147  1  0.19456992  0.64023008  0.67482917  1  0.064953  0.016864  -0.013723  -0.024449  0.011899  3.993433  0.013
C  C148  1  0.64021402  0.49034211  0.67481015  1  0.031051  0.017097  -0.013386  -0.024604  0.011888  3.991649  0.013
C  C149  1  0.49039336  0.19464161  0.67482684  1  0.045934  0.016873  -0.012545  -0.021566  0.01188  3.988754  0.013
C  C150  1  0.69464415  0.99039215  0.17482766  1  0.045795  0.016873  -0.012603  -0.021635  0.011881  3.988599  0.013
C  C151  1  0.99034340  0.14021047  0.17481082  1  0.031372  0.017097  -0.013377  -0.024619  0.011888  3.991686  0.013
C  C152  1  0.14022980  0.69457133  0.17482917  1  0.065155  0.016864  -0.013684  -0.02442  0.011899  3.993416  0.013
C  C153  1  0.80542966  0.35976962  0.32517094  1  0.06507  0.016864  -0.013735  -0.024472  0.011899  3.993309  0.013
C  C154  1  0.35978814  0.50965647  0.32518885  1  0.031341  0.017097  -0.013318  -0.024594  0.011889  3.991799  0.013
C  C155  1  0.50960816  0.80535725  0.32517226  1  0.045953  0.016874  -0.01254  -0.021537  0.011881  3.988581  0.013
C  C156  1  0.33995926  0.97107197  0.87240144  1  0.000784  -0.000493  -0.06482  -0.119161  -0.000958  3.867687  0.0
C  C157  1  0.97115232  0.81648088  0.87241753  1  -0.051217  -0.000478  -0.064058  -0.116554  -0.000963  3.868904  0.0
C  C158  1  0.81648718  0.33999900  0.87240644  1  0.021935  -0.00052  -0.063521  -0.116329  -0.000954  3.86954  0.0
C  C159  1  0.16000143  0.68351220  0.62759443  1  0.021933  -0.000519  -0.0635  -0.116246  -0.000953  3.869596  0.0
C  C160  1  0.68351782  0.52884784  0.62758430  1  -0.050893  -0.000478  -0.064033  -0.116461  -0.000963  3.868935  0.0
C  C161  1  0.52892912  0.16004023  0.62759891  1  0.000973  -0.000493  -0.064839  -0.119157  -0.000958  3.867663  0.0
C  C162  1  0.66004032  0.02892831  0.12759929  1  0.000359  -0.000493  -0.064815  -0.11916  -0.000958  3.867594  0.0
C  C163  1  0.02884725  0.18351823  0.12758348  1  -0.05121  -0.000478  -0.064078  -0.116571  -0.000963  3.868915  0.0
C  C164  1  0.18351434  0.66000219  0.12759247  1  0.021894  -0.000519  -0.063558  -0.116333  -0.000953  3.869554  0.0
C  C165  1  0.83999879  0.31648721  0.37240673  1  0.021905  -0.000519  -0.063472  -0.116225  -0.000953  3.869515  0.0
C  C166  1  0.31648176  0.47115360  0.37241464  1  -0.051182  -0.000478  -0.064023  -0.116456  -0.000963  3.868938  0.0
C  C167  1  0.47107111  0.83996094  0.37240069  1  0.000548  -0.000493  -0.064832  -0.119157  -0.000958  3.867695  0.0
C  C168  1  0.27987232  0.10335966  0.79929074  1  1.535267  -0.001466  0.217211  0.581855  -0.002043  4.157905  -0.004
C  C169  1  0.10339855  0.81740950  0.79931780  1  1.578805  -0.001756  0.216305  0.581657  -0.002042  4.15502  -0.004
C  C170  1  0.81739984  0.27992357  0.79929288  1  1.531588  -0.001515  0.216905  0.58203  -0.002039  4.157586  -0.004
C  C171  1  0.22007670  0.68259479  0.70071029  1  1.531612  -0.001515  0.216884  0.582023  -0.00204  4.157653  -0.004
C  C172  1  0.68258567  0.39660309  0.70068652  1  1.57862  -0.001756  0.216403  0.581877  -0.002043  4.15494  -0.004
C  C173  1  0.39664172  0.22012680  0.70070988  1  1.535327  -0.001466  0.217182  0.581869  -0.002043  4.158069  -0.004
C  C174  1  0.72012919  0.89663862  0.20070926  1  1.535249  -0.001467  0.217218  0.581903  -0.002044  4.15785  -0.004
C  C175  1  0.89660232  0.18258848  0.20068356  1  1.578663  -0.001757  0.216324  0.581719  -0.002043  4.154986  -0.004
C  C176  1  0.18260102  0.72007615  0.20070692  1  1.531585  -0.001515  0.216964  0.582117  -0.00204  4.157567  -0.004
C  C177  1  0.77992352  0.31740346  0.29929077  1  1.531596  -0.001515  0.216884  0.582046  -0.00204  4.157779  -0.004
C  C178  1  0.31741520  0.60339721  0.29931352  1  1.578637  -0.001756  0.216366  0.581793  -0.002043  4.154919  -0.004
C  C179  1  0.60336173  0.77987181  0.29928919  1  1.535271  -0.001467  0.217107  0.581711  -0.002043  4.158148  -0.004
C  C180  1  0.29830603  0.82446547  0.79763952  1  1.555988  -0.001676  0.216692  0.583634  -0.002071  4.155921  -0.004
C  C181  1  0.82453282  0.07954721  0.79769824  1  1.569528  -0.001706  0.216371  0.582813  -0.002079  4.157915  -0.004
C  C182  1  0.07954914  0.29825789  0.79765669  1  1.554875  -0.001651  0.215218  0.580547  -0.00207  4.159827  -0.004
C  C183  1  0.20174119  0.42045230  0.70234292  1  1.555073  -0.001651  0.215144  0.580496  -0.00207  4.159903  -0.004
C  C184  1  0.42045390  0.67546440  0.70230328  1  1.569638  -0.001707  0.216343  0.582682  -0.002079  4.158  -0.004
C  C185  1  0.67552986  0.20169537  0.70236361  1  1.556057  -0.001676  0.216771  0.583826  -0.002072  4.155687  -0.004
C  C186  1  0.70169484  0.17553250  0.20236259  1  1.556061  -0.001676  0.216769  0.583769  -0.002072  4.155883  -0.004
C  C187  1  0.17546740  0.92045221  0.20230103  1  1.569333  -0.001704  0.216343  0.58274  -0.002079  4.157953  -0.004
C  C188  1  0.92045238  0.70174156  0.20234150  1  1.55528  -0.001652  0.21521  0.580535  -0.00207  4.159994  -0.004
C  C189  1  0.79825968  0.57954742  0.29765726  1  1.55506  -0.00165  0.215189  0.580549  -0.00207  4.159903  -0.004
C  C190  1  0.57954762  0.32453446  0.29769733  1  1.569561  -0.001705  0.216279  0.58251  -0.002079  4.158191  -0.004
C  C191  1  0.32447101  0.79830552  0.29763553  1  1.555983  -0.001676  0.216805  0.583794  -0.002072  4.155747  -0.004
C  C192  1  0.39799310  0.84443829  0.94393731  1  -0.185102  0.000195  -0.031983  -0.077082  7.8e-05  4.100834  0.0
C  C193  1  0.84456289  0.81354291  0.94397891  1  -0.144657  0.000186  -0.032198  -0.07899  7.7e-05  4.1033  0.0
C  C194  1  0.81360850  0.39787267  0.94399817  1  -0.034231  0.000179  -0.033331  -0.079646  7.8e-05  4.104039  0.0
C  C195  1  0.10212710  0.68639076  0.55600179  1  -0.034684  0.000179  -0.033353  -0.079643  7.8e-05  4.104008  0.0
C  C196  1  0.68645583  0.65543781  0.55602056  1  -0.14433  0.000186  -0.032236  -0.079004  7.7e-05  4.103239  0.0
C  C197  1  0.65556110  0.10200832  0.55606179  1  -0.185096  0.000195  -0.032042  -0.077159  7.8e-05  4.100759  0.0
C  C198  1  0.60200260  0.15556250  0.05606461  1  -0.185514  0.000195  -0.031924  -0.076985  7.8e-05  4.100837  0.0
C  C199  1  0.15543669  0.18645795  0.05602017  1  -0.144142  0.000186  -0.03221  -0.079011  7.7e-05  4.103183  0.0
C  C200  1  0.18639237  0.60212706  0.05600087  1  -0.035053  0.00018  -0.0333  -0.079588  7.9e-05  4.104049  0.0
C  C201  1  0.89787183  0.31360922  0.44399842  1  -0.035358  0.000179  -0.033344  -0.079731  7.8e-05  4.104028  0.0
C  C202  1  0.31354181  0.34456389  0.44397879  1  -0.144676  0.000186  -0.032185  -0.078925  7.7e-05  4.103327  0.0
C  C203  1  0.34443718  0.89799717  0.44393649  1  -0.185151  0.000195  -0.032026  -0.077172  7.8e-05  4.100771  0.0
C  C204  1  0.45396638  0.78626377  0.03589996  1  0.046339  0.000238  0.007307  0.055655  0.000165  4.109787  0.0
C  C205  1  0.78629335  0.72384297  0.03592064  1  0.071165  0.000237  0.00789  0.056715  0.000164  4.108555  0.0
C  C206  1  0.72384964  0.45392098  0.03592468  1  0.009458  0.000238  0.008008  0.056948  0.000165  4.107085  0.0
C  C207  1  0.04607997  0.77615187  0.46407387  1  0.009428  0.000238  0.008  0.056964  0.000165  4.10717  0.0
C  C208  1  0.77615630  0.71370789  0.46407905  1  0.070911  0.000237  0.007949  0.056769  0.000164  4.108521  0.0
C  C209  1  0.71373639  0.04603329  0.46409946  1  0.046526  0.000238  0.007288  0.055683  0.000165  4.109869  0.0
C  C210  1  0.54602867  0.21373787  0.96410191  1  0.046261  0.000238  0.007375  0.055713  0.000165  4.109761  0.0
C  C211  1  0.21370881  0.27615619  0.96407860  1  0.070886  0.000237  0.00791  0.056666  0.000164  4.108594  0.0
C  C212  1  0.27615123  0.54607991  0.96407408  1  0.009458  0.000238  0.008013  0.056986  0.000165  4.107127  0.0
C  C213  1  0.95391703  0.22385069  0.53592732  1  0.009845  0.000238  0.007949  0.056784  0.000165  4.107265  0.0
C  C214  1  0.22384263  0.28629267  0.53592101  1  0.071312  0.000237  0.007902  0.056748  0.000164  4.108533  0.0
C  C215  1  0.28626255  0.95396669  0.53590037  1  0.046509  0.000238  0.007324  0.055681  0.000165  4.109917  0.0
C  C216  1  0.53134689  0.78105304  0.03986708  1  0.569573  -0.000581  0.073323  0.083692  -0.000676  3.913995  0.0
C  C217  1  0.78100402  0.64776267  0.03987066  1  0.539563  -0.000581  0.072574  0.081686  -0.000674  3.916139  0.0
C  C218  1  0.64773467  0.53132365  0.03987795  1  0.566951  -0.000584  0.072702  0.081568  -0.000677  3.916163  0.0
C  C219  1  0.96867743  0.85226519  0.46012125  1  0.566987  -0.000584  0.072684  0.081585  -0.000677  3.916295  0.0
C  C220  1  0.85223701  0.71899617  0.46012917  1  0.539398  -0.000581  0.072577  0.081675  -0.000674  3.916231  0.0
C  C221  1  0.71894714  0.96865429  0.46013101  1  0.569581  -0.000581  0.073356  0.083656  -0.000676  3.914031  0.0
C  C222  1  0.46864881  0.21894600  0.96013563  1  0.56992  -0.00058  0.073287  0.083678  -0.000676  3.914119  0.0
C  C223  1  0.21899685  0.35223763  0.96012862  1  0.539429  -0.000581  0.072599  0.081757  -0.000674  3.916107  0.0
C  C224  1  0.35226555  0.46867693  0.96012066  1  0.567019  -0.000584  0.07271  0.081593  -0.000677  3.916291  0.0
C  C225  1  0.03131892  0.14773764  0.53988040  1  0.566984  -0.000584  0.072714  0.081695  -0.000677  3.916068  0.0
C  C226  1  0.14776257  0.28100411  0.53987119  1  0.539401  -0.000581  0.072571  0.081659  -0.000674  3.91619  0.0
C  C227  1  0.28105179  0.03134743  0.53986726  1  0.569566  -0.000581  0.07332  0.083669  -0.000676  3.914013  0.0
C  C228  1  0.49837203  0.73994443  0.13343189  1  1.104983  -0.000454  0.184839  0.241838  -0.00054  3.968513  0.0
C  C229  1  0.74000431  0.62819474  0.13344431  1  1.079473  -0.000454  0.185566  0.24445  -0.000537  3.965365  0.0
C  C230  1  0.62825308  0.49838914  0.13344137  1  1.075174  -0.000457  0.185636  0.244697  -0.00054  3.96465  0.0
C  C231  1  0.00161183  0.87174746  0.36655821  1  1.075154  -0.000457  0.185585  0.244558  -0.00054  3.964727  0.0
C  C232  1  0.87180522  0.75999621  0.36655538  1  1.079478  -0.000454  0.185528  0.244386  -0.000537  3.965375  0.0
C  C233  1  0.76005557  0.00162907  0.36656719  1  1.104988  -0.000454  0.184835  0.241821  -0.00054  3.968617  0.0
C  C234  1  0.50162174  0.26005661  0.86657118  1  1.104966  -0.000454  0.184907  0.24192  -0.000539  3.968529  0.0
C  C235  1  0.25999526  0.37180670  0.86655539  1  1.079345  -0.000454  0.185548  0.244446  -0.000537  3.965365  0.0
C  C236  1  0.37174779  0.50161174  0.86655777  1  1.075137  -0.000457  0.18565  0.244689  -0.00054  3.96463  0.0
C  C237  1  0.99838258  0.12825505  0.63344474  1  1.075141  -0.000457  0.185644  0.244705  -0.00054  3.964472  0.0
C  C238  1  0.12819500  0.24000437  0.63344475  1  1.079478  -0.000454  0.18553  0.244427  -0.000537  3.965348  0.0
C  C239  1  0.23994401  0.99837120  0.63343203  1  1.104999  -0.000454  0.184874  0.241918  -0.00054  3.968524  0.0
C  C240  1  0.40163113  0.76447390  0.08626311  1  0.566521  -0.000572  0.080945  0.103157  -0.000653  3.847069  0.0
C  C241  1  0.76447050  0.74760693  0.08628916  1  0.556446  -0.000571  0.079779  0.100055  -0.000654  3.847166  0.0
C  C242  1  0.74764704  0.40163416  0.08629321  1  0.576573  -0.000572  0.079614  0.101132  -0.000656  3.847497  0.0
C  C243  1  0.09836711  0.75235268  0.41370604  1  0.576573  -0.000572  0.079653  0.101144  -0.000656  3.847541  0.0
C  C244  1  0.75239310  0.73553010  0.41371052  1  0.556837  -0.000571  0.079753  0.100038  -0.000654  3.847188  0.0
C  C245  1  0.73552603  0.09836896  0.41373627  1  0.566552  -0.000572  0.08093  0.10311  -0.000653  3.847129  0.0
C  C246  1  0.59836264  0.23552830  0.91373817  1  0.566637  -0.000571  0.080944  0.1031  -0.000653  3.847194  0.0
C  C247  1  0.23553036  0.25239395  0.91370998  1  0.556865  -0.000571  0.07977  0.100069  -0.000654  3.847205  0.0
C  C248  1  0.25235254  0.59836670  0.91370587  1  0.576577  -0.000572  0.07966  0.101144  -0.000656  3.847577  0.0
C  C249  1  0.90162794  0.24764955  0.58629569  1  0.576601  -0.000572  0.07969  0.101241  -0.000656  3.847606  0.0
C  C250  1  0.24760713  0.26446990  0.58628936  1  0.556414  -0.000571  0.079754  0.100042  -0.000654  3.847207  0.0
C  C251  1  0.26447419  0.90163046  0.58626338  1  0.566523  -0.000572  0.08093  0.103121  -0.000653  3.847114  0.0
N  N252  1  0.55354779  0.75801283  0.08812248  1  -1.211005  0.000269  -0.315986  -0.291499  0.000202  3.321831  0.0
N  N253  1  0.75798147  0.60032285  0.08812297  1  -1.180618  0.00027  -0.31576  -0.292151  0.0002  3.32298  0.0
N  N254  1  0.60032815  0.55356295  0.08812648  1  -1.180139  0.00027  -0.315604  -0.292082  0.0002  3.324354  0.0
N  N255  1  0.94643821  0.89967216  0.41187299  1  -1.180135  0.00027  -0.315607  -0.292057  0.0002  3.324431  0.0
N  N256  1  0.89967682  0.74201826  0.41187696  1  -1.180588  0.00027  -0.315767  -0.292153  0.0002  3.323017  0.0
N  N257  1  0.74198700  0.94645251  0.41187665  1  -1.211029  0.000269  -0.31599  -0.291469  0.000202  3.321908  0.0
N  N258  1  0.44644727  0.24198707  0.91188132  1  -1.211509  0.000269  -0.316015  -0.291564  0.000202  3.321851  0.0
N  N259  1  0.24201811  0.39967801  0.91187648  1  -1.180532  0.00027  -0.315789  -0.292211  0.0002  3.323048  0.0
N  N260  1  0.39967272  0.44643793  0.91187266  1  -1.180162  0.00027  -0.315643  -0.292115  0.0002  3.324449  0.0
N  N261  1  0.05355685  0.10032890  0.58813015  1  -1.180058  0.00027  -0.315615  -0.292133  0.0002  3.324069  0.0
N  N262  1  0.10032212  0.25798230  0.58812348  1  -1.180596  0.00027  -0.315752  -0.292149  0.0002  3.322978  0.0
N  N263  1  0.25801193  0.05354805  0.58812228  1  -1.210988  0.000269  -0.315983  -0.291501  0.000202  3.321828  0.0
N  N264  1  0.42329300  0.74223747  0.13462721  1  -1.211568  -0.000661  -0.320964  -0.27106  -0.000253  3.470087  0.001
N  N265  1  0.74228304  0.69977939  0.13464880  1  -1.238264  -0.000667  -0.321394  -0.271682  -0.000262  3.467721  0.001
N  N266  1  0.69985712  0.42331267  0.13464807  1  -1.208988  -0.000668  -0.32094  -0.271605  -0.000261  3.468358  0.001
N  N267  1  0.07668814  0.80014334  0.36535114  1  -1.209011  -0.000669  -0.320939  -0.271563  -0.000261  3.468295  0.001
N  N268  1  0.80022090  0.75771762  0.36535043  1  -1.238246  -0.000667  -0.321379  -0.271637  -0.000262  3.467676  0.001
N  N269  1  0.75776371  0.07670715  0.36537184  1  -1.211627  -0.000661  -0.320938  -0.271  -0.000253  3.470146  0.001
N  N270  1  0.57670206  0.25776359  0.86537441  1  -1.211529  -0.000661  -0.320969  -0.271029  -0.000253  3.470155  0.001
N  N271  1  0.25771783  0.30022150  0.86534997  1  -1.238234  -0.000667  -0.321388  -0.271659  -0.000263  3.467597  0.001
N  N272  1  0.30014310  0.57668733  0.86535106  1  -1.209041  -0.000668  -0.32101  -0.271658  -0.00026  3.46848  0.001
N  N273  1  0.92330692  0.19985947  0.63465083  1  -1.209063  -0.000669  -0.320967  -0.271629  -0.000261  3.468432  0.001
N  N274  1  0.19977932  0.24228237  0.63464946  1  -1.238265  -0.000667  -0.321392  -0.271682  -0.000263  3.467751  0.001
N  N275  1  0.24223716  0.92329199  0.63462772  1  -1.211579  -0.000661  -0.320977  -0.271079  -0.000253  3.470085  0.001
O  O276  1  0.26180701  0.12852263  0.75192263  1  -1.104094  0.093616  -0.311156  -0.517287  0.05897  2.35286  0.086
O  O277  1  0.12855593  0.85768611  0.75194891  1  -1.103989  0.093663  -0.311433  -0.517452  0.059021  2.34998  0.086
O  O278  1  0.85768430  0.26186740  0.75192497  1  -1.105851  0.093675  -0.311927  -0.518068  0.058933  2.351808  0.086
O  O279  1  0.23813135  0.64231482  0.74807444  1  -1.105929  0.093656  -0.311889  -0.517941  0.05892  2.352058  0.086
O  O280  1  0.64231298  0.37144518  0.74805233  1  -1.10399  0.093646  -0.311434  -0.517514  0.05901  2.350295  0.086
O  O281  1  0.37147744  0.23819309  0.74807467  1  -1.103974  0.093602  -0.311153  -0.517253  0.058961  2.353108  0.086
O  O282  1  0.73819515  0.87147536  0.24807728  1  -1.10407  0.093619  -0.311126  -0.517263  0.058973  2.352877  0.086
O  O283  1  0.87144559  0.14231216  0.24805260  1  -1.103932  0.093662  -0.311432  -0.517455  0.05902  2.349976  0.086
O  O284  1  0.14231786  0.73813060  0.24807418  1  -1.10585  0.093668  -0.311914  -0.518056  0.058929  2.351812  0.086
O  O285  1  0.76186822  0.35768313  0.25192685  1  -1.105913  0.093652  -0.311872  -0.517966  0.058918  2.352185  0.086
O  O286  1  0.35768854  0.62855426  0.25194738  1  -1.104032  0.09365  -0.311426  -0.51745  0.059012  2.350202  0.086
O  O287  1  0.62852537  0.76180638  0.25192321  1  -1.104083  0.09361  -0.311056  -0.517146  0.058967  2.353164  0.086
O  O288  1  0.27800772  0.15021603  0.82638773  1  -1.106869  0.096714  -0.312155  -0.517791  0.061163  2.353659  0.088
O  O289  1  0.15025864  0.74532747  0.82641967  1  -1.111859  0.096703  -0.310928  -0.516756  0.061166  2.353947  0.088
O  O290  1  0.74534129  0.27800262  0.82641070  1  -1.103673  0.096723  -0.311392  -0.517251  0.061196  2.35318  0.088
O  O291  1  0.22199900  0.75465800  0.67358954  1  -1.103507  0.096739  -0.311371  -0.517283  0.061206  2.353005  0.088
O  O292  1  0.75467246  0.34974216  0.67358139  1  -1.111686  0.096724  -0.310959  -0.516897  0.061178  2.353687  0.088
O  O293  1  0.34978476  0.22199074  0.67361017  1  -1.106827  0.096725  -0.312173  -0.517853  0.06117  2.35353  0.088
O  O294  1  0.72199379  0.84978225  0.17361226  1  -1.106951  0.096709  -0.312187  -0.517848  0.06116  2.353702  0.088
O  O295  1  0.84974222  0.25467167  0.17358141  1  -1.111772  0.096707  -0.310919  -0.51679  0.061168  2.353963  0.088
O  O296  1  0.25466087  0.72199596  0.17358907  1  -1.103704  0.096728  -0.311449  -0.517328  0.0612  2.35318  0.088
O  O297  1  0.77800316  0.24533941  0.32641201  1  -1.103603  0.096745  -0.311427  -0.517321  0.06121  2.353023  0.088
O  O298  1  0.24532905  0.65025787  0.32641818  1  -1.111653  0.096719  -0.310972  -0.5169  0.061175  2.353751  0.088
O  O299  1  0.65021869  0.77800670  0.32638843  1  -1.106935  0.096717  -0.312164  -0.517809  0.061165  2.353649  0.088
O  O300  1  0.27874046  0.86404962  0.75043908  1  -1.105596  0.099519  -0.31399  -0.520879  0.062764  2.384801  0.091
O  O301  1  0.86411406  0.10677368  0.75050411  1  -1.11022  0.099542  -0.314481  -0.521488  0.062815  2.385096  0.091
O  O302  1  0.10674380  0.27871578  0.75044390  1  -1.100775  0.099521  -0.31424  -0.521047  0.062787  2.385132  0.091
O  O303  1  0.22128208  0.39325674  0.74955355  1  -1.100998  0.099512  -0.314132  -0.520919  0.062781  2.385221  0.091
O  O304  1  0.39322425  0.63588668  0.74949505  1  -1.110276  0.099539  -0.314488  -0.521468  0.062814  2.385286  0.091
O  O305  1  0.63594954  0.22125986  0.74956076  1  -1.105768  0.099508  -0.313938  -0.52084  0.062758  2.385034  0.09
O  O306  1  0.72126105  0.13594924  0.24956115  1  -1.10579  0.099505  -0.313922  -0.520813  0.062757  2.384937  0.09
O  O307  1  0.13588746  0.89322518  0.24949536  1  -1.110182  0.099541  -0.314471  -0.521482  0.062815  2.385181  0.091
O  O308  1  0.89325836  0.72128164  0.24955538  1  -1.101217  0.099528  -0.314197  -0.521022  0.06279  2.385196  0.091
O  O309  1  0.77872007  0.60674184  0.25044508  1  -1.100986  0.09952  -0.31418  -0.520987  0.062785  2.385206  0.091
O  O310  1  0.60677597  0.36411216  0.25050587  1  -1.110228  0.099535  -0.314457  -0.52136  0.062811  2.385367  0.091
O  O311  1  0.36405068  0.77874072  0.25043861  1  -1.105775  0.099504  -0.313981  -0.520837  0.062755  2.385028  0.09
O  O312  1  0.30409267  0.74945419  0.82344265  1  -1.109829  0.092033  -0.311707  -0.519583  0.058085  2.320463  0.084
O  O313  1  0.74950800  0.12296219  0.82350199  1  -1.108776  0.09205  -0.311088  -0.518722  0.058132  2.320972  0.084
O  O314  1  0.12299235  0.30399784  0.82346508  1  -1.105673  0.092053  -0.310366  -0.517214  0.058105  2.322002  0.084
O  O315  1  0.19600075  0.37700783  0.67653191  1  -1.10571  0.092067  -0.310387  -0.517249  0.058114  2.321821  0.084
O  O316  1  0.37703721  0.75049464  0.67649755  1  -1.108652  0.092063  -0.311073  -0.518663  0.058143  2.320812  0.084
O  O317  1  0.75054521  0.19590837  0.67655729  1  -1.10971  0.092049  -0.311794  -0.519772  0.058095  2.320162  0.084
O  O318  1  0.69590820  0.25054437  0.17655818  1  -1.109806  0.092042  -0.311804  -0.519705  0.05809  2.32041  0.084
O  O319  1  0.25049352  0.87703726  0.17649734  1  -1.108646  0.092049  -0.311064  -0.518674  0.058134  2.320897  0.084
O  O320  1  0.87701175  0.69599991  0.17653328  1  -1.105715  0.092044  -0.310349  -0.517175  0.058099  2.322014  0.084
O  O321  1  0.80400076  0.62298986  0.32346747  1  -1.105709  0.092056  -0.310393  -0.517265  0.058107  2.3219  0.084
O  O322  1  0.62296366  0.24950450  0.32350353  1  -1.108639  0.092064  -0.311022  -0.518579  0.058143  2.320845  0.084
O  O323  1  0.24945501  0.80409279  0.32344194  1  -1.109628  0.092055  -0.311806  -0.519789  0.058098  2.320244  0.084
