# generated using pymatgen
data_CdH12(C2N)10
_symmetry_space_group_name_H-M   'P 1'
_cell_length_a   7.79757029
_cell_length_b   9.71191361
_cell_length_c   14.55555747
_cell_angle_alpha   101.10807096
_cell_angle_beta   90.04164611
_cell_angle_gamma   113.65257300
_symmetry_Int_Tables_number   1
_chemical_formula_structural   CdH12(C2N)10
_chemical_formula_sum   'Cd2 H24 C40 N20'
_cell_volume   987.02989752
_cell_formula_units_Z   2
loop_
 _symmetry_equiv_pos_site_id
 _symmetry_equiv_pos_as_xyz
  1  'x, y, z'
loop_
 _atom_site_type_symbol
 _atom_site_label
 _atom_site_symmetry_multiplicity
 _atom_site_fract_x
 _atom_site_fract_y
 _atom_site_fract_z
 _atom_site_occupancy
 _atom_site_hle17_bader_spin_density
 _atom_site_hle17_ddec_charge
 _atom_site_hle17_ddec_spin_density
 _atom_site_hle17_ddec_sum_bond_order
 _atom_site_hle17_magmom
 _atom_site_hse06_10hf_bader_spin_density
 _atom_site_hse06_10hf_ddec_charge
 _atom_site_hse06_10hf_ddec_spin_density
 _atom_site_hse06_10hf_ddec_sum_bond_order
 _atom_site_hse06_10hf_magmom
 _atom_site_hse06_bader_spin_density
 _atom_site_hse06_ddec_charge
 _atom_site_hse06_ddec_spin_density
 _atom_site_hse06_ddec_sum_bond_order
 _atom_site_hse06_magmom
 _atom_site_pbe_bader_spin_density
 _atom_site_pbe_cm5_charge
 _atom_site_pbe_ddec_charge
 _atom_site_pbe_ddec_spin_density
 _atom_site_pbe_ddec_sum_bond_order
 _atom_site_pbe_magmom
Cd  Cd0  1  0.88650333  0.99994265  0.74996527  1  0  1.161943  0  1.88468  0  0  0.970387  0  2.378501  0  0  1.019534  0  2.329057  0  0  0.841747  0.936172  0  2.411561  0
Cd  Cd1  1  0.11349420  0.00005568  0.25003570  1  0  1.161866  0  1.884778  0  0  0.970307  0  2.37859  0  0  1.019452  0  2.329152  0  0  0.841738  0.936093  0  2.411652  0
H  H2  1  0.81207075  0.87671763  0.93489288  1  0  0.084705  0  0.951835  0  0  0.092727  0  1.017031  0  0  0.094799  0  1.015502  0  0  0.115731  0.090971  0  1.018704  0
H  H3  1  0.93505337  0.12321114  0.56499660  1  0  0.085951  0  0.950578  0  0  0.093907  0  1.015678  0  0  0.096003  0  1.014128  0  0  0.116169  0.092064  0  1.017496  0
H  H4  1  0.18791793  0.12327839  0.06510642  1  0  0.084763  0  0.951847  0  0  0.092765  0  1.017047  0  0  0.094835  0  1.01552  0  0  0.115754  0.091008  0  1.018719  0
H  H5  1  0.06494576  0.87679295  0.43500716  1  0  0.085942  0  0.950551  0  0  0.093892  0  1.015665  0  0  0.096013  0  1.014087  0  0  0.116156  0.092042  0  1.01749  0
H  H6  1  0.66886233  0.64067104  0.00433760  1  0  0.084134  0  0.95688  0  0  0.087233  0  1.028641  0  0  0.089969  0  1.027047  0  0  0.113617  0.085263  0  1.029772  0
H  H7  1  0.02834324  0.35921518  0.49547910  1  0  0.083702  0  0.95696  0  0  0.086852  0  1.028535  0  0  0.089611  0  1.026883  0  0  0.113422  0.084843  0  1.029794  0
H  H8  1  0.33112192  0.35932383  0.99566087  1  0  0.084066  0  0.95696  0  0  0.087178  0  1.028735  0  0  0.089912  0  1.027147  0  0  0.11361  0.085208  0  1.029865  0
H  H9  1  0.97165244  0.64078200  0.50452241  1  0  0.083661  0  0.957029  0  0  0.086801  0  1.028598  0  0  0.08956  0  1.026946  0  0  0.113409  0.084792  0  1.029855  0
H  H10  1  0.48014417  0.22893580  0.75255404  1  0  0.099934  0  0.960399  0  0  0.110665  0  1.022055  0  0  0.112391  0  1.022086  0  0  0.102166  0.109286  0  1.02229  0
H  H11  1  0.25128261  0.77098019  0.74712533  1  0  0.100319  0  0.960973  0  0  0.111052  0  1.022703  0  0  0.112755  0  1.022778  0  0  0.102303  0.109672  0  1.022943  0
H  H12  1  0.51985392  0.77106365  0.24744226  1  0  0.099976  0  0.960365  0  0  0.110733  0  1.021989  0  0  0.11246  0  1.022018  0  0  0.102214  0.109352  0  1.022224  0
H  H13  1  0.74872819  0.22902159  0.25287745  1  0  0.100346  0  0.960881  0  0  0.111033  0  1.022681  0  0  0.112736  0  1.022755  0  0  0.102274  0.10965  0  1.022921  0
H  H14  1  0.48688102  0.20170209  0.57848655  1  0  0.088071  0  0.986832  0  0  0.096426  0  1.052006  0  0  0.098371  0  1.052454  0  0  0.098403  0.095286  0  1.051299  0
H  H15  1  0.28438998  0.79833638  0.92132247  1  0  0.087743  0  0.987505  0  0  0.096416  0  1.05225  0  0  0.098322  0  1.052702  0  0  0.098462  0.095329  0  1.051515  0
H  H16  1  0.51311791  0.79829392  0.42151000  1  0  0.088031  0  0.986741  0  0  0.096429  0  1.051876  0  0  0.098359  0  1.052338  0  0  0.098405  0.09529  0  1.051169  0
H  H17  1  0.71561299  0.20166769  0.07867854  1  0  0.087756  0  0.987535  0  0  0.096452  0  1.052253  0  0  0.098359  0  1.052705  0  0  0.098464  0.095385  0  1.051493  0
H  H18  1  0.61900936  0.43277077  0.50921964  1  0  0.093904  0  0.957454  0  0  0.103039  0  1.020285  0  0  0.105453  0  1.020078  0  0  0.101603  0.101217  0  1.020582  0
H  H19  1  0.18481955  0.56726831  0.99063005  1  0  0.093686  0  0.957279  0  0  0.103166  0  1.019766  0  0  0.10549  0  1.019649  0  0  0.101582  0.101428  0  1.019983  0
H  H20  1  0.38099085  0.56722523  0.49077554  1  0  0.093944  0  0.957454  0  0  0.103094  0  1.020253  0  0  0.1055  0  1.020056  0  0  0.101624  0.101272  0  1.020554  0
H  H21  1  0.81518356  0.43273347  0.00937136  1  0  0.093752  0  0.957237  0  0  0.103241  0  1.019688  0  0  0.105566  0  1.019571  0  0  0.101596  0.101501  0  1.019907  0
H  H22  1  0.74319185  0.69514820  0.61215094  1  0  0.109146  0  0.977066  0  0  0.118826  0  1.041974  0  0  0.121631  0  1.040318  0  0  0.104241  0.117091  0  1.042539  0
H  H23  1  0.04695991  0.30486301  0.88771045  1  0  0.109168  0  0.976135  0  0  0.118316  0  1.041649  0  0  0.121136  0  1.039972  0  0  0.104214  0.11663  0  1.042205  0
H  H24  1  0.25680367  0.30485125  0.38784467  1  0  0.10922  0  0.977049  0  0  0.118895  0  1.041957  0  0  0.121734  0  1.040257  0  0  0.104289  0.117161  0  1.042523  0
H  H25  1  0.95304831  0.69513875  0.11228889  1  0  0.109195  0  0.976085  0  0  0.118334  0  1.041597  0  0  0.12115  0  1.039926  0  0  0.104233  0.116649  0  1.042153  0
C  C26  1  0.75304802  0.76223772  0.88966873  1  0  0.095771  0  3.687595  0  0  0.064632  0  3.938432  0  0  0.070271  0  3.955228  0  0  0.056739  0.060874  0  3.92712  0
C  C27  1  0.99049569  0.23773250  0.61019647  1  0  0.093039  0  3.689638  0  0  0.061948  0  3.940399  0  0  0.06756  0  3.957206  0  0  0.055797  0.058301  0  3.928976  0
C  C28  1  0.24694264  0.23775714  0.11032768  1  0  0.09556  0  3.687821  0  0  0.064517  0  3.938598  0  0  0.070156  0  3.955396  0  0  0.056711  0.060762  0  3.927281  0
C  C29  1  0.00950371  0.76226700  0.38980740  1  0  0.093088  0  3.689507  0  0  0.061976  0  3.940291  0  0  0.067566  0  3.957095  0  0  0.055754  0.058335  0  3.92887  0
C  C30  1  0.67462983  0.62926721  0.92840920  1  0  0.080683  0  3.694933  0  0  0.060169  0  3.95473  0  0  0.062464  0  3.969562  0  0  0.05818  0.058477  0  3.944885  0
C  C31  1  0.04530654  0.37069288  0.57143569  1  0  0.081336  0  3.69546  0  0  0.060959  0  3.955375  0  0  0.06328  0  3.97014  0  0  0.058394  0.059298  0  3.945376  0
C  C32  1  0.32535770  0.37072651  0.07158843  1  0  0.080846  0  3.69487  0  0  0.060266  0  3.954695  0  0  0.062559  0  3.969531  0  0  0.058179  0.058573  0  3.944848  0
C  C33  1  0.95469656  0.62930890  0.42856641  1  0  0.081287  0  3.695327  0  0  0.060962  0  3.95522  0  0  0.06328  0  3.969993  0  0  0.058355  0.059301  0  3.945221  0
C  C34  1  0.60949939  0.47651036  0.78089590  1  0  0.152515  0  3.777807  0  0  0.158073  0  4.016174  0  0  0.159905  0  4.038395  0  0  0.110786  0.156384  0  4.001819  0
C  C35  1  0.13276768  0.52348959  0.71891366  1  0  0.153321  0  3.779141  0  0  0.159626  0  4.016746  0  0  0.161349  0  4.039034  0  0  0.112018  0.158037  0  4.002351  0
C  C36  1  0.39049684  0.52348795  0.21910094  1  0  0.15259  0  3.777558  0  0  0.158164  0  4.015916  0  0  0.159996  0  4.038134  0  0  0.110778  0.156471  0  4.001563  0
C  C37  1  0.86723984  0.47651333  0.28108720  1  0  0.153245  0  3.779249  0  0  0.159572  0  4.016862  0  0  0.161295  0  4.039149  0  0  0.112008  0.158002  0  4.002439  0
C  C38  1  0.53760787  0.32898544  0.72063702  1  0  -0.122005  0  3.708775  0  0  -0.143206  0  3.956419  0  0  -0.146645  0  3.979161  0  0  -0.086244  -0.141189  0  3.941279  0
C  C39  1  0.20840953  0.67101289  0.77912634  1  0  -0.122149  0  3.709212  0  0  -0.1437  0  3.95692  0  0  -0.147108  0  3.97968  0  0  -0.086173  -0.141691  0  3.941769  0
C  C40  1  0.46238709  0.67101287  0.27936120  1  0  -0.122023  0  3.708661  0  0  -0.143254  0  3.956334  0  0  -0.146694  0  3.97907  0  0  -0.086228  -0.141234  0  3.941194  0
C  C41  1  0.79159998  0.32898888  0.22087369  1  0  -0.122108  0  3.709192  0  0  -0.143642  0  3.956902  0  0  -0.147049  0  3.979661  0  0  -0.086135  -0.141638  0  3.941748  0
C  C42  1  0.54124022  0.31507884  0.62471531  1  0  -0.055663  0  3.752355  0  0  -0.071127  0  4.00118  0  0  -0.074044  0  4.025376  0  0  -0.089216  -0.06884  0  3.984125  0
C  C43  1  0.22547004  0.68500002  0.87507528  1  0  -0.05502  0  3.75284  0  0  -0.070702  0  4.001901  0  0  -0.073554  0  4.026053  0  0  -0.089221  -0.068461  0  3.984825  0
C  C44  1  0.45875730  0.68491947  0.37528222  1  0  -0.055648  0  3.75229  0  0  -0.07115  0  4.001137  0  0  -0.074051  0  4.025331  0  0  -0.089268  -0.068863  0  3.984084  0
C  C45  1  0.77453806  0.31500407  0.12492711  1  0  -0.054999  0  3.752876  0  0  -0.070684  0  4.001903  0  0  -0.073537  0  4.026057  0  0  -0.08919  -0.068455  0  3.984813  0
C  C46  1  0.61606590  0.44722859  0.58525251  1  0  -0.040936  0  3.739698  0  0  -0.055152  0  3.988455  0  0  -0.057346  0  4.011473  0  0  -0.079763  -0.05342  0  3.97255  0
C  C47  1  0.16773473  0.55284596  0.91456485  1  0  -0.041781  0  3.739929  0  0  -0.056351  0  3.988711  0  0  -0.058451  0  4.011667  0  0  -0.080085  -0.054626  0  3.972762  0
C  C48  1  0.38393290  0.55276971  0.41474433  1  0  -0.040959  0  3.739831  0  0  -0.055172  0  3.988597  0  0  -0.057361  0  4.011624  0  0  -0.079782  -0.05344  0  3.972696  0
C  C49  1  0.83227369  0.44716388  0.08543895  1  0  -0.041995  0  3.740016  0  0  -0.056572  0  3.988826  0  0  -0.058675  0  4.011782  0  0  -0.080135  -0.054849  0  3.972885  0
C  C50  1  0.68620125  0.59266671  0.64169679  1  0  -0.140252  0  3.717231  0  0  -0.162868  0  3.967616  0  0  -0.166966  0  3.98901  0  0  -0.08876  -0.159694  0  3.952277  0
C  C51  1  0.09255575  0.40735188  0.85812900  1  0  -0.1395  0  3.7167  0  0  -0.161419  0  3.967261  0  0  -0.165515  0  3.988562  0  0  -0.088072  -0.158232  0  3.951898  0
C  C52  1  0.31379428  0.40733276  0.35830157  1  0  -0.140351  0  3.717371  0  0  -0.162975  0  3.967781  0  0  -0.167099  0  3.989158  0  0  -0.088788  -0.159801  0  3.952445  0
C  C53  1  0.90745478  0.59265449  0.14187230  1  0  -0.139394  0  3.716547  0  0  -0.161287  0  3.967116  0  0  -0.165378  0  3.988419  0  0  -0.088053  -0.158099  0  3.951754  0
C  C54  1  0.68537857  0.61040731  0.74048605  1  0  0.169334  0  3.755567  0  0  0.17089  0  3.985587  0  0  0.174219  0  4.009474  0  0  0.114327  0.168284  0  3.969752  0
C  C55  1  0.07434627  0.38956648  0.75934965  1  0  0.16778  0  3.758134  0  0  0.168584  0  3.988849  0  0  0.172013  0  4.012651  0  0  0.112444  0.165865  0  3.973085  0
C  C56  1  0.31461152  0.38958639  0.25951021  1  0  0.169207  0  3.755668  0  0  0.170748  0  3.985749  0  0  0.174078  0  4.009645  0  0  0.114282  0.168142  0  3.969914  0
C  C57  1  0.92566139  0.61043415  0.24065230  1  0  0.167799  0  3.757972  0  0  0.168567  0  3.98874  0  0  0.171997  0  4.012542  0  0  0.112436  0.165843  0  3.972972  0
C  C58  1  0.27970003  0.07680006  0.88847955  1  0  0.509763  0  3.999665  0  0  0.467497  0  4.288519  0  0  0.494664  0  4.298383  0  0  0.312249  0.449289  0  4.28123  0
C  C59  1  0.20316938  0.92311196  0.61158791  1  0  0.508767  0  3.999426  0  0  0.467329  0  4.287981  0  0  0.49432  0  4.29785  0  0  0.312228  0.448969  0  4.281302  0
C  C60  1  0.72030589  0.92319711  0.11151990  1  0  0.509901  0  3.999652  0  0  0.467582  0  4.288516  0  0  0.494758  0  4.298379  0  0  0.312252  0.449367  0  4.281231  0
C  C61  1  0.79682559  0.07688638  0.38841443  1  0  0.508807  0  3.999437  0  0  0.467393  0  4.287986  0  0  0.494382  0  4.297844  0  0  0.31224  0.449032  0  4.281309  0
C  C62  1  0.57845338  0.08289979  0.88961816  1  0  0.521875  0  3.985241  0  0  0.477185  0  4.277127  0  0  0.50478  0  4.286581  0  0  0.311626  0.458457  0  4.270756  0
C  C63  1  0.49565154  0.91673035  0.61021711  1  0  0.519194  0  3.987295  0  0  0.474975  0  4.27965  0  0  0.502419  0  4.288996  0  0  0.310976  0.456549  0  4.27251  0
C  C64  1  0.42155256  0.91709742  0.11038679  1  0  0.521848  0  3.985434  0  0  0.477116  0  4.277316  0  0  0.504722  0  4.286774  0  0  0.311532  0.458379  0  4.270945  0
C  C65  1  0.50435188  0.08327719  0.38978709  1  0  0.519236  0  3.987085  0  0  0.475043  0  4.279438  0  0  0.502486  0  4.288778  0  0  0.310986  0.456617  0  4.272299  0
N  N66  1  0.75767786  0.75361016  0.79796937  1  0  -0.33248  0  3.208744  0  0  -0.263498  0  3.463793  0  0  -0.280241  0  3.482975  0  0  -0.302072  -0.251861  0  3.450304  0
N  N67  1  0.00346021  0.24635580  0.70191989  1  0  -0.330253  0  3.20811  0  0  -0.261069  0  3.462969  0  0  -0.277813  0  3.48213  0  0  -0.300804  -0.249349  0  3.449337  0
N  N68  1  0.24231523  0.24638700  0.20202733  1  0  -0.332242  0  3.208824  0  0  -0.2633  0  3.463884  0  0  -0.280041  0  3.483064  0  0  -0.301983  -0.251663  0  3.45039  0
N  N69  1  0.99654475  0.75364713  0.29808167  1  0  -0.330286  0  3.208007  0  0  -0.261084  0  3.462894  0  0  -0.27783  0  3.482066  0  0  -0.300735  -0.249363  0  3.449261  0
N  N70  1  0.60474305  0.48873932  0.87576460  1  0  -0.288481  0  3.023859  0  0  -0.262007  0  3.28929  0  0  -0.268381  0  3.303375  0  0  -0.294604  -0.25721  0  3.279682  0
N  N71  1  0.11609951  0.51123777  0.62404483  1  0  -0.288882  0  3.023798  0  0  -0.262579  0  3.288967  0  0  -0.268918  0  3.303058  0  0  -0.294971  -0.257695  0  3.279307  0
N  N72  1  0.39524690  0.51125669  0.12423126  1  0  -0.288563  0  3.02367  0  0  -0.262077  0  3.289126  0  0  -0.26845  0  3.303207  0  0  -0.294656  -0.257275  0  3.279512  0
N  N73  1  0.88390814  0.48876285  0.37595369  1  0  -0.288806  0  3.023663  0  0  -0.262519  0  3.288817  0  0  -0.268856  0  3.302902  0  0  -0.294938  -0.257641  0  3.279152  0
N  N74  1  0.13509694  0.07389312  0.86188169  1  0  -0.616001  0  2.813778  0  0  -0.566659  0  3.100654  0  0  -0.589348  0  3.1035  0  0  -0.390233  -0.550781  0  3.097608  0
N  N75  1  0.06167324  0.92616273  0.63830303  1  0  -0.616111  0  2.812508  0  0  -0.566602  0  3.098442  0  0  -0.589327  0  3.101443  0  0  -0.390451  -0.55143  0  3.096884  0
N  N76  1  0.86490641  0.92610403  0.13811294  1  0  -0.615942  0  2.813781  0  0  -0.566591  0  3.100663  0  0  -0.589275  0  3.103502  0  0  -0.390177  -0.550716  0  3.097623  0
N  N77  1  0.93831443  0.07382869  0.36169500  1  0  -0.616059  0  2.812643  0  0  -0.566544  0  3.098553  0  0  -0.58927  0  3.101558  0  0  -0.390407  -0.551373  0  3.096998  0
N  N78  1  0.42926012  0.08068183  0.92869920  1  0  -0.46075  0  3.324746  0  0  -0.404156  0  3.59263  0  0  -0.429075  0  3.59713  0  0  -0.301356  -0.387436  0  3.589167  0
N  N79  1  0.34858523  0.91913172  0.57123647  1  0  -0.457729  0  3.325348  0  0  -0.402254  0  3.593674  0  0  -0.426903  0  3.598142  0  0  -0.300911  -0.385574  0  3.590063  0
N  N80  1  0.57074112  0.91931881  0.07130275  1  0  -0.46092  0  3.324962  0  0  -0.404228  0  3.592775  0  0  -0.429179  0  3.597307  0  0  -0.301315  -0.387493  0  3.589303  0
N  N81  1  0.65141505  0.08087468  0.42876895  1  0  -0.457852  0  3.325224  0  0  -0.402416  0  3.593574  0  0  -0.427076  0  3.598071  0  0  -0.300995  -0.385737  0  3.589964  0
N  N82  1  0.72200480  0.08552633  0.86261902  1  0  -0.614341  0  2.812271  0  0  -0.564003  0  3.096223  0  0  -0.58681  0  3.099337  0  0  -0.388533  -0.548849  0  3.09445  0
N  N83  1  0.63662972  0.91398320  0.63712637  1  0  -0.61345  0  2.814076  0  0  -0.563556  0  3.098878  0  0  -0.586277  0  3.10187  0  0  -0.387968  -0.547727  0  3.095742  0
N  N84  1  0.27800001  0.91446859  0.13738839  1  0  -0.614345  0  2.812269  0  0  -0.563989  0  3.096218  0  0  -0.586796  0  3.099329  0  0  -0.388535  -0.548837  0  3.094451  0
N  N85  1  0.36337497  0.08602433  0.36287508  1  0  -0.613443  0  2.813921  0  0  -0.563554  0  3.0987  0  0  -0.586279  0  3.101699  0  0  -0.387947  -0.547726  0  3.095564  0
