# generated using pymatgen
data_CuH12C10(ClO3)2
_symmetry_space_group_name_H-M   'P 1'
_cell_length_a   7.69885587
_cell_length_b   9.51708372
_cell_length_c   10.11717603
_cell_angle_alpha   107.14902012
_cell_angle_beta   89.94767987
_cell_angle_gamma   113.90900642
_symmetry_Int_Tables_number   1
_chemical_formula_structural   CuH12C10(ClO3)2
_chemical_formula_sum   'Cu2 H24 C20 Cl4 O12'
_cell_volume   641.55825968
_cell_formula_units_Z   2
loop_
 _symmetry_equiv_pos_site_id
 _symmetry_equiv_pos_as_xyz
  1  'x, y, z'
loop_
 _atom_site_type_symbol
 _atom_site_label
 _atom_site_symmetry_multiplicity
 _atom_site_fract_x
 _atom_site_fract_y
 _atom_site_fract_z
 _atom_site_occupancy
 _atom_site_hle17_ddec_charge
 _atom_site_hle17_ddec_spin_density
 _atom_site_hle17_ddec_sum_bond_order
 _atom_site_hle17_magmom
 _atom_site_hse06_10hf_ddec_charge
 _atom_site_hse06_10hf_ddec_spin_density
 _atom_site_hse06_10hf_ddec_sum_bond_order
 _atom_site_hse06_10hf_magmom
 _atom_site_hse06_ddec_charge
 _atom_site_hse06_ddec_spin_density
 _atom_site_hse06_ddec_sum_bond_order
 _atom_site_hse06_magmom
 _atom_site_pbe_cm5_charge
 _atom_site_pbe_ddec_charge
 _atom_site_pbe_ddec_spin_density
 _atom_site_pbe_ddec_sum_bond_order
 _atom_site_pbe_magmom
Cu  Cu0  1  0.05200103  0.00022675  0.75035135  1  0.965788  0.773099  1.751722  0.576  0.963125  0.863512  2.129615  0.707  1.038938  0.921697  2.077195  0.784  0.743075  0.911201  0.815404  2.171995  0.648
Cu  Cu1  1  0.94797582  0.99976847  0.24965163  1  0.966602  -0.773705  1.751781  -0.577  0.963141  -0.863497  2.129745  -0.707  1.039018  -0.921684  2.077191  -0.784  0.743112  0.911213  -0.815389  2.172109  -0.648
H  H2  1  0.17948790  0.19048228  0.56723555  1  0.369269  -5.1e-05  0.903776  0.0  0.34951  -0.000103  0.973128  0.0  0.359543  -4e-05  0.961223  0.0  0.293294  0.342595  -0.000159  0.981285  0.0
H  H3  1  0.98907538  0.80941889  0.93261568  1  0.36852  -4.8e-05  0.905216  0.0  0.348644  -0.000103  0.974934  0.0  0.358705  -3.9e-05  0.96301  0.0  0.292768  0.341577  -0.000159  0.983194  0.0
H  H4  1  0.82049075  0.80949837  0.43276348  1  0.369211  4.4e-05  0.903799  0.0  0.349457  0.000103  0.973183  0.0  0.359495  4e-05  0.961274  0.0  0.293268  0.342545  0.000159  0.981339  0.0
H  H5  1  0.01092912  0.19058226  0.06737013  1  0.36846  4.2e-05  0.905204  0.0  0.348586  0.000102  0.974903  0.0  0.358644  3.9e-05  0.962991  0.0  0.292729  0.341524  0.000159  0.983155  0.0
H  H6  1  0.09561657  0.39099714  0.80481181  1  0.03503  -8.6e-05  0.93773  0.0  0.051255  -3.7e-05  1.002045  0.0  0.050923  -1.2e-05  1.002502  0.0  0.088619  0.051412  -7.9e-05  1.00208  0.0
H  H7  1  0.70522077  0.60839303  0.69493148  1  0.035841  -7.8e-05  0.936904  0.0  0.052122  -3.6e-05  1.001246  0.0  0.051795  -1.1e-05  1.001693  0.0  0.088779  0.051958  -7.9e-05  1.001633  0.0
H  H8  1  0.90440322  0.60901382  0.19518853  1  0.035118  0.000109  0.93767  0.0  0.051352  3.7e-05  1.001958  0.0  0.051022  1.2e-05  1.002409  0.0  0.088688  0.05151  7.9e-05  1.001986  0.0
H  H9  1  0.29478878  0.39159485  0.30506060  1  0.035782  9.2e-05  0.937055  0.0  0.052104  3.6e-05  1.001309  0.0  0.051777  1.1e-05  1.001756  0.0  0.088766  0.05194  7.8e-05  1.001698  0.0
H  H10  1  0.92452153  0.27058970  0.65221024  1  0.018088  -0.000115  0.969561  0.0  0.028393  -9.2e-05  1.04817  0.0  0.029007  -5.2e-05  1.047197  0.0  0.07495  0.028352  -0.000142  1.048331  0.0
H  H11  1  0.65361858  0.72823231  0.84746530  1  0.018759  -0.000122  0.968225  0.0  0.028808  -9.1e-05  1.047256  0.0  0.029405  -5.1e-05  1.046328  0.0  0.075052  0.028446  -0.000141  1.047775  0.0
H  H12  1  0.07548303  0.72942976  0.34779439  1  0.018199  0.000113  0.969566  0.0  0.028526  9.2e-05  1.048122  0.0  0.029108  5.2e-05  1.04717  0.0  0.074979  0.02848  0.000142  1.048285  0.0
H  H13  1  0.34638227  0.27176151  0.15251456  1  0.018721  0.000117  0.968256  0.0  0.028757  9.1e-05  1.047304  0.0  0.029356  5.1e-05  1.046374  0.0  0.074987  0.028401  0.000141  1.047821  0.0
H  H14  1  0.11189693  0.55741656  0.65079298  1  0.113626  1.2e-05  0.95182  0.0  0.136071  -2e-05  1.010033  0.0  0.137373  -1.8e-05  1.010348  0.0  0.086273  0.135041  -1.7e-05  1.010349  0.0
H  H15  1  0.55526924  0.44184274  0.84910318  1  0.113163  -3.2e-05  0.951384  0.0  0.135618  -1.6e-05  1.009978  0.0  0.13691  -1.6e-05  1.010335  0.0  0.085968  0.134673  -1.6e-05  1.009756  0.0
H  H16  1  0.88814249  0.44258949  0.34919909  1  0.113585  5e-06  0.951657  0.0  0.136015  2e-05  1.009924  0.0  0.137312  1.8e-05  1.010244  0.0  0.086248  0.134987  1.7e-05  1.010234  0.0
H  H17  1  0.44475970  0.55816833  0.15091102  1  0.113209  8e-06  0.951186  0.0  0.135634  1.6e-05  1.009846  0.0  0.136929  1.6e-05  1.010201  0.0  0.085951  0.134686  1.6e-05  1.009622  0.0
H  H18  1  0.14429123  0.41319725  0.50792568  1  0.107169  2.4e-05  0.959697  0.0  0.127127  1.1e-05  1.02249  0.0  0.128462  1.6e-05  1.022613  0.0  0.085108  0.125964  8e-06  1.023166  0.0
H  H19  1  0.73183529  0.58633837  0.99182326  1  0.107087  2.1e-05  0.958954  0.0  0.127208  1.6e-05  1.021545  0.0  0.128561  1.7e-05  1.021651  0.0  0.084944  0.125626  8e-06  1.022596  0.0
H  H20  1  0.85573443  0.58679428  0.49206837  1  0.107089  -2e-05  0.959814  0.0  0.127109  -1.1e-05  1.022529  0.0  0.128442  -1.5e-05  1.022653  0.0  0.085106  0.125943  -8e-06  1.023205  0.0
H  H21  1  0.26819354  0.41369323  0.00818367  1  0.107132  -2.9e-05  0.959198  0.0  0.127269  -1.6e-05  1.02173  0.0  0.128622  -1.7e-05  1.021836  0.0  0.08498  0.125692  -8e-06  1.022782  0.0
H  H22  1  0.32723968  0.52928686  0.65398808  1  0.095194  2.5e-05  0.966606  0.0  0.114632  -1e-06  1.033634  0.0  0.115717  1e-06  1.03419  0.0  0.078048  0.114211  -3e-06  1.032649  0.0
H  H23  1  0.79898834  0.47056396  0.84564957  1  0.095166  3e-06  0.967704  0.0  0.114794  -2e-06  1.034477  0.0  0.115794  -0.0  1.035158  0.0  0.078322  0.114078  -3e-06  1.033766  0.0
H  H24  1  0.67278754  0.47069741  0.34600697  1  0.095248  -1.3e-05  0.966527  0.0  0.114713  0.0  1.033522  0.0  0.115799  -1e-06  1.034073  0.0  0.078105  0.114292  3e-06  1.032537  0.0
H  H25  1  0.20104284  0.52945678  0.15436232  1  0.095222  -1.4e-05  0.967678  0.0  0.114901  2e-06  1.034392  0.0  0.115902  0.0  1.035075  0.0  0.078344  0.114183  3e-06  1.03368  0.0
C  C26  1  0.42366402  0.06132416  0.82339368  1  0.276695  -0.001399  3.838122  -0.003  0.253157  0.00142  4.122438  0.0  0.278263  0.000477  4.127492  0.0  0.113755  0.234397  0.001843  4.12079  0.0
C  C27  1  0.36277860  0.93951188  0.67728040  1  0.277552  -0.001357  3.83698  -0.003  0.252571  0.001442  4.122982  0.0  0.277552  0.000495  4.128368  0.0  0.113758  0.234106  0.001829  4.122107  0.0
C  C28  1  0.57630914  0.93868445  0.17661888  1  0.276733  0.001409  3.837707  0.003  0.253125  -0.001418  4.122066  0.0  0.278244  -0.000474  4.127101  0.0  0.113782  0.234372  -0.001838  4.120423  0.0
C  C29  1  0.63720922  0.06048450  0.32271598  1  0.277697  0.001367  3.837165  0.003  0.252689  -0.001442  4.123175  0.0  0.277658  -0.000493  4.128573  0.0  0.113675  0.234225  -0.001825  4.122306  0.0
C  C30  1  0.61096603  0.12036940  0.89010301  1  -0.1405  0.011619  3.818824  0.011  -0.149316  0.002792  4.114611  0.003  -0.165853  0.001813  4.137683  0.002  -0.03355  -0.13773  0.00375  4.099018  0.004
C  C31  1  0.49094923  0.88035452  0.61053751  1  -0.141035  0.010584  3.819538  0.01  -0.149162  0.002778  4.114598  0.003  -0.165813  0.001822  4.137865  0.002  -0.033165  -0.137721  0.003772  4.100075  0.004
C  C32  1  0.38901248  0.87963435  0.10990624  1  -0.141014  -0.011316  3.81935  -0.011  -0.149292  -0.002788  4.114711  -0.003  -0.165815  -0.001812  4.137767  -0.002  -0.033542  -0.137734  -0.003748  4.099138  -0.004
C  C33  1  0.50902961  0.11963952  0.38946910  1  -0.141553  -0.010293  3.820025  -0.01  -0.149343  -0.002774  4.114914  -0.003  -0.165994  -0.001819  4.138198  -0.002  -0.033241  -0.137889  -0.003772  4.100378  -0.004
C  C34  1  0.73784093  0.06082627  0.82318256  1  0.282507  -0.001196  3.810969  -0.003  0.255214  0.001314  4.096431  0.0  0.278716  0.000507  4.103944  0.0  0.114112  0.238719  0.001618  4.090805  0.001
C  C35  1  0.67737573  0.93983059  0.67738404  1  0.283716  -0.001321  3.81039  -0.003  0.257468  0.001304  4.094406  0.0  0.281098  0.000479  4.1017  0.0  0.114051  0.24022  0.001627  4.089656  0.001
C  C36  1  0.26214909  0.93916413  0.17682306  1  0.282692  0.001261  3.810733  0.003  0.255379  -0.001313  4.096191  0.0  0.278865  -0.000503  4.103746  0.0  0.114104  0.238889  -0.001615  4.090568  -0.001
C  C37  1  0.32261516  0.06017194  0.32262290  1  0.283616  0.001314  3.810405  0.003  0.257361  -0.001306  4.094401  0.0  0.280994  -0.000482  4.101698  0.0  0.113943  0.240102  -0.001626  4.08967  -0.001
C  C38  1  0.07921625  0.33743247  0.69082802  1  0.201184  -0.000292  3.652881  0.0  0.152389  -0.0002  3.923364  0.0  0.160524  -0.000128  3.929333  0.0  -0.088763  0.146909  -0.000302  3.918639  0.0
C  C39  1  0.74205054  0.66197932  0.80890816  1  0.200324  -0.000337  3.651657  0.0  0.151145  -0.000217  3.922937  0.0  0.159342  -0.000137  3.928873  0.0  -0.089124  0.14563  -0.000301  3.918844  0.0
C  C40  1  0.92079098  0.66256637  0.30917199  1  0.200855  0.000263  3.653042  0.0  0.151985  0.000201  3.923676  0.0  0.160146  0.000129  3.929647  0.0  -0.088907  0.146509  0.000303  3.918945  0.0
C  C41  1  0.25795856  0.33802064  0.19108029  1  0.20032  0.000325  3.651761  0.0  0.151186  0.000217  3.922916  0.0  0.159386  0.000137  3.928856  0.0  -0.089095  0.145664  0.000302  3.918827  0.0
C  C42  1  0.17135249  0.46686264  0.62215063  1  -0.35295  -4.2e-05  3.725562  0.0  -0.427216  -1e-06  3.967963  0.0  -0.430432  7e-06  3.977354  0.0  -0.263701  -0.42472  -2.1e-05  3.961569  0.0
C  C43  1  0.70526716  0.53266949  0.87759918  1  -0.351865  5.8e-05  3.723941  0.0  -0.425781  -7e-06  3.96577  0.0  -0.429005  2e-06  3.97522  0.0  -0.263487  -0.42333  -2e-05  3.959698  0.0
C  C44  1  0.82866919  0.53313132  0.37784508  1  -0.35285  -1.3e-05  3.725363  0.0  -0.427159  2e-06  3.967759  0.0  -0.430369  -8e-06  3.977133  0.0  -0.263719  -0.424672  2.1e-05  3.961384  0.0
C  C45  1  0.29475958  0.46734757  0.12240676  1  -0.351982  -1e-06  3.724074  0.0  -0.425981  6e-06  3.965938  0.0  -0.429212  -2e-06  3.97539  0.0  -0.263529  -0.423536  2e-05  3.959873  0.0
Cl  Cl46  1  0.68100856  0.25890440  0.05498344  1  0.011415  0.004195  1.486165  0.004  0.028665  0.001219  1.744776  0.001  0.025911  0.000738  1.743494  0.001  0.054962  0.030904  0.00188  1.745978  0.002
Cl  Cl47  1  0.42227587  0.74154956  0.44575786  1  0.011209  0.003905  1.485232  0.004  0.028842  0.001202  1.743539  0.001  0.026114  0.000731  1.742316  0.001  0.054549  0.030818  0.001881  1.745261  0.002
Cl  Cl48  1  0.31897841  0.74107990  0.94501756  1  0.011223  -0.004065  1.485908  -0.004  0.028623  -0.001221  1.744369  -0.001  0.025874  -0.000739  1.743079  -0.001  0.05494  0.030863  -0.001882  1.745582  -0.002
Cl  Cl49  1  0.57769635  0.25844679  0.55423556  1  0.011078  -0.003757  1.485445  -0.004  0.028915  -0.001202  1.743697  -0.001  0.026186  -0.00073  1.742482  -0.001  0.054609  0.030889  -0.00188  1.745415  -0.002
O  O50  1  0.29503679  0.10239295  0.87810266  1  -0.425292  0.072405  2.072703  0.098  -0.402141  0.04634  2.338454  0.068  -0.43519  0.034286  2.334301  0.053  -0.271317  -0.378791  0.056324  2.342025  0.08
O  O51  1  0.19314683  0.89853583  0.62258288  1  -0.424273  0.072961  2.07047  0.099  -0.401547  0.046707  2.337572  0.069  -0.434878  0.034608  2.333639  0.053  -0.271167  -0.378597  0.05648  2.34192  0.08
O  O52  1  0.70495020  0.89760956  0.12190330  1  -0.425246  -0.07241  2.071929  -0.098  -0.402134  -0.046355  2.337769  -0.068  -0.435204  -0.034301  2.3336  -0.053  -0.271348  -0.378794  -0.056341  2.34134  -0.08
O  O53  1  0.80683278  0.10147270  0.37741779  1  -0.424353  -0.072903  2.070663  -0.099  -0.401547  -0.046698  2.337725  -0.069  -0.434877  -0.034603  2.333783  -0.053  -0.271064  -0.37861  -0.056468  2.342082  -0.08
O  O54  1  0.90903957  0.10198966  0.87762306  1  -0.46811  0.063844  2.127605  0.086  -0.435437  0.042379  2.39163  0.062  -0.469423  0.031961  2.38605  0.049  -0.277367  -0.411743  0.050491  2.395468  0.071
O  O55  1  0.80731408  0.89845437  0.62295676  1  -0.469258  0.062352  2.126526  0.084  -0.436215  0.041908  2.389675  0.062  -0.46997  0.031612  2.383906  0.049  -0.277431  -0.412678  0.050444  2.393696  0.071
O  O56  1  0.09092592  0.89799585  0.12237828  1  -0.468153  -0.063849  2.1271  -0.087  -0.435606  -0.042395  2.391294  -0.062  -0.469622  -0.031969  2.385725  -0.049  -0.277388  -0.411899  -0.050512  2.395119  -0.071
O  O57  1  0.19265895  0.10153839  0.37704259  1  -0.469326  -0.062342  2.126552  -0.085  -0.436205  -0.041912  2.389662  -0.062  -0.469958  -0.031617  2.383853  -0.049  -0.277364  -0.412667  -0.050444  2.393696  -0.071
O  O58  1  0.16764072  0.22622376  0.66719440  1  -0.607172  -0.002174  2.133178  -0.002  -0.56533  -0.001634  2.381939  -0.001  -0.584408  -0.001483  2.368778  -0.001  -0.42584  -0.551163  -0.001919  2.391073  -0.002
O  O59  1  0.94157564  0.77390755  0.83269242  1  -0.606631  -0.002359  2.134788  -0.002  -0.56456  -0.001677  2.383806  -0.001  -0.583625  -0.001503  2.370565  -0.001  -0.425432  -0.550292  -0.001904  2.392583  -0.002
O  O60  1  0.83234702  0.77375688  0.33280264  1  -0.607051  0.002195  2.13329  0.002  -0.565157  0.001635  2.381914  0.001  -0.584248  0.001483  2.36874  0.001  -0.425787  -0.55099  0.001918  2.391039  0.002
O  O61  1  0.05842811  0.22609728  0.16729933  1  -0.606481  0.002377  2.134599  0.002  -0.564458  0.001678  2.383635  0.001  -0.583535  0.001504  2.370394  0.001  -0.425375  -0.550188  0.001905  2.392409  0.002
