# generated using pymatgen
data_CuH16C20(N7O3)2
_symmetry_space_group_name_H-M   'P 1'
_cell_length_a   7.30754249
_cell_length_b   8.72813179
_cell_length_c   9.58130534
_cell_angle_alpha   81.72798136
_cell_angle_beta   75.60712700
_cell_angle_gamma   81.98957679
_symmetry_Int_Tables_number   1
_chemical_formula_structural   CuH16C20(N7O3)2
_chemical_formula_sum   'Cu1 H16 C20 N14 O6'
_cell_volume   582.33783664
_cell_formula_units_Z   1
loop_
 _symmetry_equiv_pos_site_id
 _symmetry_equiv_pos_as_xyz
  1  'x, y, z'
loop_
 _atom_site_type_symbol
 _atom_site_label
 _atom_site_symmetry_multiplicity
 _atom_site_fract_x
 _atom_site_fract_y
 _atom_site_fract_z
 _atom_site_occupancy
 _atom_site_hle17_ddec_charge
 _atom_site_hle17_ddec_spin_density
 _atom_site_hle17_ddec_sum_bond_order
 _atom_site_hle17_magmom
 _atom_site_hse06_10hf_ddec_charge
 _atom_site_hse06_10hf_ddec_spin_density
 _atom_site_hse06_10hf_ddec_sum_bond_order
 _atom_site_hse06_10hf_magmom
 _atom_site_hse06_ddec_charge
 _atom_site_hse06_ddec_spin_density
 _atom_site_hse06_ddec_sum_bond_order
 _atom_site_hse06_magmom
 _atom_site_pbe_cm5_charge
 _atom_site_pbe_ddec_charge
 _atom_site_pbe_ddec_spin_density
 _atom_site_pbe_ddec_sum_bond_order
 _atom_site_pbe_magmom
Cu  Cu0  1  0.00000008  0.50000044  0.00000138  1  0.827667  -0.706073  1.891085  -0.538  0.792731  -0.782671  2.271986  -0.638  0.8694  -0.839337  2.217555  -0.712  0.795272  0.744392  -0.741928  2.309567  -0.589
H  H1  1  0.58902407  0.38723273  0.13684850  1  0.111354  6e-05  0.935588  0.0  0.11736  -5.5e-05  0.996906  0.0  0.120159  -3.5e-05  0.993275  0.0  0.137812  0.11525  -7.1e-05  0.999464  0.0
H  H2  1  0.41097893  0.61276591  0.86315075  1  0.111363  6.2e-05  0.935594  0.0  0.117362  -5.5e-05  0.99691  0.0  0.120158  -3.5e-05  0.993283  0.0  0.137816  0.115255  -7.1e-05  0.999468  0.0
H  H3  1  0.79828361  0.80100524  0.17800352  1  0.12652  0.000126  0.966067  0.0  0.125879  -5.8e-05  1.041828  0.0  0.129922  -4.2e-05  1.036564  0.0  0.142325  0.122643  -4.4e-05  1.045865  0.0
H  H4  1  0.20170417  0.19900154  0.82199554  1  0.126537  0.000125  0.966116  0.0  0.125892  -5.8e-05  1.041872  0.0  0.129932  -4.2e-05  1.036612  0.0  0.14235  0.12265  -4.4e-05  1.045936  0.0
H  H5  1  0.42633624  0.65831885  0.56231694  1  0.105174  6.1e-05  0.966569  0.0  0.110691  1.9e-05  1.0368  0.0  0.113836  1.8e-05  1.035098  0.0  0.103373  0.108387  5e-06  1.03809  0.0
H  H6  1  0.57365905  0.34167396  0.43768353  1  0.105102  5.9e-05  0.966552  0.0  0.110617  1.9e-05  1.036805  0.0  0.113762  1.9e-05  1.035103  0.0  0.103359  0.108314  5e-06  1.038094  0.0
H  H7  1  0.22908094  0.85293762  0.72392438  1  0.105474  -2.3e-05  0.961212  0.0  0.11134  -2.2e-05  1.027606  0.0  0.11391  -2.1e-05  1.026337  0.0  0.102813  0.109703  -2.2e-05  1.028057  0.0
H  H8  1  0.77092085  0.14705985  0.27607943  1  0.105514  -2.6e-05  0.96123  0.0  0.11138  -2.2e-05  1.027612  0.0  0.11395  -2.1e-05  1.026342  0.0  0.102838  0.109739  -2.2e-05  1.028066  0.0
H  H9  1  0.10929441  0.11115331  0.61413299  1  0.119915  -3.9e-05  0.966288  0.0  0.125662  -6.7e-05  1.035906  0.0  0.129197  -4.4e-05  1.032756  0.0  0.109715  0.123048  -8.4e-05  1.038293  0.0
H  H10  1  0.89070452  0.88884416  0.38586825  1  0.119919  -3.2e-05  0.966256  0.0  0.125655  -6.7e-05  1.035893  0.0  0.129189  -4.3e-05  1.032744  0.0  0.109729  0.123042  -8.4e-05  1.038263  0.0
H  H11  1  0.40327146  0.98939672  0.18725817  1  0.139866  -1.7e-05  0.973753  0.0  0.143256  -8e-06  1.04571  0.0  0.146771  -6e-06  1.042516  0.0  0.115623  0.140868  -8e-06  1.04763  0.0
H  H12  1  0.59672987  0.01060424  0.81274527  1  0.13986  -1.4e-05  0.973812  0.0  0.143238  -7e-06  1.045763  0.0  0.146754  -6e-06  1.042568  0.0  0.115606  0.140851  -8e-06  1.04768  0.0
H  H13  1  0.19105439  0.16709045  0.11504724  1  0.122361  0.000144  0.949264  0.0  0.121396  -1.4e-05  1.027238  0.0  0.125041  -2e-06  1.021338  0.0  0.145193  0.118348  1.4e-05  1.031898  0.0
H  H14  1  0.80895132  0.83290936  0.88495446  1  0.122324  0.000144  0.949281  0.0  0.121335  -1.4e-05  1.027308  0.0  0.124977  -2e-06  1.021416  0.0  0.145184  0.118291  1.4e-05  1.031967  0.0
H  H15  1  0.99882421  0.56218758  0.34190303  1  0.102496  0.000169  0.936054  0.0  0.105081  -3.9e-05  1.007188  0.0  0.10764  2e-06  1.003188  0.0  0.136472  0.102902  -1.2e-05  1.010543  0.0
H  H16  1  0.00117457  0.43781106  0.65809808  1  0.10252  0.000167  0.936043  0.0  0.105099  -3.9e-05  1.007175  0.0  0.10766  2e-06  1.003175  0.0  0.136473  0.102923  -1.2e-05  1.010527  0.0
C  C17  1  0.59479873  0.49938647  0.17101718  1  0.198508  0.005556  3.673896  0.003  0.151916  0.00156  3.964334  0.0  0.16438  0.002382  3.976696  0.001  0.147749  0.143959  0.001014  3.955512  0.0
C  C18  1  0.40520003  0.50061216  0.82898186  1  0.198417  0.005542  3.673971  0.002  0.151828  0.001559  3.964405  0.0  0.164294  0.002383  3.976765  0.001  0.147691  0.14387  0.001014  3.955589  0.0
C  C19  1  0.70635121  0.70928461  0.18917093  1  0.186314  0.006263  3.56638  0.003  0.112074  0.001532  3.83217  0.0  0.128163  0.002741  3.841809  0.001  0.170975  0.101762  0.000653  3.8264  -0.001
C  C20  1  0.29364441  0.29071635  0.81082840  1  0.186257  0.006263  3.566449  0.003  0.112018  0.00153  3.832239  0.0  0.128109  0.002742  3.841879  0.001  0.170953  0.1017  0.000653  3.82646  -0.001
C  C21  1  0.42063012  0.81507609  0.36787134  1  0.172673  -0.00119  3.781747  -0.001  0.154668  -0.00047  4.031396  -0.001  0.157592  -0.000366  4.054912  -0.001  0.095663  0.152885  -0.000584  4.015334  -0.001
C  C22  1  0.57936329  0.18492021  0.63212904  1  0.172541  -0.001165  3.781771  -0.001  0.154526  -0.000474  4.031421  -0.001  0.157456  -0.000363  4.054929  -0.001  0.095691  0.152742  -0.000584  4.015356  -0.001
C  C23  1  0.37440361  0.77316452  0.51747079  1  -0.128995  -0.000719  3.717645  -0.001  -0.157942  -0.000174  3.979259  0.0  -0.160245  -4.6e-05  3.9993  0.0  -0.086698  -0.156191  -0.000318  3.965543  0.0
C  C24  1  0.62559249  0.22683295  0.48252996  1  -0.128823  -0.000747  3.717406  -0.001  -0.157776  -0.000171  3.979038  0.0  -0.160079  -5e-05  3.999073  0.0  -0.086709  -0.156028  -0.000318  3.965328  0.0
C  C25  1  0.26537016  0.88180875  0.60639917  1  -0.03491  0.000161  3.729209  0.0  -0.044853  -9.3e-05  3.980495  0.0  -0.047114  -6.4e-05  4.003384  0.0  -0.085223  -0.043274  -0.000106  3.964581  0.0
C  C26  1  0.73463050  0.11818640  0.39360204  1  -0.035012  0.00023  3.729164  0.0  -0.044935  -9.5e-05  3.980427  0.0  -0.047196  -6.1e-05  4.003317  0.0  -0.08523  -0.043356  -0.000106  3.964517  0.0
C  C27  1  0.20074549  0.02826028  0.54582702  1  -0.127864  -0.001045  3.696006  -0.001  -0.15695  -0.000331  3.955679  0.0  -0.159565  -0.000155  3.975941  0.0  -0.08297  -0.155039  -0.000577  3.941903  -0.001
C  C28  1  0.79925361  0.97173603  0.45417643  1  -0.127878  -0.001097  3.696117  -0.001  -0.156949  -0.000329  3.955819  0.0  -0.159563  -0.00016  3.976082  0.0  -0.083023  -0.155036  -0.000577  3.942044  -0.001
C  C29  1  0.25035465  0.06614712  0.39580028  1  0.175396  -0.000751  3.784713  -0.001  0.161496  -0.000464  4.027781  -0.001  0.16511  -0.000377  4.050924  -0.001  0.102358  0.159216  -0.000491  4.012031  -0.001
C  C30  1  0.74964131  0.93385152  0.60420242  1  0.175456  -0.000716  3.784833  -0.001  0.161492  -0.000466  4.027931  -0.001  0.165103  -0.000374  4.05108  -0.001  0.102343  0.159211  -0.000491  4.012184  -0.001
C  C31  1  0.36279445  0.96109630  0.30449871  1  -0.200101  0.000391  3.695197  0.0  -0.235382  4.3e-05  3.959265  0.0  -0.239941  0.000112  3.979617  0.0  -0.080747  -0.232015  -3.9e-05  3.944823  0.0
C  C32  1  0.63720480  0.03889885  0.69550382  1  -0.200022  0.000336  3.69526  0.0  -0.235234  4.6e-05  3.95928  0.0  -0.239796  0.000108  3.979632  0.0  -0.080665  -0.231867  -3.9e-05  3.944837  0.0
C  C33  1  0.15829496  0.24901466  0.19528533  1  0.192778  0.008288  3.580926  0.004  0.120856  0.002954  3.850093  0.001  0.137593  0.004072  3.860299  0.002  0.171269  0.110492  0.001931  3.843286  0.0
C  C34  1  0.84170950  0.75098398  0.80471781  1  0.192821  0.008301  3.580916  0.004  0.12089  0.002952  3.850043  0.001  0.137624  0.004075  3.860251  0.002  0.171267  0.110525  0.001932  3.84324  0.0
C  C35  1  0.05685736  0.44593640  0.31490385  1  0.212644  0.003949  3.687412  0.001  0.160367  0.000491  3.988996  -0.001  0.174725  0.001388  4.000348  0.0  0.152197  0.151137  -9.5e-05  3.981159  -0.001
C  C36  1  0.94314426  0.55406224  0.68509880  1  0.212583  0.003959  3.6875  0.001  0.160315  0.000488  3.989064  -0.001  0.174669  0.001389  4.000418  0.0  0.152169  0.151084  -9.5e-05  3.981225  -0.001
N  N37  1  0.75077970  0.57972983  0.12253042  1  -0.376114  -0.073187  3.289649  -0.098  -0.334277  -0.051341  3.610019  -0.072  -0.366725  -0.04151  3.628711  -0.062  -0.365073  -0.313708  -0.057466  3.598087  -0.077
N  N38  1  0.24921894  0.42026997  0.87747161  1  -0.3761  -0.073187  3.289701  -0.098  -0.334242  -0.051343  3.610041  -0.072  -0.366691  -0.041512  3.628732  -0.062  -0.36507  -0.31367  -0.057468  3.598106  -0.077
N  N39  1  0.53033928  0.70420722  0.27511975  1  0.016805  -0.001899  3.566328  -0.003  0.139771  -0.001455  3.734883  -0.002  0.129526  -0.00108  3.757707  -0.002  -0.110993  0.144869  -0.001718  3.72197  -0.002
N  N40  1  0.46965681  0.29579025  0.72487996  1  0.016865  -0.001901  3.56633  -0.003  0.139789  -0.001454  3.734942  -0.002  0.129543  -0.001081  3.757766  -0.002  -0.111043  0.144902  -0.001718  3.722001  -0.002
N  N41  1  0.45711969  0.57132179  0.26491221  1  -0.243553  -0.009158  2.826179  -0.011  -0.249714  -0.004076  3.088421  -0.005  -0.25728  -0.002752  3.10119  -0.004  -0.212906  -0.243857  -0.005569  3.07939  -0.007
N  N42  1  0.54287796  0.42867452  0.73508735  1  -0.243518  -0.009147  2.82615  -0.011  -0.249663  -0.004076  3.088393  -0.005  -0.257229  -0.002752  3.101163  -0.004  -0.212866  -0.243809  -0.00557  3.079364  -0.007
N  N43  1  0.18007024  0.21241060  0.33226401  1  0.022443  -0.002053  3.576533  -0.003  0.1393  -0.001385  3.747821  -0.002  0.128987  -0.001023  3.77086  -0.002  -0.11158  0.144446  -0.001606  3.734814  -0.002
N  N44  1  0.81993121  0.78758921  0.66773748  1  0.022451  -0.002066  3.576456  -0.003  0.13935  -0.001385  3.747726  -0.002  0.129057  -0.001025  3.77073  -0.002  -0.111521  0.144495  -0.001606  3.734724  -0.002
N  N45  1  0.11468393  0.33653971  0.41016286  1  -0.254626  -0.009603  2.840138  -0.012  -0.25732  -0.004502  3.109324  -0.005  -0.266396  -0.003108  3.122032  -0.004  -0.210545  -0.250292  -0.006342  3.10061  -0.007
N  N46  1  0.88531487  0.66345893  0.58984034  1  -0.254639  -0.009603  2.840113  -0.012  -0.257351  -0.004502  3.109284  -0.005  -0.26643  -0.003109  3.121993  -0.004  -0.210553  -0.250323  -0.006343  3.100571  -0.007
N  N47  1  0.08104526  0.39680610  0.18126521  1  -0.379388  -0.074037  3.271563  -0.099  -0.340342  -0.052938  3.591618  -0.074  -0.373758  -0.042831  3.611229  -0.064  -0.359287  -0.319181  -0.059214  3.578859  -0.079
N  N48  1  0.91895902  0.60319370  0.81873572  1  -0.379409  -0.074032  3.271715  -0.099  -0.340347  -0.052938  3.591726  -0.074  -0.373765  -0.042831  3.611344  -0.064  -0.359312  -0.319185  -0.059215  3.578968  -0.079
N  N49  1  0.83021810  0.13666361  0.96093327  1  0.701994  0.000239  4.164546  0.0  0.735159  0.000269  4.459438  0.0  0.763779  0.000224  4.464398  0.0  0.094296  0.715888  0.000314  4.455371  0.0
N  N50  1  0.16978534  0.86334202  0.03905871  1  0.702023  0.000197  4.164442  0.0  0.735331  0.000269  4.459209  0.0  0.763952  0.000221  4.464153  0.0  0.094389  0.716061  0.000314  4.455153  0.0
O  O51  1  0.85740549  0.25019461  0.02081482  1  -0.526478  0.001539  1.817312  0.0  -0.526516  0.0018  2.069907  0.0  -0.542974  0.002013  2.059026  0.0  -0.216646  -0.515217  0.001421  2.077143  0.0
O  O52  1  0.14260539  0.74980869  0.97918333  1  -0.526523  0.001546  1.817493  0.0  -0.526615  0.001802  2.070028  0.0  -0.543089  0.00201  2.059186  0.0  -0.216761  -0.515329  0.001421  2.077286  0.0
O  O53  1  0.95066345  0.09342525  0.84990523  1  -0.479133  -0.000251  1.766073  0.0  -0.463025  -3.8e-05  1.981134  0.0  -0.478028  -2.2e-05  1.976467  0.0  -0.199078  -0.45216  -0.00016  1.983994  0.0
O  O54  1  0.04933908  0.90657689  0.15009261  1  -0.47907  -0.000217  1.766009  0.0  -0.463059  -4.2e-05  1.981069  0.0  -0.478065  -5e-06  1.976402  0.0  -0.199069  -0.452167  -0.000159  1.983879  0.0
O  O55  1  0.68329841  0.06729205  0.01348731  1  -0.475357  6.7e-05  1.731812  0.0  -0.466277  0.000201  1.948067  0.0  -0.478961  0.000205  1.940406  0.0  -0.2037  -0.457039  0.00014  1.952685  0.0
O  O56  1  0.31670066  0.93272522  0.98650504  1  -0.475422  4.9e-05  1.731682  0.0  -0.466351  0.000204  1.947859  0.0  -0.479031  0.00019  1.940193  0.0  -0.203694  -0.457109  0.00014  1.952481  0.0
