# generated using pymatgen
data_AgH6C5(NO)3
_symmetry_space_group_name_H-M   'P 1'
_cell_length_a   6.64685615
_cell_length_b   11.21407912
_cell_length_c   19.83461061
_cell_angle_alpha   89.99992563
_cell_angle_beta   90.00015542
_cell_angle_gamma   89.99998799
_symmetry_Int_Tables_number   1
_chemical_formula_structural   AgH6C5(NO)3
_chemical_formula_sum   'Ag8 H48 C40 N24 O24'
_cell_volume   1478.43956068
_cell_formula_units_Z   8
loop_
 _symmetry_equiv_pos_site_id
 _symmetry_equiv_pos_as_xyz
  1  'x, y, z'
loop_
 _atom_site_type_symbol
 _atom_site_label
 _atom_site_symmetry_multiplicity
 _atom_site_fract_x
 _atom_site_fract_y
 _atom_site_fract_z
 _atom_site_occupancy
 _atom_site_hle17_bader_spin_density
 _atom_site_hle17_ddec_charge
 _atom_site_hle17_ddec_spin_density
 _atom_site_hle17_ddec_sum_bond_order
 _atom_site_hle17_magmom
 _atom_site_hse06_10hf_bader_spin_density
 _atom_site_hse06_10hf_ddec_charge
 _atom_site_hse06_10hf_ddec_spin_density
 _atom_site_hse06_10hf_ddec_sum_bond_order
 _atom_site_hse06_10hf_magmom
 _atom_site_hse06_bader_spin_density
 _atom_site_hse06_ddec_charge
 _atom_site_hse06_ddec_spin_density
 _atom_site_hse06_ddec_sum_bond_order
 _atom_site_hse06_magmom
 _atom_site_pbe_bader_spin_density
 _atom_site_pbe_cm5_charge
 _atom_site_pbe_ddec_charge
 _atom_site_pbe_ddec_spin_density
 _atom_site_pbe_ddec_sum_bond_order
 _atom_site_pbe_magmom
Ag  Ag0  1  0.52455131  0.20647760  0.27331080  1  0  0.560469  0  1.367402  0  0  0.41875  0  1.807229  0  0  0.448952  0  1.756629  0  0  0.454602  0.398239  0  1.842204  0
Ag  Ag1  1  0.97544609  0.79352298  0.77331001  1  0  0.560504  0  1.367341  0  0  0.418794  0  1.807157  0  0  0.449  0  1.756556  0  0  0.454624  0.398291  0  1.842127  0
Ag  Ag2  1  0.47545413  0.70647770  0.22669056  1  0  0.560522  0  1.367362  0  0  0.418816  0  1.807196  0  0  0.449018  0  1.756592  0  0  0.454629  0.398311  0  1.842173  0
Ag  Ag3  1  0.02455434  0.29352216  0.72668924  1  0  0.560515  0  1.367336  0  0  0.418821  0  1.807157  0  0  0.449024  0  1.756559  0  0  0.45464  0.398321  0  1.84213  0
Ag  Ag4  1  0.47545313  0.79352396  0.72669026  1  0  0.560511  0  1.367369  0  0  0.418789  0  1.807204  0  0  0.448996  0  1.756602  0  0  0.454618  0.398291  0  1.842175  0
Ag  Ag5  1  0.02455083  0.20647590  0.22669004  1  0  0.560482  0  1.367393  0  0  0.418763  0  1.807235  0  0  0.448967  0  1.756634  0  0  0.45461  0.398257  0  1.84221  0
Ag  Ag6  1  0.52455031  0.29352386  0.77331050  1  0  0.560489  0  1.367349  0  0  0.418747  0  1.80718  0  0  0.448948  0  1.756577  0  0  0.454607  0.398246  0  1.842152  0
Ag  Ag7  1  0.97544859  0.70647672  0.27330981  1  0  0.56052  0  1.367333  0  0  0.418821  0  1.807161  0  0  0.44902  0  1.75656  0  0  0.454623  0.398314  0  1.842138  0
H  H8  1  0.23638660  0.36887166  0.30355572  1  0  0.313828  0  0.920166  0  0  0.295757  0  0.990572  0  0  0.303095  0  0.984487  0  0  0.288949  0.29052  0  0.994851  0
H  H9  1  0.26361498  0.63112713  0.80355536  1  0  0.313835  0  0.920205  0  0  0.29577  0  0.990621  0  0  0.303109  0  0.984533  0  0  0.288928  0.290528  0  0.994906  0
H  H10  1  0.76361728  0.86887179  0.19644351  1  0  0.313902  0  0.920134  0  0  0.29582  0  0.99055  0  0  0.303159  0  0.984463  0  0  0.288968  0.290581  0  0.994834  0
H  H11  1  0.73638401  0.13112808  0.69644451  1  0  0.313841  0  0.920196  0  0  0.295774  0  0.990602  0  0  0.303114  0  0.984512  0  0  0.288944  0.290535  0  0.994884  0
H  H12  1  0.76361483  0.63112812  0.69644434  1  0  0.313902  0  0.920213  0  0  0.2958  0  0.990636  0  0  0.303139  0  0.984551  0  0  0.288961  0.29056  0  0.99492  0
H  H13  1  0.73638796  0.36887175  0.19644318  1  0  0.313866  0  0.920185  0  0  0.295789  0  0.990618  0  0  0.303131  0  0.984525  0  0  0.288941  0.290552  0  0.994896  0
H  H14  1  0.23638566  0.13112888  0.80355604  1  0  0.313888  0  0.920217  0  0  0.295797  0  0.990645  0  0  0.303135  0  0.984558  0  0  0.288954  0.290557  0  0.994927  0
H  H15  1  0.26361742  0.86887170  0.30355605  1  0  0.313826  0  0.920198  0  0  0.295762  0  0.990591  0  0  0.3031  0  0.984504  0  0  0.288934  0.290523  0  0.994874  0
H  H16  1  0.99140831  0.36603141  0.32893190  1  0  0.319151  0  0.912291  0  0  0.30315  0  0.975278  0  0  0.309706  0  0.970754  0  0  0.295169  0.298471  0  0.978526  0
H  H17  1  0.50859405  0.63396905  0.82893233  1  0  0.319168  0  0.91226  0  0  0.303171  0  0.975242  0  0  0.309728  0  0.970716  0  0  0.295163  0.298489  0  0.978491  0
H  H18  1  0.00859708  0.86603079  0.17106732  1  0  0.319167  0  0.912259  0  0  0.30321  0  0.975213  0  0  0.309768  0  0.970679  0  0  0.295153  0.298533  0  0.978461  0
H  H19  1  0.49140343  0.13397009  0.67106805  1  0  0.319152  0  0.912266  0  0  0.303155  0  0.975241  0  0  0.309713  0  0.970714  0  0  0.295153  0.298476  0  0.978488  0
H  H20  1  0.00859012  0.63397105  0.67106764  1  0  0.31922  0  0.912233  0  0  0.303216  0  0.975216  0  0  0.309772  0  0.970689  0  0  0.295191  0.298536  0  0.978466  0
H  H21  1  0.49140888  0.36602983  0.17106672  1  0  0.319169  0  0.912297  0  0  0.303166  0  0.975279  0  0  0.309723  0  0.970752  0  0  0.295165  0.298487  0  0.978527  0
H  H22  1  0.99140586  0.13396631  0.82893071  1  0  0.319168  0  0.912257  0  0  0.303183  0  0.975235  0  0  0.309739  0  0.970709  0  0  0.295133  0.298504  0  0.978482  0
H  H23  1  0.50859800  0.86603147  0.32893352  1  0  0.319151  0  0.91228  0  0  0.303184  0  0.97524  0  0  0.309744  0  0.970702  0  0  0.295136  0.298506  0  0.978485  0
H  H24  1  0.91212615  0.28503311  0.43360701  1  0  0.119078  0  0.967595  0  0  0.130506  0  1.025507  0  0  0.133085  0  1.025884  0  0  0.107548  0.128652  0  1.02547  0
H  H25  1  0.58787555  0.71496711  0.93360744  1  0  0.119072  0  0.967596  0  0  0.130501  0  1.025512  0  0  0.133086  0  1.025874  0  0  0.107536  0.128644  0  1.025475  0
H  H26  1  0.08787625  0.78503183  0.06639127  1  0  0.119047  0  0.967609  0  0  0.130488  0  1.025517  0  0  0.13307  0  1.025882  0  0  0.107541  0.128631  0  1.025485  0
H  H27  1  0.41212340  0.21496839  0.56639237  1  0  0.119039  0  0.967626  0  0  0.130472  0  1.025537  0  0  0.133055  0  1.025901  0  0  0.107535  0.128613  0  1.025506  0
H  H28  1  0.08787077  0.71496845  0.56639204  1  0  0.119054  0  0.967547  0  0  0.130495  0  1.02546  0  0  0.133077  0  1.025827  0  0  0.107541  0.128641  0  1.025422  0
H  H29  1  0.41212588  0.28503356  0.06639160  1  0  0.119038  0  0.967641  0  0  0.13047  0  1.025553  0  0  0.133052  0  1.02592  0  0  0.107539  0.128616  0  1.025515  0
H  H30  1  0.91212518  0.21496616  0.93360626  1  0  0.119028  0  0.967628  0  0  0.130453  0  1.025547  0  0  0.13303  0  1.025925  0  0  0.107537  0.128599  0  1.025508  0
H  H31  1  0.58787502  0.78503406  0.43361020  1  0  0.119041  0  0.967625  0  0  0.13047  0  1.025538  0  0  0.133054  0  1.025902  0  0  0.107521  0.128611  0  1.025513  0
H  H32  1  0.00293280  0.13675607  0.52349094  1  0  0.095858  0  0.939633  0  0  0.10723  0  0.998403  0  0  0.109238  0  0.99789  0  0  0.106095  0.105669  0  0.99892  0
H  H33  1  0.49706651  0.86324247  0.02349117  1  0  0.095824  0  0.939716  0  0  0.107198  0  0.998476  0  0  0.109205  0  0.997964  0  0  0.106059  0.10563  0  0.998998  0
H  H34  1  0.99706468  0.63675464  0.97650842  1  0  0.095867  0  0.939605  0  0  0.107246  0  0.998365  0  0  0.109254  0  0.997852  0  0  0.106096  0.105707  0  0.998858  0
H  H35  1  0.50293737  0.36324192  0.47650857  1  0  0.095783  0  0.939754  0  0  0.107157  0  0.998516  0  0  0.109164  0  0.998004  0  0  0.106064  0.105594  0  0.999033  0
H  H36  1  0.99706412  0.86324549  0.47650911  1  0  0.09574  0  0.939744  0  0  0.107111  0  0.998519  0  0  0.109118  0  0.998008  0  0  0.106034  0.105543  0  0.999043  0
H  H37  1  0.50293643  0.13675731  0.97650788  1  0  0.095828  0  0.93968  0  0  0.107207  0  0.998446  0  0  0.109215  0  0.997934  0  0  0.106074  0.105669  0  0.998938  0
H  H38  1  0.00292773  0.36323979  0.02349163  1  0  0.095901  0  0.939566  0  0  0.107265  0  0.99835  0  0  0.109273  0  0.997837  0  0  0.106095  0.105697  0  0.998875  0
H  H39  1  0.49705954  0.63675964  0.52349350  1  0  0.095793  0  0.939698  0  0  0.107162  0  0.998473  0  0  0.109169  0  0.997962  0  0  0.106057  0.105607  0  0.998984  0
H  H40  1  0.30925803  0.00880530  0.50652886  1  0  0.099106  0  0.972754  0  0  0.109235  0  1.036919  0  0  0.11177  0  1.036854  0  0  0.103408  0.107382  0  1.037202  0
H  H41  1  0.19073964  0.99119238  0.00652770  1  0  0.099115  0  0.972814  0  0  0.109214  0  1.037018  0  0  0.111759  0  1.03694  0  0  0.103371  0.107358  0  1.037303  0
H  H42  1  0.69073799  0.50880477  0.99347211  1  0  0.099127  0  0.972759  0  0  0.109224  0  1.036962  0  0  0.111768  0  1.036886  0  0  0.103377  0.107374  0  1.037242  0
H  H43  1  0.80926419  0.49119175  0.49347093  1  0  0.099157  0  0.972716  0  0  0.10926  0  1.03691  0  0  0.111802  0  1.036835  0  0  0.103386  0.107405  0  1.037193  0
H  H44  1  0.69073889  0.99119715  0.49347119  1  0  0.099084  0  0.972826  0  0  0.109207  0  1.037001  0  0  0.111744  0  1.036934  0  0  0.103374  0.107354  0  1.037284  0
H  H45  1  0.80926029  0.00880740  0.99347185  1  0  0.099111  0  0.972841  0  0  0.109211  0  1.037041  0  0  0.111756  0  1.036963  0  0  0.103377  0.10736  0  1.037319  0
H  H46  1  0.30925591  0.49119501  0.00652945  1  0  0.099141  0  0.972741  0  0  0.109255  0  1.036926  0  0  0.111816  0  1.03683  0  0  0.10342  0.107402  0  1.037209  0
H  H47  1  0.19073573  0.50880802  0.50652913  1  0  0.099134  0  0.972745  0  0  0.109232  0  1.036949  0  0  0.111775  0  1.036875  0  0  0.103381  0.107379  0  1.037232  0
H  H48  1  0.52576447  0.04660789  0.40403134  1  0  0.074251  0  0.980393  0  0  0.079514  0  1.052933  0  0  0.082765  0  1.048876  0  0  0.108648  0.077099  0  1.055888  0
H  H49  1  0.97423850  0.95339240  0.90402994  1  0  0.074217  0  0.980399  0  0  0.07947  0  1.052961  0  0  0.082724  0  1.048899  0  0  0.108636  0.077055  0  1.05592  0
H  H50  1  0.47423652  0.54660828  0.09596963  1  0  0.074246  0  0.980403  0  0  0.079503  0  1.052956  0  0  0.082753  0  1.0489  0  0  0.108656  0.07709  0  1.055907  0
H  H51  1  0.02576639  0.45339010  0.59596869  1  0  0.074274  0  0.980384  0  0  0.079534  0  1.052923  0  0  0.082787  0  1.048862  0  0  0.108643  0.077119  0  1.055881  0
H  H52  1  0.47423245  0.95339457  0.59596921  1  0  0.074265  0  0.980309  0  0  0.079524  0  1.052846  0  0  0.082777  0  1.048785  0  0  0.108666  0.077113  0  1.055801  0
H  H53  1  0.02576143  0.04660648  0.09596911  1  0  0.074295  0  0.980364  0  0  0.07953  0  1.052933  0  0  0.082781  0  1.048876  0  0  0.108665  0.077116  0  1.05589  0
H  H54  1  0.52575739  0.45339061  0.90403143  1  0  0.07428  0  0.980376  0  0  0.079483  0  1.052999  0  0  0.082735  0  1.048941  0  0  0.108613  0.077068  0  1.055953  0
H  H55  1  0.97423655  0.54660790  0.40403086  1  0  0.074274  0  0.980338  0  0  0.079501  0  1.052936  0  0  0.082753  0  1.048878  0  0  0.108639  0.077083  0  1.05589  0
C  C56  1  0.16965310  0.24066668  0.37269195  1  0  0.445953  0  3.781076  0  0  0.422313  0  4.028169  0  0  0.438753  0  4.046009  0  0  0.211675  0.411107  0  4.015977  0
C  C57  1  0.33034904  0.75933285  0.87269207  1  0  0.445856  0  3.781178  0  0  0.422228  0  4.028273  0  0  0.438669  0  4.046112  0  0  0.21163  0.411022  0  4.016072  0
C  C58  1  0.83035233  0.74066695  0.12730686  1  0  0.446055  0  3.780918  0  0  0.422296  0  4.028223  0  0  0.438736  0  4.046062  0  0  0.211654  0.411088  0  4.016032  0
C  C59  1  0.66964990  0.25933307  0.62730670  1  0  0.446133  0  3.780903  0  0  0.422331  0  4.028204  0  0  0.438771  0  4.046044  0  0  0.211653  0.411128  0  4.016001  0
C  C60  1  0.83034833  0.75933310  0.62730709  1  0  0.445909  0  3.781073  0  0  0.422279  0  4.028164  0  0  0.43872  0  4.046003  0  0  0.211647  0.411075  0  4.015965  0
C  C61  1  0.66965089  0.24066692  0.12730748  1  0  0.445895  0  3.781105  0  0  0.422264  0  4.028186  0  0  0.438705  0  4.046026  0  0  0.21164  0.411057  0  4.015995  0
C  C62  1  0.16965361  0.25933282  0.87269218  1  0  0.445857  0  3.781277  0  0  0.422172  0  4.028439  0  0  0.438609  0  4.046281  0  0  0.211636  0.410968  0  4.016239  0
C  C63  1  0.33035153  0.74066760  0.37269386  1  0  0.446103  0  3.78086  0  0  0.422338  0  4.028123  0  0  0.438776  0  4.045966  0  0  0.211671  0.411132  0  4.015931  0
C  C64  1  0.04597832  0.22981954  0.42961260  1  0  -0.205012  0  3.691087  0  0  -0.21644  0  3.931837  0  0  -0.226841  0  3.953252  0  0  -0.092187  -0.209759  0  3.917613  0
C  C65  1  0.45401826  0.77017986  0.92961283  1  0  -0.205016  0  3.691226  0  0  -0.216466  0  3.932007  0  0  -0.226861  0  3.953411  0  0  -0.092202  -0.209787  0  3.917777  0
C  C66  1  0.95401809  0.72981815  0.07038672  1  0  -0.205049  0  3.691348  0  0  -0.216469  0  3.932175  0  0  -0.226869  0  3.953594  0  0  -0.092224  -0.209791  0  3.917953  0
C  C67  1  0.54598218  0.27018022  0.57038644  1  0  -0.205069  0  3.691268  0  0  -0.216462  0  3.932082  0  0  -0.22686  0  3.953494  0  0  -0.092182  -0.209783  0  3.917852  0
C  C68  1  0.95401559  0.77018380  0.57038644  1  0  -0.205047  0  3.691316  0  0  -0.216524  0  3.932122  0  0  -0.226926  0  3.953541  0  0  -0.092217  -0.209842  0  3.917891  0
C  C69  1  0.54598167  0.22981992  0.07038622  1  0  -0.205001  0  3.69127  0  0  -0.216447  0  3.932045  0  0  -0.226847  0  3.953459  0  0  -0.092203  -0.209769  0  3.917826  0
C  C70  1  0.04597582  0.27017628  0.92961081  1  0  -0.204974  0  3.691159  0  0  -0.216382  0  3.931911  0  0  -0.226783  0  3.953325  0  0  -0.092246  -0.209704  0  3.917683  0
C  C71  1  0.45401624  0.72982223  0.42961512  1  0  -0.20504  0  3.691254  0  0  -0.216447  0  3.932068  0  0  -0.226842  0  3.953475  0  0  -0.092158  -0.209769  0  3.91784  0
C  C72  1  0.09583218  0.14670343  0.47856295  1  0  0.013121  0  3.738196  0  0  -0.006475  0  3.987809  0  0  -0.00086  0  4.005533  0  0  -0.070723  -0.00983  0  3.975701  0
C  C73  1  0.40417081  0.85329497  0.97856307  1  0  0.013156  0  3.738317  0  0  -0.006435  0  3.987909  0  0  -0.00082  0  4.005636  0  0  -0.070694  -0.009794  0  3.975805  0
C  C74  1  0.90417028  0.64670394  0.02143644  1  0  0.013154  0  3.738233  0  0  -0.006433  0  3.987834  0  0  -0.000819  0  4.00556  0  0  -0.070695  -0.009807  0  3.975723  0
C  C75  1  0.59583110  0.35329365  0.52143563  1  0  0.013291  0  3.738402  0  0  -0.006296  0  3.987976  0  0  -0.000681  0  4.005703  0  0  -0.070674  -0.009659  0  3.975871  0
C  C76  1  0.90416925  0.85329635  0.52143761  1  0  0.013318  0  3.738369  0  0  -0.006262  0  3.987954  0  0  -0.000646  0  4.005681  0  0  -0.070668  -0.009617  0  3.975848  0
C  C77  1  0.59583062  0.14670481  0.02143547  1  0  0.013185  0  3.738277  0  0  -0.006418  0  3.987875  0  0  -0.000803  0  4.005602  0  0  -0.070682  -0.009796  0  3.975758  0
C  C78  1  0.09582814  0.35329406  0.97856361  1  0  0.0131  0  3.738247  0  0  -0.006487  0  3.987849  0  0  -0.000873  0  4.005581  0  0  -0.070704  -0.009845  0  3.975745  0
C  C79  1  0.40416733  0.64670702  0.47856543  1  0  0.013279  0  3.738376  0  0  -0.0063  0  3.987949  0  0  -0.000685  0  4.00568  0  0  -0.070679  -0.009666  0  3.975836  0
C  C80  1  0.26775403  0.07639181  0.46973152  1  0  -0.158294  0  3.773542  0  0  -0.173731  0  4.030989  0  0  -0.182379  0  4.053569  0  0  -0.102178  -0.168192  0  4.015874  0
C  C81  1  0.23224588  0.92360839  0.96973092  1  0  -0.158364  0  3.773629  0  0  -0.173779  0  4.031064  0  0  -0.182435  0  4.053639  0  0  -0.102173  -0.168243  0  4.015953  0
C  C82  1  0.73224393  0.57639054  0.03026893  1  0  -0.158409  0  3.773636  0  0  -0.173809  0  4.031069  0  0  -0.182464  0  4.053645  0  0  -0.102193  -0.168275  0  4.015964  0
C  C83  1  0.76775601  0.42360614  0.53026823  1  0  -0.158465  0  3.773586  0  0  -0.173881  0  4.031036  0  0  -0.182536  0  4.053614  0  0  -0.102221  -0.168344  0  4.015926  0
C  C84  1  0.73224288  0.92361153  0.53026853  1  0  -0.158372  0  3.773536  0  0  -0.173809  0  4.030977  0  0  -0.182459  0  4.053557  0  0  -0.102155  -0.16827  0  4.015863  0
C  C85  1  0.76775856  0.07639050  0.03026913  1  0  -0.158356  0  3.773649  0  0  -0.173766  0  4.031078  0  0  -0.182421  0  4.053651  0  0  -0.102192  -0.16823  0  4.015968  0
C  C86  1  0.26774396  0.42360567  0.96973062  1  0  -0.158399  0  3.773868  0  0  -0.173828  0  4.031314  0  0  -0.182496  0  4.053886  0  0  -0.102211  -0.168293  0  4.016202  0
C  C87  1  0.23224241  0.57639453  0.46973233  1  0  -0.158452  0  3.773637  0  0  -0.173867  0  4.031092  0  0  -0.182524  0  4.053672  0  0  -0.102225  -0.168331  0  4.015978  0
C  C88  1  0.38644450  0.09541885  0.41307959  1  0  0.132343  0  3.719181  0  0  0.100554  0  3.969822  0  0  0.108447  0  3.988773  0  0  0.035137  0.095495  0  3.956923  0
C  C89  1  0.11355796  0.90458059  0.91307839  1  0  0.132435  0  3.719229  0  0  0.100661  0  3.96985  0  0  0.10855  0  3.988813  0  0  0.035175  0.095602  0  3.956956  0
C  C90  1  0.61355647  0.59542013  0.08692034  1  0  0.132393  0  3.719348  0  0  0.10061  0  3.969973  0  0  0.108501  0  3.988934  0  0  0.03514  0.095549  0  3.957069  0
C  C91  1  0.88644543  0.40457820  0.58692077  1  0  0.132337  0  3.719255  0  0  0.100562  0  3.969869  0  0  0.108452  0  3.988825  0  0  0.035155  0.095501  0  3.956979  0
C  C92  1  0.61355543  0.90458182  0.58692147  1  0  0.132397  0  3.719135  0  0  0.100618  0  3.969774  0  0  0.10851  0  3.988729  0  0  0.035174  0.095557  0  3.956881  0
C  C93  1  0.88644347  0.09542008  0.08692116  1  0  0.132331  0  3.719356  0  0  0.100569  0  3.969975  0  0  0.108463  0  3.988927  0  0  0.035152  0.09551  0  3.957081  0
C  C94  1  0.38644045  0.40458321  0.91308072  1  0  0.132388  0  3.719191  0  0  0.100622  0  3.969838  0  0  0.10851  0  3.988798  0  0  0.035164  0.095565  0  3.956943  0
C  C95  1  0.11355750  0.59542158  0.41307928  1  0  0.132398  0  3.719222  0  0  0.10063  0  3.969855  0  0  0.108521  0  3.988808  0  0  0.035189  0.095577  0  3.956953  0
N  N96  1  0.33865478  0.17577147  0.36515674  1  0  -0.389083  0  3.260814  0  0  -0.305114  0  3.533708  0  0  -0.32736  0  3.548343  0  0  -0.346458  -0.290099  0  3.523579  0
N  N97  1  0.16134579  0.82422986  0.86515716  1  0  -0.389043  0  3.260832  0  0  -0.305086  0  3.533724  0  0  -0.327334  0  3.548357  0  0  -0.346458  -0.290072  0  3.523597  0
N  N98  1  0.66134616  0.67577086  0.13484263  1  0  -0.389135  0  3.26069  0  0  -0.305134  0  3.533647  0  0  -0.327381  0  3.548281  0  0  -0.346449  -0.290122  0  3.523522  0
N  N99  1  0.83865463  0.32422737  0.63484307  1  0  -0.389132  0  3.260842  0  0  -0.305114  0  3.533783  0  0  -0.327359  0  3.548415  0  0  -0.346432  -0.290103  0  3.523661  0
N  N100  1  0.66134214  0.82423009  0.63484230  1  0  -0.389093  0  3.26082  0  0  -0.305126  0  3.533713  0  0  -0.327376  0  3.548353  0  0  -0.346472  -0.290111  0  3.523587  0
N  N101  1  0.83865715  0.17576991  0.13484289  1  0  -0.38905  0  3.260855  0  0  -0.305086  0  3.533739  0  0  -0.327336  0  3.548379  0  0  -0.346453  -0.290072  0  3.523618  0
N  N102  1  0.33864624  0.32422714  0.86515692  1  0  -0.389062  0  3.260769  0  0  -0.305045  0  3.533622  0  0  -0.327286  0  3.548251  0  0  -0.346407  -0.290032  0  3.523495  0
N  N103  1  0.16134680  0.67577241  0.36515748  1  0  -0.389154  0  3.26071  0  0  -0.305132  0  3.533626  0  0  -0.327375  0  3.548259  0  0  -0.346459  -0.290118  0  3.5235  0
N  N104  1  0.11776066  0.31608889  0.31909468  1  0  -0.686676  0  3.22515  0  0  -0.623883  0  3.471809  0  0  -0.647379  0  3.468231  0  0  -0.612636  -0.607255  0  3.473774  0
N  N105  1  0.38223953  0.68391076  0.81909440  1  0  -0.686675  0  3.225163  0  0  -0.623894  0  3.47178  0  0  -0.647391  0  3.468199  0  0  -0.612575  -0.607269  0  3.473751  0
N  N106  1  0.88224022  0.81608994  0.18090458  1  0  -0.686779  0  3.225032  0  0  -0.623997  0  3.471724  0  0  -0.647492  0  3.468145  0  0  -0.612608  -0.607366  0  3.473694  0
N  N107  1  0.61776094  0.18391086  0.68090544  1  0  -0.686737  0  3.224988  0  0  -0.623882  0  3.471644  0  0  -0.647381  0  3.468066  0  0  -0.612613  -0.607256  0  3.47361  0
N  N108  1  0.88223475  0.68391088  0.68090487  1  0  -0.686792  0  3.225224  0  0  -0.623957  0  3.471877  0  0  -0.647453  0  3.468295  0  0  -0.612642  -0.607328  0  3.473847  0
N  N109  1  0.61776190  0.31608991  0.18090465  1  0  -0.686683  0  3.225122  0  0  -0.62389  0  3.471729  0  0  -0.647387  0  3.468151  0  0  -0.612593  -0.607261  0  3.473694  0
N  N110  1  0.11776121  0.18390984  0.81909446  1  0  -0.686693  0  3.225141  0  0  -0.623905  0  3.471816  0  0  -0.647403  0  3.468238  0  0  -0.612563  -0.607278  0  3.47378  0
N  N111  1  0.38224200  0.81608981  0.31909562  1  0  -0.686754  0  3.225098  0  0  -0.623954  0  3.471713  0  0  -0.64745  0  3.468139  0  0  -0.612573  -0.607325  0  3.473678  0
N  N112  1  0.38016672  0.99016847  0.17579100  1  0  0.703389  0  4.112761  0  0  0.735249  0  4.397436  0  0  0.763705  0  4.404446  0  0  0.094707  0.717593  0  4.391779  0
N  N113  1  0.11983532  0.00983062  0.67579149  1  0  0.703387  0  4.112733  0  0  0.735286  0  4.397338  0  0  0.763746  0  4.404341  0  0  0.094784  0.717632  0  4.391677  0
N  N114  1  0.61983561  0.49016824  0.32420914  1  0  0.703552  0  4.11267  0  0  0.735411  0  4.39731  0  0  0.763869  0  4.404316  0  0  0.094804  0.717711  0  4.391713  0
N  N115  1  0.88016521  0.50983044  0.82420848  1  0  0.703347  0  4.112705  0  0  0.735251  0  4.397315  0  0  0.763712  0  4.404318  0  0  0.094736  0.717594  0  4.39166  0
N  N116  1  0.61983471  0.00983220  0.82421006  1  0  0.70354  0  4.112669  0  0  0.73532  0  4.397415  0  0  0.763796  0  4.404396  0  0  0.094761  0.717557  0  4.391908  0
N  N117  1  0.88016761  0.99016827  0.32420907  1  0  0.703362  0  4.112779  0  0  0.735247  0  4.397407  0  0  0.763704  0  4.404413  0  0  0.094755  0.717589  0  4.391755  0
N  N118  1  0.38016733  0.50983153  0.67579041  1  0  0.703502  0  4.112675  0  0  0.735317  0  4.397403  0  0  0.763772  0  4.404411  0  0  0.094692  0.717549  0  4.391878  0
N  N119  1  0.11983622  0.49016933  0.17579158  1  0  0.703477  0  4.112634  0  0  0.735356  0  4.397274  0  0  0.763815  0  4.404281  0  0  0.094807  0.7177  0  4.391617  0
O  O120  1  0.54148975  0.98703842  0.21057724  1  0  -0.481282  0  1.784395  0  0  -0.457988  0  2.009818  0  0  -0.475328  0  2.003131  0  0  -0.195705  -0.446726  0  2.014517  0
O  O121  1  0.95851015  0.01296231  0.71057753  1  0  -0.481298  0  1.784392  0  0  -0.458029  0  2.009814  0  0  -0.475368  0  2.003126  0  0  -0.195737  -0.446769  0  2.014512  0
O  O122  1  0.45851258  0.48703830  0.28942290  1  0  -0.481386  0  1.784418  0  0  -0.458093  0  2.009834  0  0  -0.475433  0  2.003143  0  0  -0.195794  -0.44682  0  2.014551  0
O  O123  1  0.04149038  0.51296231  0.78942344  1  0  -0.481243  0  1.784332  0  0  -0.457968  0  2.009739  0  0  -0.475309  0  2.003053  0  0  -0.195692  -0.446707  0  2.014438  0
O  O124  1  0.45851319  0.01296135  0.78942281  1  0  -0.481422  0  1.784477  0  0  -0.458077  0  2.009889  0  0  -0.475428  0  2.003199  0  0  -0.195803  -0.446788  0  2.014635  0
O  O125  1  0.04148977  0.98703836  0.28942303  1  0  -0.481251  0  1.784374  0  0  -0.457964  0  2.009791  0  0  -0.475301  0  2.0031  0  0  -0.195692  -0.446702  0  2.014491  0
O  O126  1  0.54149035  0.51296059  0.71057766  1  0  -0.481361  0  1.784386  0  0  -0.458025  0  2.009808  0  0  -0.475368  0  2.003123  0  0  -0.195708  -0.446723  0  2.014539  0
O  O127  1  0.95850954  0.48703747  0.21057711  1  0  -0.481388  0  1.784436  0  0  -0.458091  0  2.009846  0  0  -0.475431  0  2.003154  0  0  -0.195776  -0.446829  0  2.014547  0
O  O128  1  0.30299031  0.89404736  0.15353798  1  0  -0.482788  0  1.771434  0  0  -0.46612  0  1.999063  0  0  -0.480762  0  1.989889  0  0  -0.19713  -0.45649  0  2.005203  0
O  O129  1  0.19701155  0.10595177  0.65353796  1  0  -0.482775  0  1.771419  0  0  -0.466118  0  1.999043  0  0  -0.480771  0  1.989879  0  0  -0.197133  -0.456499  0  2.005189  0
O  O130  1  0.69701205  0.39404619  0.34646172  1  0  -0.482782  0  1.771421  0  0  -0.46609  0  1.999022  0  0  -0.480733  0  1.989849  0  0  -0.197097  -0.45645  0  2.005179  0
O  O131  1  0.80299045  0.60595156  0.84646243  1  0  -0.48281  0  1.771457  0  0  -0.466153  0  1.999066  0  0  -0.480807  0  1.989905  0  0  -0.197161  -0.456529  0  2.005212  0
O  O132  1  0.69701112  0.10595598  0.84646207  1  0  -0.48278  0  1.771375  0  0  -0.466084  0  1.999027  0  0  -0.480716  0  1.989831  0  0  -0.197088  -0.456428  0  2.005213  0
O  O133  1  0.80299138  0.89404711  0.34646209  1  0  -0.482773  0  1.771435  0  0  -0.466114  0  1.999054  0  0  -0.480762  0  1.989883  0  0  -0.197152  -0.456491  0  2.005202  0
O  O134  1  0.30299088  0.60595359  0.65353883  1  0  -0.482745  0  1.771484  0  0  -0.466063  0  1.999113  0  0  -0.480696  0  1.989934  0  0  -0.197079  -0.456402  0  2.005294  0
O  O135  1  0.19701248  0.39404822  0.15353812  1  0  -0.482778  0  1.771359  0  0  -0.466103  0  1.998965  0  0  -0.480748  0  1.989794  0  0  -0.197118  -0.456477  0  2.005106  0
O  O136  1  0.29714112  0.08914755  0.16359041  1  0  -0.473427  0  1.875122  0  0  -0.452518  0  2.125318  0  0  -0.468624  0  2.115144  0  0  -0.188909  -0.441871  0  2.13208  0
O  O137  1  0.20286233  0.91085156  0.66359181  1  0  -0.473402  0  1.87507  0  0  -0.452505  0  2.12525  0  0  -0.46861  0  2.115073  0  0  -0.188956  -0.441862  0  2.13201  0
O  O138  1  0.70285985  0.58914648  0.33641154  1  0  -0.47349  0  1.875038  0  0  -0.452603  0  2.125283  0  0  -0.468708  0  2.115096  0  0  -0.188956  -0.441942  0  2.13206  0
O  O139  1  0.79713956  0.41085129  0.83640836  1  0  -0.473402  0  1.875068  0  0  -0.452489  0  2.125226  0  0  -0.468592  0  2.115047  0  0  -0.188936  -0.441841  0  2.131986  0
O  O140  1  0.70286031  0.91085490  0.83641217  1  0  -0.473451  0  1.875075  0  0  -0.452528  0  2.125315  0  0  -0.468654  0  2.11516  0  0  -0.188915  -0.441851  0  2.132121  0
O  O141  1  0.79714061  0.08914644  0.33640925  1  0  -0.47342  0  1.87515  0  0  -0.452525  0  2.125339  0  0  -0.468633  0  2.115169  0  0  -0.188946  -0.441877  0  2.132103  0
O  O142  1  0.29714158  0.41085240  0.66358851  1  0  -0.473517  0  1.875049  0  0  -0.452628  0  2.125316  0  0  -0.468733  0  2.115135  0  0  -0.188946  -0.441944  0  2.132118  0
O  O143  1  0.20286187  0.58914849  0.16359270  1  0  -0.473425  0  1.875055  0  0  -0.45253  0  2.125227  0  0  -0.468634  0  2.115048  0  0  -0.188959  -0.441882  0  2.131988  0
