# generated using pymatgen
data_ZnH14C18N2O5
_symmetry_space_group_name_H-M   'P 1'
_cell_length_a   5.77718961
_cell_length_b   8.36125256
_cell_length_c   16.90611097
_cell_angle_alpha   89.57960621
_cell_angle_beta   99.86118996
_cell_angle_gamma   89.99405874
_symmetry_Int_Tables_number   1
_chemical_formula_structural   ZnH14C18N2O5
_chemical_formula_sum   'Zn2 H28 C36 N4 O10'
_cell_volume   804.55408443
_cell_formula_units_Z   2
loop_
 _symmetry_equiv_pos_site_id
 _symmetry_equiv_pos_as_xyz
  1  'x, y, z'
loop_
 _atom_site_type_symbol
 _atom_site_label
 _atom_site_symmetry_multiplicity
 _atom_site_fract_x
 _atom_site_fract_y
 _atom_site_fract_z
 _atom_site_occupancy
 _atom_site_hle17_bader_spin_density
 _atom_site_hle17_ddec_charge
 _atom_site_hle17_ddec_spin_density
 _atom_site_hle17_ddec_sum_bond_order
 _atom_site_hle17_magmom
 _atom_site_hse06_10hf_bader_spin_density
 _atom_site_hse06_10hf_ddec_charge
 _atom_site_hse06_10hf_ddec_spin_density
 _atom_site_hse06_10hf_ddec_sum_bond_order
 _atom_site_hse06_10hf_magmom
 _atom_site_hse06_bader_spin_density
 _atom_site_hse06_ddec_charge
 _atom_site_hse06_ddec_spin_density
 _atom_site_hse06_ddec_sum_bond_order
 _atom_site_hse06_magmom
 _atom_site_pbe_bader_spin_density
 _atom_site_pbe_cm5_charge
 _atom_site_pbe_ddec_charge
 _atom_site_pbe_ddec_spin_density
 _atom_site_pbe_ddec_sum_bond_order
 _atom_site_pbe_magmom
Zn  Zn0  1  0.42730115  0.85690628  0.68856036  1  0  1.154934  0  1.736865  0  0  0.983563  0  2.211456  0  0  1.033921  0  2.147379  0  0  0.677363  0.948029  0  2.255685  0
Zn  Zn1  1  0.26123296  0.35697324  0.68855399  1  0  1.155159  0  1.735912  0  0  0.983835  0  2.21051  0  0  1.034209  0  2.146433  0  0  0.67766  0.948294  0  2.254731  0
H  H2  1  0.47671037  0.65708970  0.36751980  1  0  0.283528  0  0.917067  0  0  0.269277  0  0.97562  0  0  0.27431  0  0.974708  0  0  0.311579  0.265764  0  0.976242  0
H  H3  1  0.89025884  0.15709808  0.36756893  1  0  0.284161  0  0.917944  0  0  0.270015  0  0.975917  0  0  0.275055  0  0.974981  0  0  0.31206  0.266488  0  0.976574  0
H  H4  1  0.14997823  0.81202211  0.94613443  1  0  0.285472  0  0.919952  0  0  0.271511  0  0.977228  0  0  0.277099  0  0.975159  0  0  0.312771  0.267622  0  0.978696  0
H  H5  1  0.79662614  0.31173992  0.94615370  1  0  0.285691  0  0.920295  0  0  0.271983  0  0.977048  0  0  0.277602  0  0.974898  0  0  0.312919  0.268095  0  0.978533  0
H  H6  1  0.30681541  0.97053212  0.43195169  1  0  0.110408  0  0.95574  0  0  0.11646  0  1.022487  0  0  0.119507  0  1.021063  0  0  0.100486  0.114265  0  1.023543  0
H  H7  1  0.12473377  0.47082981  0.43178124  1  0  0.109791  0  0.956778  0  0  0.115959  0  1.023518  0  0  0.11904  0  1.021997  0  0  0.100221  0.113772  0  1.024568  0
H  H8  1  0.26798714  0.05329746  0.28835729  1  0  0.082778  0  0.989972  0  0  0.09206  0  1.055962  0  0  0.094072  0  1.056514  0  0  0.090224  0.09069  0  1.055511  0
H  H9  1  0.01931839  0.55333406  0.28816478  1  0  0.082802  0  0.989724  0  0  0.092348  0  1.055494  0  0  0.094309  0  1.056093  0  0  0.090318  0.090966  0  1.055061  0
H  H10  1  0.92531063  0.96950538  0.18813350  1  0  0.082644  0  0.979671  0  0  0.09319  0  1.044652  0  0  0.095504  0  1.044278  0  0  0.094486  0.091545  0  1.044964  0
H  H11  1  0.26195428  0.46937673  0.18806441  1  0  0.082633  0  0.979578  0  0  0.093504  0  1.044257  0  0  0.095836  0  1.043877  0  0  0.094585  0.09182  0  1.044622  0
H  H12  1  0.60569397  0.80300879  0.22932820  1  0  0.105338  0  0.949334  0  0  0.118716  0  1.006144  0  0  0.121553  0  1.005091  0  0  0.103844  0.116776  0  1.006779  0
H  H13  1  0.62307005  0.30306680  0.22929911  1  0  0.105729  0  0.949141  0  0  0.11895  0  1.006084  0  0  0.121783  0  1.005017  0  0  0.103802  0.116995  0  1.006732  0
H  H14  1  0.62280687  0.64235290  0.51511225  1  0  0.114693  0  0.927252  0  0  0.126037  0  0.98533  0  0  0.128688  0  0.982463  0  0  0.130524  0.124147  0  0.987283  0
H  H15  1  0.89192324  0.14235869  0.51515502  1  0  0.115582  0  0.92657  0  0  0.126683  0  0.984851  0  0  0.129403  0  0.981943  0  0  0.130955  0.12473  0  0.986854  0
H  H16  1  0.96378568  0.77729090  0.80345815  1  0  0.117431  0  0.951  0  0  0.126787  0  1.011944  0  0  0.129388  0  1.00954  0  0  0.127799  0.124883  0  1.013695  0
H  H17  1  0.83958077  0.27703360  0.80348849  1  0  0.117667  0  0.949438  0  0  0.12723  0  1.01014  0  0  0.12987  0  1.007695  0  0  0.127959  0.125312  0  1.011892  0
H  H18  1  0.07806339  0.71173126  0.10132918  1  0  0.102118  0  0.952245  0  0  0.113744  0  1.011716  0  0  0.116601  0  1.010861  0  0  0.100338  0.111703  0  1.012367  0
H  H19  1  0.02389718  0.21109498  0.10133982  1  0  0.102224  0  0.951697  0  0  0.114019  0  1.01081  0  0  0.116914  0  1.009883  0  0  0.100409  0.111925  0  1.011565  0
H  H20  1  0.80441595  0.54505902  0.16720686  1  0  0.075086  0  0.988532  0  0  0.085877  0  1.054754  0  0  0.088087  0  1.054465  0  0  0.090047  0.084339  0  1.054883  0
H  H21  1  0.36333417  0.04411131  0.16707066  1  0  0.075163  0  0.988228  0  0  0.086253  0  1.054021  0  0  0.08847  0  1.053744  0  0  0.090286  0.084713  0  1.05417  0
H  H22  1  0.46430004  0.40792887  0.08578042  1  0  0.078884  0  0.989806  0  0  0.089966  0  1.05459  0  0  0.091857  0  1.055305  0  0  0.089719  0.088639  0  1.054123  0
H  H23  1  0.62238897  0.90750180  0.08565882  1  0  0.079985  0  0.988675  0  0  0.090718  0  1.053925  0  0  0.092593  0  1.054679  0  0  0.090006  0.089375  0  1.053506  0
H  H24  1  0.38311070  0.43609276  0.93707858  1  0  0.110733  0  0.957463  0  0  0.11737  0  1.022761  0  0  0.120444  0  1.021271  0  0  0.101211  0.115197  0  1.023801  0
H  H25  1  0.55496833  0.93630118  0.93701578  1  0  0.111429  0  0.956851  0  0  0.117644  0  1.022547  0  0  0.120624  0  1.02122  0  0  0.101165  0.115522  0  1.023515  0
H  H26  1  0.71596213  0.07700766  0.66370292  1  0  0.44057  0  0.857722  0  0  0.408039  0  0.922925  0  0  0.418727  0  0.90761  0  0  0.296028  0.400511  0  0.933693  0
H  H27  1  0.94730668  0.57699912  0.66380781  1  0  0.43959  0  0.858973  0  0  0.407614  0  0.923377  0  0  0.41829  0  0.908091  0  0  0.295808  0.400083  0  0.934145  0
H  H28  1  0.84138283  0.90159486  0.66424724  1  0  0.427751  0  0.878053  0  0  0.395358  0  0.943966  0  0  0.405631  0  0.929252  0  0  0.293557  0.388128  0  0.954308  0
H  H29  1  0.82257074  0.40152380  0.66436742  1  0  0.429044  0  0.876435  0  0  0.396659  0  0.942279  0  0  0.406937  0  0.927554  0  0  0.294114  0.389429  0  0.952623  0
C  C30  1  0.97890250  0.83928427  0.41221383  1  0  -0.002715  0  3.808168  0  0  0.005967  0  4.043705  0  0  0.005711  0  4.068992  0  0  -0.020058  0.006217  0  4.026558  0
C  C31  1  0.43289619  0.33958115  0.41216393  1  0  -0.00163  0  3.807293  0  0  0.006635  0  4.041911  0  0  0.006433  0  4.067132  0  0  -0.01964  0.006873  0  4.024798  0
C  C32  1  0.15661004  0.93294550  0.38801616  1  0  -0.110004  0  3.747657  0  0  -0.13131  0  4.003942  0  0  -0.131252  0  4.021187  0  0  -0.097099  -0.131192  0  3.992043  0
C  C33  1  0.23087901  0.43315484  0.38787216  1  0  -0.110099  0  3.748551  0  0  -0.131739  0  4.004911  0  0  -0.131677  0  4.022131  0  0  -0.097563  -0.131627  0  3.993022  0
C  C34  1  0.13294574  0.97846537  0.30742604  1  0  -0.116402  0  3.81578  0  0  -0.130799  0  4.071536  0  0  -0.133419  0  4.092538  0  0  -0.113939  -0.129117  0  4.057183  0
C  C35  1  0.17365688  0.47857945  0.30726927  1  0  -0.115114  0  3.811654  0  0  -0.129659  0  4.067386  0  0  -0.132252  0  4.088418  0  0  -0.113469  -0.127965  0  4.053032  0
C  C36  1  0.93718376  0.93155970  0.25053292  1  0  -0.088331  0  3.809563  0  0  -0.103284  0  4.061789  0  0  -0.104698  0  4.083454  0  0  -0.108078  -0.102219  0  4.047128  0
C  C37  1  0.31272485  0.43159919  0.25047143  1  0  -0.089646  0  3.80957  0  0  -0.104999  0  4.06214  0  0  -0.106443  0  4.083854  0  0  -0.108556  -0.103904  0  4.047434  0
C  C38  1  0.75826823  0.83852882  0.27291752  1  0  -0.168137  0  3.77386  0  0  -0.185187  0  4.026362  0  0  -0.188192  0  4.045427  0  0  -0.101072  -0.183191  0  4.013233  0
C  C39  1  0.51413145  0.33861980  0.27288442  1  0  -0.168146  0  3.774284  0  0  -0.185594  0  4.026414  0  0  -0.188575  0  4.045503  0  0  -0.101256  -0.183586  0  4.013248  0
C  C40  1  0.78159955  0.79395354  0.35371163  1  0  0.170191  0  3.787703  0  0  0.162604  0  4.031992  0  0  0.167849  0  4.053334  0  0  0.08872  0.159327  0  4.017313  0
C  C41  1  0.57176423  0.29417397  0.35371033  1  0  0.170815  0  3.789057  0  0  0.164352  0  4.030939  0  0  0.169554  0  4.052347  0  0  0.089795  0.161077  0  4.016246  0
C  C42  1  0.71942515  0.70067917  0.47343708  1  0  0.114293  0  3.617437  0  0  0.060095  0  3.886313  0  0  0.074477  0  3.897019  0  0  0.04196  0.050817  0  3.878778  0
C  C43  1  0.75358928  0.20073806  0.47344261  1  0  0.112762  0  3.615237  0  0  0.057638  0  3.884456  0  0  0.071957  0  3.895077  0  0  0.040893  0.048427  0  3.876961  0
C  C44  1  0.93502535  0.77860629  0.48846132  1  0  -0.222749  0  3.816896  0  0  -0.211423  0  4.076894  0  0  -0.227473  0  4.101063  0  0  -0.050172  -0.201104  0  4.060744  0
C  C45  1  0.55313439  0.27893334  0.48843297  1  0  -0.223973  0  3.816045  0  0  -0.211786  0  4.075154  0  0  -0.227849  0  4.09935  0  0  -0.050297  -0.201485  0  4.059007  0
C  C46  1  0.07851172  0.79801230  0.56736464  1  0  0.670514  0  3.929082  0  0  0.618767  0  4.215586  0  0  0.654559  0  4.20804  0  0  0.206835  0.594515  0  4.220049  0
C  C47  1  0.48850410  0.29818097  0.56732211  1  0  0.67016  0  3.929438  0  0  0.617811  0  4.216083  0  0  0.653567  0  4.208615  0  0  0.206554  0.59359  0  4.220496  0
C  C48  1  0.54885112  0.55971039  0.78180335  1  0  0.692485  0  3.88878  0  0  0.641067  0  4.172693  0  0  0.678566  0  4.163588  0  0  0.213642  0.615497  0  4.178271  0
C  C49  1  0.23320813  0.05973522  0.78180127  1  0  0.690675  0  3.890473  0  0  0.639999  0  4.173506  0  0  0.677478  0  4.164422  0  0  0.213131  0.614442  0  4.179088  0
C  C50  1  0.69654759  0.62738282  0.85201568  1  0  -0.217389  0  3.805745  0  0  -0.20635  0  4.065497  0  0  -0.22173  0  4.088184  0  0  -0.048354  -0.196343  0  4.050269  0
C  C51  1  0.15594092  0.12745550  0.85202800  1  0  -0.216502  0  3.805404  0  0  -0.206038  0  4.06568  0  0  -0.221341  0  4.088298  0  0  -0.048254  -0.196092  0  4.050511  0
C  C52  1  0.89116998  0.72519926  0.85273526  1  0  0.113258  0  3.596933  0  0  0.061671  0  3.860855  0  0  0.075329  0  3.871702  0  0  0.040173  0.052865  0  3.853318  0
C  C53  1  0.96184825  0.22508457  0.85273828  1  0  0.113336  0  3.596462  0  0  0.061481  0  3.860076  0  0  0.075111  0  3.87095  0  0  0.039646  0.052709  0  3.852534  0
C  C54  1  0.88172348  0.66505481  0.98226223  1  0  0.174364  0  3.787059  0  0  0.166311  0  4.0314  0  0  0.171135  0  4.053326  0  0  0.090177  0.163264  0  4.016506  0
C  C55  1  0.10116231  0.16483862  0.98224153  1  0  0.173561  0  3.788645  0  0  0.165103  0  4.03321  0  0  0.16995  0  4.055171  0  0  0.08938  0.162061  0  4.018285  0
C  C56  1  0.92784508  0.65166519  0.06594137  1  0  -0.165999  0  3.773861  0  0  -0.180088  0  4.020935  0  0  -0.183091  0  4.040612  0  0  -0.10063  -0.17808  0  4.007635  0
C  C57  1  0.13868032  0.15117716  0.06590008  1  0  -0.166114  0  3.772504  0  0  -0.180285  0  4.019896  0  0  -0.183295  0  4.039622  0  0  -0.100426  -0.178265  0  4.00661  0
C  C58  1  0.77447684  0.55812139  0.10204832  1  0  -0.09478  0  3.832261  0  0  -0.109766  0  4.085977  0  0  -0.111757  0  4.108811  0  0  -0.110756  -0.10832  0  4.070478  0
C  C59  1  0.32823306  0.05758430  0.10195287  1  0  -0.094708  0  3.830597  0  0  -0.109906  0  4.084349  0  0  -0.111913  0  4.107153  0  0  -0.111043  -0.108464  0  4.068862  0
C  C60  1  0.57989586  0.48145558  0.05604209  1  0  -0.102073  0  3.813812  0  0  -0.118553  0  4.069048  0  0  -0.121522  0  4.091623  0  0  -0.111792  -0.116605  0  4.053789  0
C  C61  1  0.47680373  0.98100333  0.05594646  1  0  -0.103469  0  3.81353  0  0  -0.119755  0  4.068908  0  0  -0.122715  0  4.091439  0  0  -0.112271  -0.117818  0  4.053675  0
C  C62  1  0.53296747  0.49584969  0.97261177  1  0  -0.119954  0  3.757788  0  0  -0.139088  0  4.011596  0  0  -0.139134  0  4.028635  0  0  -0.100815  -0.138922  0  3.999955  0
C  C63  1  0.44041684  0.99576924  0.97255422  1  0  -0.119121  0  3.758498  0  0  -0.137748  0  4.011879  0  0  -0.137736  0  4.028938  0  0  -0.099642  -0.137621  0  4.000208  0
C  C64  1  0.68629575  0.58778603  0.93452508  1  0  -0.00684  0  3.815315  0  0  0.000287  0  4.051941  0  0  0.000696  0  4.075567  0  0  -0.019857  0.000144  0  4.035869  0
C  C65  1  0.24893778  0.08779406  0.93452296  1  0  -0.006401  0  3.815835  0  0  0.000841  0  4.052327  0  0  0.00124  0  4.075897  0  0  -0.019737  0.000709  0  4.036283  0
N  N66  1  0.63130408  0.70808524  0.39340792  1  0  -0.309767  0  3.452264  0  0  -0.247441  0  3.682637  0  0  -0.265435  0  3.700242  0  0  -0.382777  -0.235388  0  3.670292  0
N  N67  1  0.76175535  0.20826398  0.39344573  1  0  -0.310311  0  3.454072  0  0  -0.247362  0  3.682555  0  0  -0.265355  0  3.70017  0  0  -0.383217  -0.235306  0  3.670194  0
N  N68  1  0.00099629  0.74617137  0.93012465  1  0  -0.306517  0  3.428797  0  0  -0.245747  0  3.661793  0  0  -0.263088  0  3.677661  0  0  -0.38329  -0.234199  0  3.650838  0
N  N69  1  0.92957444  0.24594808  0.93012426  1  0  -0.308279  0  3.432122  0  0  -0.246973  0  3.664021  0  0  -0.264398  0  3.67995  0  0  -0.383875  -0.235411  0  3.653045  0
O  O70  1  0.28516817  0.85817708  0.57198444  1  0  -0.626991  0  1.989504  0  0  -0.557548  0  2.249292  0  0  -0.586066  0  2.2342  0  0  -0.315491  -0.537781  0  2.258954  0
O  O71  1  0.28655106  0.35845372  0.57194153  1  0  -0.625937  0  1.989108  0  0  -0.556448  0  2.248836  0  0  -0.584982  0  2.233837  0  0  -0.3148  -0.536705  0  2.258504  0
O  O72  1  0.99683285  0.75908629  0.63098301  1  0  -0.689061  0  2.042096  0  0  -0.61778  0  2.266986  0  0  -0.64345  0  2.253537  0  0  -0.321823  -0.599897  0  2.275804  0
O  O73  1  0.63377892  0.25906089  0.63095855  1  0  -0.690187  0  2.042608  0  0  -0.618093  0  2.267143  0  0  -0.643767  0  2.253738  0  0  -0.322367  -0.600225  0  2.275937  0
O  O74  1  0.51235435  0.62845733  0.71261139  1  0  -0.679423  0  2.071117  0  0  -0.604297  0  2.348632  0  0  -0.632803  0  2.329199  0  0  -0.329418  -0.584442  0  2.361491  0
O  O75  1  0.20056117  0.12848915  0.71261030  1  0  -0.678569  0  2.07128  0  0  -0.604008  0  2.349051  0  0  -0.632514  0  2.329607  0  0  -0.329436  -0.584149  0  2.361908  0
O  O76  1  0.73319283  0.96929897  0.69005114  1  0  -0.841882  0  1.936917  0  0  -0.771651  0  2.159213  0  0  -0.796193  0  2.124277  0  0  -0.574121  -0.754442  0  2.183305  0
O  O77  1  0.95667391  0.46923683  0.69010731  1  0  -0.841759  0  1.937234  0  0  -0.772139  0  2.159136  0  0  -0.796681  0  2.124146  0  0  -0.574256  -0.754916  0  2.18326  0
O  O78  1  0.45927064  0.42152437  0.79099753  1  0  -0.63874  0  2.034978  0  0  -0.564892  0  2.298023  0  0  -0.594908  0  2.284811  0  0  -0.312216  -0.544097  0  2.30654  0
O  O79  1  0.33199995  0.92151849  0.79102592  1  0  -0.637716  0  2.036549  0  0  -0.564259  0  2.299551  0  0  -0.594232  0  2.286253  0  0  -0.311288  -0.543413  0  2.30795  0
