# generated using pymatgen
data_GaH8C12I3N2O9
_symmetry_space_group_name_H-M   'P 1'
_cell_length_a   11.07157966
_cell_length_b   12.90531670
_cell_length_c   13.53128122
_cell_angle_alpha   114.86611879
_cell_angle_beta   90.00001316
_cell_angle_gamma   90.00001685
_symmetry_Int_Tables_number   1
_chemical_formula_structural   GaH8C12I3N2O9
_chemical_formula_sum   'Ga4 H32 C48 I12 N8 O36'
_cell_volume   1754.14162716
_cell_formula_units_Z   4
loop_
 _symmetry_equiv_pos_site_id
 _symmetry_equiv_pos_as_xyz
  1  'x, y, z'
loop_
 _atom_site_type_symbol
 _atom_site_label
 _atom_site_symmetry_multiplicity
 _atom_site_fract_x
 _atom_site_fract_y
 _atom_site_fract_z
 _atom_site_occupancy
 _atom_site_hle17_bader_spin_density
 _atom_site_hle17_ddec_charge
 _atom_site_hle17_ddec_spin_density
 _atom_site_hle17_ddec_sum_bond_order
 _atom_site_hle17_magmom
 _atom_site_hse06_10hf_bader_spin_density
 _atom_site_hse06_10hf_ddec_charge
 _atom_site_hse06_10hf_ddec_spin_density
 _atom_site_hse06_10hf_ddec_sum_bond_order
 _atom_site_hse06_10hf_magmom
 _atom_site_hse06_bader_spin_density
 _atom_site_hse06_ddec_charge
 _atom_site_hse06_ddec_spin_density
 _atom_site_hse06_ddec_sum_bond_order
 _atom_site_hse06_magmom
 _atom_site_pbe_bader_spin_density
 _atom_site_pbe_cm5_charge
 _atom_site_pbe_ddec_charge
 _atom_site_pbe_ddec_spin_density
 _atom_site_pbe_ddec_sum_bond_order
 _atom_site_pbe_magmom
Ga  Ga0  1  0.27168681  0.54014095  0.75935290  1  0  1.475697  0  2.481528  0  0  1.316702  0  2.910969  0  0  1.372072  0  2.863156  0  0  0.516847  1.278002  0  2.94306  0
Ga  Ga1  1  0.77168683  0.95985991  0.24064729  1  0  1.475692  0  2.481508  0  0  1.316709  0  2.910941  0  0  1.372075  0  2.86313  0  0  0.516853  1.278002  0  2.943038  0
Ga  Ga2  1  0.72831353  0.45985954  0.24064714  1  0  1.475652  0  2.481549  0  0  1.316657  0  2.910997  0  0  1.372027  0  2.863184  0  0  0.516815  1.277945  0  2.94308  0
Ga  Ga3  1  0.22831261  0.04014058  0.75935349  1  0  1.475672  0  2.481553  0  0  1.31668  0  2.910998  0  0  1.372047  0  2.863186  0  0  0.516824  1.277968  0  2.943094  0
H  H4  1  0.00844797  0.56928760  0.85308330  1  0  0.094391  0  0.918693  0  0  0.103902  0  0.978202  0  0  0.10665  0  0.975358  0  0  0.125898  0.101687  0  0.980687  0
H  H5  1  0.50844705  0.93071401  0.14691714  1  0  0.094461  0  0.918615  0  0  0.103928  0  0.978177  0  0  0.106676  0  0.975332  0  0  0.125917  0.101712  0  0.980659  0
H  H6  1  0.99155237  0.43071545  0.14691851  1  0  0.094399  0  0.918689  0  0  0.10389  0  0.978208  0  0  0.106638  0  0.975364  0  0  0.125902  0.101676  0  0.980688  0
H  H7  1  0.49155149  0.06928563  0.85308329  1  0  0.094378  0  0.918686  0  0  0.103887  0  0.978198  0  0  0.106635  0  0.975352  0  0  0.12588  0.101669  0  0.980682  0
H  H8  1  0.91739856  0.64218158  0.04376918  1  0  0.119781  0  0.931134  0  0  0.130054  0  0.987416  0  0  0.133617  0  0.986423  0  0  0.111327  0.127152  0  0.988963  0
H  H9  1  0.41739871  0.85782020  0.95623141  1  0  0.119801  0  0.931205  0  0  0.130065  0  0.987492  0  0  0.133629  0  0.986498  0  0  0.111341  0.127163  0  0.989041  0
H  H10  1  0.08260087  0.35782147  0.95623263  1  0  0.1198  0  0.931177  0  0  0.130068  0  0.987457  0  0  0.133635  0  0.986461  0  0  0.111328  0.12716  0  0.989005  0
H  H11  1  0.58260073  0.14217944  0.04376902  1  0  0.119769  0  0.931139  0  0  0.130028  0  0.987445  0  0  0.133592  0  0.986451  0  0  0.111307  0.127123  0  0.988996  0
H  H12  1  0.05259517  0.71163744  0.20334797  1  0  0.132877  0  0.972704  0  0  0.141449  0  1.031235  0  0  0.145275  0  1.027899  0  0  0.107978  0.138705  0  1.033568  0
H  H13  1  0.55259438  0.78836419  0.79665249  1  0  0.132861  0  0.972711  0  0  0.141445  0  1.031226  0  0  0.145263  0  1.027904  0  0  0.107975  0.138699  0  1.033562  0
H  H14  1  0.94740607  0.28836476  0.79665350  1  0  0.13287  0  0.972738  0  0  0.141448  0  1.031262  0  0  0.145274  0  1.027928  0  0  0.107978  0.138704  0  1.033597  0
H  H15  1  0.44740506  0.21163630  0.20334829  1  0  0.132866  0  0.972723  0  0  0.141438  0  1.031254  0  0  0.145266  0  1.027915  0  0  0.107971  0.138692  0  1.033592  0
H  H16  1  0.27233348  0.75123504  0.27683564  1  0  0.123358  0  0.924681  0  0  0.134491  0  0.979829  0  0  0.13746  0  0.97896  0  0  0.11151  0.132297  0  0.98063  0
H  H17  1  0.77233175  0.74876582  0.72316455  1  0  0.123328  0  0.924698  0  0  0.134468  0  0.979843  0  0  0.137435  0  0.978976  0  0  0.111499  0.13227  0  0.980646  0
H  H18  1  0.72766866  0.24876631  0.72316548  1  0  0.123365  0  0.924672  0  0  0.134498  0  0.979822  0  0  0.137465  0  0.978957  0  0  0.111515  0.132295  0  0.980625  0
H  H19  1  0.22766678  0.25123467  0.27683622  1  0  0.123348  0  0.924688  0  0  0.134484  0  0.979835  0  0  0.137453  0  0.978967  0  0  0.111501  0.13229  0  0.980641  0
H  H20  1  0.49000792  0.73235340  0.23870766  1  0  0.129167  0  0.929664  0  0  0.138288  0  0.990334  0  0  0.141263  0  0.988855  0  0  0.109121  0.136087  0  0.99141  0
H  H21  1  0.99000711  0.76764585  0.76129118  1  0  0.129136  0  0.929708  0  0  0.138273  0  0.99036  0  0  0.141247  0  0.988884  0  0  0.109135  0.136076  0  0.991441  0
H  H22  1  0.50999332  0.26764539  0.76129169  1  0  0.129151  0  0.929701  0  0  0.138286  0  0.99035  0  0  0.14126  0  0.988873  0  0  0.109128  0.136085  0  0.991428  0
H  H23  1  0.00999232  0.23235379  0.23870851  1  0  0.129186  0  0.929722  0  0  0.138324  0  0.990364  0  0  0.141297  0  0.988888  0  0  0.109148  0.136124  0  0.991442  0
H  H24  1  0.66146129  0.66281169  0.09784560  1  0  0.12895  0  0.95888  0  0  0.135143  0  1.024103  0  0  0.139149  0  1.020102  0  0  0.109026  0.132152  0  1.02721  0
H  H25  1  0.16145961  0.83718828  0.90215273  1  0  0.12898  0  0.958891  0  0  0.13517  0  1.024109  0  0  0.139181  0  1.020106  0  0  0.109031  0.132182  0  1.027218  0
H  H26  1  0.33854085  0.33718796  0.90215262  1  0  0.128988  0  0.958865  0  0  0.13517  0  1.024093  0  0  0.139182  0  1.02009  0  0  0.109031  0.132181  0  1.027204  0
H  H27  1  0.83853892  0.16281222  0.09784657  1  0  0.128939  0  0.95889  0  0  0.135137  0  1.024103  0  0  0.139144  0  1.020102  0  0  0.109034  0.132148  0  1.02721  0
H  H28  1  0.72049813  0.57324695  0.89997284  1  0  0.104886  0  0.933891  0  0  0.120438  0  0.982551  0  0  0.1229  0  0.983397  0  0  0.110716  0.117926  0  0.983489  0
H  H29  1  0.22049807  0.92675219  0.10002590  1  0  0.104894  0  0.933878  0  0  0.120444  0  0.982535  0  0  0.122907  0  0.983384  0  0  0.110727  0.117934  0  0.983475  0
H  H30  1  0.27950311  0.42675099  0.10002469  1  0  0.104911  0  0.933921  0  0  0.120441  0  0.982593  0  0  0.122883  0  0.983462  0  0  0.110721  0.11793  0  0.983532  0
H  H31  1  0.77950137  0.07324831  0.89997413  1  0  0.104895  0  0.933875  0  0  0.120443  0  0.98253  0  0  0.12289  0  0.983397  0  0  0.110724  0.117937  0  0.983465  0
H  H32  1  0.55887166  0.51945767  0.75664021  1  0  0.107401  0  0.926343  0  0  0.11345  0  0.98895  0  0  0.116734  0  0.985181  0  0  0.1262  0.11099  0  0.991637  0
H  H33  1  0.05887166  0.98054311  0.24335843  1  0  0.107424  0  0.926384  0  0  0.113444  0  0.98901  0  0  0.116728  0  0.985242  0  0  0.126188  0.110979  0  0.9917  0
H  H34  1  0.44112777  0.48054197  0.24335875  1  0  0.107405  0  0.926311  0  0  0.113426  0  0.988947  0  0  0.11671  0  0.985179  0  0  0.126182  0.110965  0  0.991633  0
H  H35  1  0.94112778  0.01945739  0.75664087  1  0  0.107406  0  0.926322  0  0  0.113429  0  0.988953  0  0  0.116713  0  0.985185  0  0  0.126175  0.110966  0  0.991642  0
C  C36  1  0.06387639  0.59915327  0.92650305  1  0  0.154595  0  3.669459  0  0  0.11601  0  3.931544  0  0  0.125648  0  3.947238  0  0  0.071161  0.110022  0  3.920926  0
C  C37  1  0.56387544  0.90084665  0.07349672  1  0  0.154458  0  3.669528  0  0  0.115898  0  3.931621  0  0  0.125539  0  3.947313  0  0  0.071112  0.10991  0  3.920997  0
C  C38  1  0.93612485  0.40084893  0.07349768  1  0  0.154556  0  3.669471  0  0  0.116016  0  3.931536  0  0  0.125653  0  3.947232  0  0  0.07117  0.110022  0  3.920917  0
C  C39  1  0.43612310  0.09915298  0.92650371  1  0  0.15453  0  3.669578  0  0  0.115941  0  3.931666  0  0  0.125581  0  3.947358  0  0  0.071129  0.109947  0  3.921045  0
C  C40  1  0.01486069  0.63960406  0.03186265  1  0  -0.117646  0  3.72529  0  0  -0.134625  0  3.992404  0  0  -0.142099  0  4.01367  0  0  -0.081359  -0.128984  0  3.977757  0
C  C41  1  0.51485906  0.86039670  0.96813745  1  0  -0.11762  0  3.725417  0  0  -0.134594  0  3.992505  0  0  -0.142067  0  4.013765  0  0  -0.081355  -0.128957  0  3.977862  0
C  C42  1  0.98514146  0.36039814  0.96813808  1  0  -0.117634  0  3.72529  0  0  -0.134618  0  3.992388  0  0  -0.142093  0  4.013654  0  0  -0.081342  -0.128972  0  3.977743  0
C  C43  1  0.48513947  0.13960294  0.03186371  1  0  -0.117551  0  3.725285  0  0  -0.134521  0  3.992383  0  0  -0.141995  0  4.013649  0  0  -0.081302  -0.12888  0  3.977735  0
C  C44  1  0.09088418  0.67921456  0.12136382  1  0  -0.037289  0  3.63163  0  0  -0.062683  0  3.879465  0  0  -0.059734  0  3.895723  0  0  -0.058667  -0.064646  0  3.867794  0
C  C45  1  0.59088343  0.82078538  0.87863670  1  0  -0.037272  0  3.631649  0  0  -0.06264  0  3.879486  0  0  -0.059687  0  3.895749  0  0  -0.058638  -0.064604  0  3.867814  0
C  C46  1  0.90911616  0.32078679  0.87863657  1  0  -0.037327  0  3.631777  0  0  -0.062733  0  3.879622  0  0  -0.059784  0  3.895883  0  0  -0.058714  -0.064699  0  3.867954  0
C  C47  1  0.40911601  0.17921426  0.12136447  1  0  -0.037281  0  3.631683  0  0  -0.062657  0  3.879511  0  0  -0.059708  0  3.895771  0  0  -0.058646  -0.064624  0  3.867844  0
C  C48  1  0.21741265  0.67569083  0.10583315  1  0  0.019877  0  3.806175  0  0  0.035436  0  4.041059  0  0  0.032911  0  4.066069  0  0  0.000397  0.037796  0  4.023959  0
C  C49  1  0.71741190  0.82430915  0.89416741  1  0  0.019909  0  3.806169  0  0  0.035382  0  4.041158  0  0  0.032859  0  4.066168  0  0  0.000373  0.037747  0  4.024047  0
C  C50  1  0.78258950  0.32430966  0.89416762  1  0  0.019927  0  3.806283  0  0  0.035498  0  4.041143  0  0  0.032972  0  4.066154  0  0  0.000454  0.037859  0  4.024035  0
C  C51  1  0.28258664  0.17569048  0.10583376  1  0  0.01991  0  3.806242  0  0  0.035436  0  4.041163  0  0  0.03291  0  4.066175  0  0  0.000401  0.037796  0  4.024052  0
C  C52  1  0.30411845  0.71407965  0.19268260  1  0  -0.092789  0  3.694108  0  0  -0.112429  0  3.941775  0  0  -0.116607  0  3.965129  0  0  -0.074921  -0.109644  0  3.925637  0
C  C53  1  0.80411766  0.78591952  0.80731617  1  0  -0.092788  0  3.694091  0  0  -0.112424  0  3.941802  0  0  -0.1166  0  3.965156  0  0  -0.074925  -0.109634  0  3.925659  0
C  C54  1  0.69588189  0.28591999  0.80731709  1  0  -0.09285  0  3.694176  0  0  -0.112504  0  3.941855  0  0  -0.116683  0  3.965211  0  0  -0.074971  -0.109711  0  3.925707  0
C  C55  1  0.19588087  0.21407926  0.19268317  1  0  -0.092803  0  3.694183  0  0  -0.112441  0  3.941871  0  0  -0.116619  0  3.965225  0  0  -0.07494  -0.109662  0  3.92574  0
C  C56  1  0.42564401  0.70425038  0.17150824  1  0  -0.078122  0  3.684172  0  0  -0.103557  0  3.941484  0  0  -0.106376  0  3.964574  0  0  -0.073969  -0.100956  0  3.925225  0
C  C57  1  0.92564323  0.79574884  0.82849131  1  0  -0.078002  0  3.684163  0  0  -0.103451  0  3.941484  0  0  -0.106263  0  3.964562  0  0  -0.073919  -0.100857  0  3.925233  0
C  C58  1  0.57435723  0.29574840  0.82849184  1  0  -0.078071  0  3.684251  0  0  -0.103516  0  3.941578  0  0  -0.106327  0  3.964654  0  0  -0.073951  -0.100918  0  3.925314  0
C  C59  1  0.07435530  0.20425165  0.17150947  1  0  -0.078113  0  3.684279  0  0  -0.10356  0  3.94162  0  0  -0.106372  0  3.9647  0  0  -0.073956  -0.100958  0  3.925357  0
C  C60  1  0.46985810  0.65496811  0.06172650  1  0  0.019695  0  3.790086  0  0  0.036662  0  4.023962  0  0  0.033446  0  4.049143  0  0  0.002109  0.038641  0  4.007147  0
C  C61  1  0.96985736  0.84503113  0.93827233  1  0  0.01963  0  3.79011  0  0  0.036604  0  4.023974  0  0  0.033388  0  4.049155  0  0  0.002084  0.038584  0  4.007158  0
C  C62  1  0.53014315  0.34503067  0.93827358  1  0  0.019635  0  3.790147  0  0  0.036587  0  4.024019  0  0  0.033371  0  4.049201  0  0  0.002101  0.038567  0  4.007201  0
C  C63  1  0.03014208  0.15496937  0.06172771  1  0  0.019683  0  3.790065  0  0  0.036632  0  4.023975  0  0  0.033417  0  4.049155  0  0  0.002096  0.038616  0  4.007149  0
C  C64  1  0.59370943  0.63719311  0.03342770  1  0  -0.032112  0  3.632313  0  0  -0.063739  0  3.893317  0  0  -0.059857  0  3.909216  0  0  -0.060585  -0.066212  0  3.882748  0
C  C65  1  0.09370868  0.86280683  0.96657134  1  0  -0.032196  0  3.63242  0  0  -0.063828  0  3.89341  0  0  -0.059951  0  3.909314  0  0  -0.060627  -0.066308  0  3.882848  0
C  C66  1  0.40629181  0.36280567  0.96657165  1  0  -0.032116  0  3.632335  0  0  -0.063723  0  3.893295  0  0  -0.059847  0  3.909194  0  0  -0.060578  -0.066205  0  3.882744  0
C  C67  1  0.90628985  0.13719367  0.03342795  1  0  -0.032081  0  3.632291  0  0  -0.063706  0  3.893284  0  0  -0.059824  0  3.909179  0  0  -0.060584  -0.066189  0  3.882728  0
C  C68  1  0.62615298  0.58842351  0.92462728  1  0  -0.123901  0  3.739095  0  0  -0.139898  0  4.002592  0  0  -0.147766  0  4.024723  0  0  -0.080714  -0.134484  0  3.988333  0
C  C69  1  0.12615199  0.91157644  0.07537251  1  0  -0.123864  0  3.739096  0  0  -0.139856  0  4.002576  0  0  -0.147725  0  4.024709  0  0  -0.080704  -0.134442  0  3.988319  0
C  C70  1  0.37384737  0.41157528  0.07537206  1  0  -0.123897  0  3.739135  0  0  -0.139871  0  4.002602  0  0  -0.147723  0  4.024731  0  0  -0.080694  -0.13446  0  3.988353  0
C  C71  1  0.87384654  0.08842490  0.92462787  1  0  -0.123912  0  3.739056  0  0  -0.139894  0  4.002533  0  0  -0.147749  0  4.024664  0  0  -0.080718  -0.134487  0  3.98828  0
C  C72  1  0.53685224  0.55708314  0.84329698  1  0  0.168279  0  3.634973  0  0  0.132768  0  3.892793  0  0  0.142485  0  3.907648  0  0  0.075783  0.126549  0  3.882039  0
C  C73  1  0.03685220  0.94291678  0.15670278  1  0  0.168265  0  3.634994  0  0  0.132781  0  3.8928  0  0  0.1425  0  3.907652  0  0  0.075802  0.126566  0  3.882041  0
C  C74  1  0.46314720  0.44291565  0.15670236  1  0  0.16829  0  3.634946  0  0  0.132803  0  3.892752  0  0  0.142525  0  3.907597  0  0  0.075799  0.126585  0  3.881997  0
C  C75  1  0.96314724  0.05708457  0.84329760  1  0  0.168273  0  3.634995  0  0  0.132784  0  3.892791  0  0  0.142503  0  3.90764  0  0  0.075795  0.126568  0  3.882032  0
C  C76  1  0.25895607  0.63097419  0.99680069  1  0  0.131616  0  3.755825  0  0  0.120894  0  3.995301  0  0  0.125615  0  4.016789  0  0  0.127398  0.117264  0  3.982043  0
C  C77  1  0.75895599  0.86902410  0.00319845  1  0  0.131552  0  3.755732  0  0  0.120867  0  3.995213  0  0  0.125587  0  4.016701  0  0  0.127395  0.117233  0  3.981951  0
C  C78  1  0.74104518  0.36902630  0.00320008  1  0  0.131602  0  3.755745  0  0  0.120883  0  3.995206  0  0  0.125606  0  4.016692  0  0  0.127414  0.11725  0  3.981942  0
C  C79  1  0.24104345  0.13097553  0.99680198  1  0  0.131553  0  3.755776  0  0  0.12086  0  3.995247  0  0  0.125582  0  4.016734  0  0  0.127383  0.117236  0  3.981968  0
C  C80  1  0.38612401  0.61969544  0.97462492  1  0  0.12199  0  3.782246  0  0  0.112242  0  4.021615  0  0  0.116643  0  4.043884  0  0  0.124924  0.108339  0  4.007826  0
C  C81  1  0.88612303  0.88030376  0.02537461  1  0  0.122056  0  3.782192  0  0  0.112302  0  4.021557  0  0  0.116706  0  4.043824  0  0  0.124933  0.108403  0  4.00776  0
C  C82  1  0.61387724  0.38030334  0.02537516  1  0  0.122061  0  3.782196  0  0  0.112342  0  4.021521  0  0  0.116746  0  4.043787  0  0  0.124905  0.108447  0  4.007717  0
C  C83  1  0.11387551  0.11969673  0.97462542  1  0  0.121978  0  3.782313  0  0  0.112211  0  4.021707  0  0  0.116612  0  4.043975  0  0  0.124889  0.10831  0  4.007903  0
I  I84  1  0.29137508  0.74289399  0.66680281  1  0  1.720165  0  4.015321  0  0  1.60969  0  4.601577  0  0  1.671645  0  4.560874  0  0  1.052964  1.564926  0  4.629465  0
I  I85  1  0.79137505  0.75710602  0.33319778  1  0  1.720186  0  4.015291  0  0  1.60972  0  4.601535  0  0  1.671665  0  4.560832  0  0  1.05298  1.564957  0  4.629402  0
I  I86  1  0.70862436  0.25710479  0.33319727  1  0  1.720164  0  4.015322  0  0  1.609712  0  4.601573  0  0  1.671662  0  4.560873  0  0  1.052979  1.56495  0  4.629438  0
I  I87  1  0.20862529  0.24289447  0.66680226  1  0  1.72018  0  4.015231  0  0  1.609707  0  4.601468  0  0  1.671661  0  4.560769  0  0  1.052974  1.564951  0  4.629329  0
I  I88  1  0.07014461  0.41107328  0.55090101  1  0  1.651888  0  4.112545  0  0  1.547824  0  4.702485  0  0  1.609151  0  4.662326  0  0  0.993893  1.503344  0  4.730274  0
I  I89  1  0.57014365  0.08892678  0.44909955  1  0  1.651895  0  4.112489  0  0  1.547842  0  4.702422  0  0  1.60917  0  4.662264  0  0  0.993902  1.503354  0  4.730214  0
I  I90  1  0.92985664  0.58892636  0.44909868  1  0  1.651866  0  4.112571  0  0  1.547792  0  4.702513  0  0  1.609117  0  4.66235  0  0  0.993878  1.503307  0  4.730291  0
I  I91  1  0.42985488  0.91107286  0.55090087  1  0  1.65187  0  4.112576  0  0  1.547809  0  4.702518  0  0  1.609141  0  4.66236  0  0  0.993866  1.503331  0  4.730289  0
I  I92  1  0.43994549  0.38453050  0.52235536  1  0  1.644428  0  4.136337  0  0  1.541644  0  4.724161  0  0  1.601077  0  4.686691  0  0  0.990194  1.498861  0  4.749624  0
I  I93  1  0.93994545  0.11546885  0.47764499  1  0  1.644415  0  4.136293  0  0  1.541637  0  4.724111  0  0  1.601068  0  4.686641  0  0  0.990189  1.498853  0  4.749558  0
I  I94  1  0.56005576  0.61546999  0.47764542  1  0  1.644422  0  4.136311  0  0  1.541644  0  4.724133  0  0  1.601082  0  4.686662  0  0  0.990195  1.498865  0  4.749579  0
I  I95  1  0.06005579  0.88452994  0.52235435  1  0  1.64441  0  4.136343  0  0  1.541631  0  4.724172  0  0  1.601063  0  4.6867  0  0  0.990179  1.498848  0  4.749631  0
N  N96  1  0.18266974  0.59592472  0.91040694  1  0  -0.338954  0  3.308496  0  0  -0.263632  0  3.556441  0  0  -0.283268  0  3.576139  0  0  -0.279134  -0.25086  0  3.543426  0
N  N97  1  0.68266879  0.90407525  0.08959360  1  0  -0.33892  0  3.30838  0  0  -0.263588  0  3.556287  0  0  -0.283227  0  3.575987  0  0  -0.279137  -0.250815  0  3.543266  0
N  N98  1  0.81733061  0.40407663  0.08959344  1  0  -0.33892  0  3.308446  0  0  -0.263632  0  3.556405  0  0  -0.283268  0  3.576103  0  0  -0.279159  -0.250863  0  3.543394  0
N  N99  1  0.31732975  0.09592439  0.91040609  1  0  -0.338907  0  3.308441  0  0  -0.263587  0  3.556378  0  0  -0.283223  0  3.576075  0  0  -0.279112  -0.250816  0  3.543357  0
N  N100  1  0.42021487  0.57259390  0.86877937  1  0  -0.333041  0  3.295596  0  0  -0.262141  0  3.545058  0  0  -0.281502  0  3.565162  0  0  -0.278949  -0.248413  0  3.531004  0
N  N101  1  0.92021394  0.92740617  0.13122052  1  0  -0.33308  0  3.295542  0  0  -0.262177  0  3.544991  0  0  -0.281541  0  3.565096  0  0  -0.278971  -0.248446  0  3.530923  0
N  N102  1  0.57978637  0.42740573  0.13122105  1  0  -0.333143  0  3.295602  0  0  -0.262241  0  3.545035  0  0  -0.281606  0  3.56514  0  0  -0.278976  -0.248506  0  3.53096  0
N  N103  1  0.07978459  0.07259432  0.86878025  1  0  -0.333084  0  3.295685  0  0  -0.262163  0  3.545119  0  0  -0.281525  0  3.565226  0  0  -0.278964  -0.248436  0  3.531055  0
O  O104  1  0.29014853  0.70502536  0.78628179  1  0  -0.774518  0  1.745237  0  0  -0.719842  0  2.021185  0  0  -0.747487  0  2.005581  0  0  -0.409978  -0.699973  0  2.03136  0
O  O105  1  0.79014848  0.79497551  0.21371841  1  0  -0.774539  0  1.745233  0  0  -0.719858  0  2.021158  0  0  -0.747497  0  2.005549  0  0  -0.40999  -0.69999  0  2.031331  0
O  O106  1  0.70985181  0.29497513  0.21371751  1  0  -0.774519  0  1.745197  0  0  -0.719864  0  2.021173  0  0  -0.747508  0  2.00557  0  0  -0.409996  -0.699991  0  2.031338  0
O  O107  1  0.20985186  0.20502584  0.78628271  1  0  -0.774531  0  1.745199  0  0  -0.719851  0  2.021145  0  0  -0.747499  0  2.005546  0  0  -0.409987  -0.699981  0  2.031314  0
O  O108  1  0.12275774  0.53534498  0.67810270  1  0  -0.817439  0  1.795588  0  0  -0.762792  0  2.086681  0  0  -0.787469  0  2.065015  0  0  -0.426174  -0.744765  0  2.100851  0
O  O109  1  0.62275778  0.96465497  0.32189709  1  0  -0.817451  0  1.795553  0  0  -0.762809  0  2.086643  0  0  -0.787484  0  2.064976  0  0  -0.426182  -0.74478  0  2.100814  0
O  O110  1  0.87724260  0.46465381  0.32189739  1  0  -0.817446  0  1.795613  0  0  -0.762775  0  2.0867  0  0  -0.787451  0  2.065032  0  0  -0.426169  -0.744744  0  2.100859  0
O  O111  1  0.37723986  0.03534553  0.67810221  1  0  -0.817408  0  1.795555  0  0  -0.762766  0  2.086656  0  0  -0.787441  0  2.064987  0  0  -0.426152  -0.744736  0  2.100815  0
O  O112  1  0.38595323  0.51017317  0.64428175  1  0  -0.818135  0  1.957496  0  0  -0.754165  0  2.250494  0  0  -0.780188  0  2.229998  0  0  -0.423256  -0.735388  0  2.263764  0
O  O113  1  0.88595419  0.98982690  0.35571739  1  0  -0.818137  0  1.957489  0  0  -0.754173  0  2.25048  0  0  -0.780192  0  2.229981  0  0  -0.423263  -0.735395  0  2.263742  0
O  O114  1  0.61404621  0.48982733  0.35571829  1  0  -0.818121  0  1.957501  0  0  -0.754165  0  2.250516  0  0  -0.780189  0  2.230019  0  0  -0.423251  -0.735383  0  2.263763  0
O  O115  1  0.11404615  0.01017275  0.64428230  1  0  -0.81812  0  1.957484  0  0  -0.754167  0  2.250496  0  0  -0.780185  0  2.229995  0  0  -0.423255  -0.735383  0  2.263751  0
O  O116  1  0.23541201  0.88591318  0.75907967  1  0  -0.789336  0  1.843402  0  0  -0.738159  0  2.135973  0  0  -0.763032  0  2.117781  0  0  -0.412906  -0.720064  0  2.147623  0
O  O117  1  0.73541191  0.61408767  0.24092050  1  0  -0.789311  0  1.843398  0  0  -0.738143  0  2.135975  0  0  -0.763012  0  2.117778  0  0  -0.412903  -0.720059  0  2.147636  0
O  O118  1  0.76458743  0.11408732  0.24092036  1  0  -0.789303  0  1.84339  0  0  -0.738149  0  2.135989  0  0  -0.763018  0  2.117791  0  0  -0.412905  -0.72007  0  2.147659  0
O  O119  1  0.26458753  0.38591283  0.75907880  1  0  -0.789324  0  1.843373  0  0  -0.738149  0  2.135949  0  0  -0.763021  0  2.117754  0  0  -0.412897  -0.72007  0  2.147612  0
O  O120  1  0.11132482  0.45844735  0.44626166  1  0  -0.687791  0  1.578133  0  0  -0.644446  0  1.821321  0  0  -0.669118  0  1.807999  0  0  -0.436469  -0.626929  0  1.830777  0
O  O121  1  0.61132477  0.04155102  0.55373675  1  0  -0.68778  0  1.578145  0  0  -0.64443  0  1.821323  0  0  -0.669102  0  1.808004  0  0  -0.436459  -0.626905  0  1.830768  0
O  O122  1  0.88867643  0.54155058  0.55373734  1  0  -0.687783  0  1.578139  0  0  -0.644438  0  1.821328  0  0  -0.669109  0  1.808005  0  0  -0.436474  -0.626922  0  1.830778  0
O  O123  1  0.38867557  0.95844691  0.44626151  1  0  -0.687781  0  1.578125  0  0  -0.644444  0  1.82132  0  0  -0.669115  0  1.807997  0  0  -0.436467  -0.626926  0  1.830768  0
O  O124  1  0.20710698  0.32000393  0.53098559  1  0  -0.772529  0  1.793074  0  0  -0.718695  0  2.05939  0  0  -0.745828  0  2.04488  0  0  -0.431083  -0.698924  0  2.068905  0
O  O125  1  0.70710696  0.17999619  0.46901355  1  0  -0.772527  0  1.793059  0  0  -0.7187  0  2.059376  0  0  -0.745835  0  2.044868  0  0  -0.431082  -0.698927  0  2.06889  0
O  O126  1  0.79289336  0.67999657  0.46901445  1  0  -0.77251  0  1.793102  0  0  -0.718678  0  2.059418  0  0  -0.745807  0  2.044903  0  0  -0.431057  -0.698902  0  2.068922  0
O  O127  1  0.29289248  0.82000260  0.53098579  1  0  -0.772556  0  1.793153  0  0  -0.718721  0  2.059463  0  0  -0.745863  0  2.044959  0  0  -0.431069  -0.698954  0  2.068982  0
O  O128  1  0.45276398  0.77536849  0.66816709  1  0  -0.760838  0  1.683971  0  0  -0.712337  0  1.938321  0  0  -0.737202  0  1.922444  0  0  -0.439281  -0.694428  0  1.948903  0
O  O129  1  0.95276485  0.72463159  0.33183282  1  0  -0.760858  0  1.683942  0  0  -0.71235  0  1.938286  0  0  -0.737215  0  1.922407  0  0  -0.439296  -0.694444  0  1.948863  0
O  O130  1  0.54723546  0.22463115  0.33183260  1  0  -0.760837  0  1.683952  0  0  -0.712338  0  1.938298  0  0  -0.737206  0  1.922422  0  0  -0.439289  -0.694432  0  1.948877  0
O  O131  1  0.04723459  0.27536891  0.66816722  1  0  -0.760839  0  1.683916  0  0  -0.712339  0  1.938264  0  0  -0.737206  0  1.922389  0  0  -0.439288  -0.694431  0  1.948836  0
O  O132  1  0.45544462  0.27778144  0.57850890  1  0  -0.750555  0  1.649357  0  0  -0.707451  0  1.917435  0  0  -0.73455  0  1.902626  0  0  -0.448069  -0.68769  0  1.927067  0
O  O133  1  0.95544461  0.22221878  0.42149106  1  0  -0.750536  0  1.649339  0  0  -0.70743  0  1.917406  0  0  -0.734529  0  1.902599  0  0  -0.44806  -0.687672  0  1.927034  0
O  O134  1  0.54455572  0.72221991  0.42149148  1  0  -0.75054  0  1.649336  0  0  -0.707429  0  1.9174  0  0  -0.734534  0  1.902597  0  0  -0.448064  -0.687675  0  1.927034  0
O  O135  1  0.04455573  0.77778172  0.57850897  1  0  -0.750535  0  1.649364  0  0  -0.707431  0  1.917451  0  0  -0.734533  0  1.902645  0  0  -0.448065  -0.687679  0  1.927091  0
O  O136  1  0.59434081  0.43786797  0.53862541  1  0  -0.724049  0  1.625686  0  0  -0.686499  0  1.882437  0  0  -0.711663  0  1.868188  0  0  -0.451907  -0.668354  0  1.892085  0
O  O137  1  0.09434163  0.06213210  0.46137443  1  0  -0.724062  0  1.625674  0  0  -0.686502  0  1.882399  0  0  -0.711672  0  1.868165  0  0  -0.451922  -0.668363  0  1.89205  0
O  O138  1  0.40565862  0.56213252  0.46137536  1  0  -0.724045  0  1.625674  0  0  -0.686497  0  1.882422  0  0  -0.711662  0  1.868175  0  0  -0.451916  -0.668362  0  1.89208  0
O  O139  1  0.90565962  0.93786755  0.53862453  1  0  -0.72402  0  1.625674  0  0  -0.686478  0  1.882438  0  0  -0.711637  0  1.86818  0  0  -0.451889  -0.668336  0  1.892089  0
