# generated using pymatgen
data_ZnH24C16(N2O)2
_symmetry_space_group_name_H-M   'P 1'
_cell_length_a   8.61359127
_cell_length_b   12.27311780
_cell_length_c   18.70443027
_cell_angle_alpha   90.00014553
_cell_angle_beta   89.99950035
_cell_angle_gamma   89.99845890
_symmetry_Int_Tables_number   1
_chemical_formula_structural   ZnH24C16(N2O)2
_chemical_formula_sum   'Zn4 H96 C64 N16 O8'
_cell_volume   1977.35044709
_cell_formula_units_Z   4
loop_
 _symmetry_equiv_pos_site_id
 _symmetry_equiv_pos_as_xyz
  1  'x, y, z'
loop_
 _atom_site_type_symbol
 _atom_site_label
 _atom_site_symmetry_multiplicity
 _atom_site_fract_x
 _atom_site_fract_y
 _atom_site_fract_z
 _atom_site_occupancy
 _atom_site_pbe_bader_charge
 _atom_site_pbe_bader_spin_density
 _atom_site_pbe_cm5_charge
 _atom_site_pbe_ddec_charge
 _atom_site_pbe_ddec_spin_density
 _atom_site_pbe_ddec_sum_bond_order
 _atom_site_pbe_magmom
Zn  Zn0  1  0.55361825  0.72762032  0.59793110  1  1.191082  0  0.693949  0.703746  0  2.476821  0
Zn  Zn1  1  0.94638541  0.27238087  0.09793716  1  1.191114  0  0.693934  0.703688  0  2.47696  0
Zn  Zn2  1  0.05360946  0.77237288  0.40206571  1  1.191173  0  0.693965  0.703839  0  2.476703  0
Zn  Zn3  1  0.44638743  0.22762998  0.90206259  1  1.191287  0  0.693958  0.703831  0  2.476669  0
H  H4  1  0.25431706  0.88754564  0.49711294  1  0.055775  0  0.112498  0.071718  0  1.011855  0
H  H5  1  0.24568383  0.11245839  0.99711738  1  0.055895  0  0.112547  0.071737  0  1.011837  0
H  H6  1  0.75432278  0.61245272  0.50288788  1  0.055732  0  0.112484  0.07176  0  1.011779  0
H  H7  1  0.74568385  0.38755625  0.00288103  1  0.055609  0  0.11252  0.071741  0  1.011876  0
H  H8  1  0.38614771  0.54618838  0.38643915  1  0.064262  0  0.095613  0.112215  0  1.028618  0
H  H9  1  0.11385761  0.45380463  0.88644308  1  0.063309  0  0.095598  0.11219  0  1.028593  0
H  H10  1  0.88617890  0.95380260  0.61356596  1  0.063939  0  0.095567  0.112175  0  1.028622  0
H  H11  1  0.61388136  0.04619620  0.11355479  1  0.063669  0  0.095646  0.112204  0  1.028573  0
H  H12  1  0.41349445  0.34380677  0.38219126  1  0.013293  0  0.09309  0.087829  0  1.016116  0
H  H13  1  0.08650630  0.65618704  0.88219030  1  0.013313  0  0.093103  0.087868  0  1.016108  0
H  H14  1  0.91350676  0.15618432  0.61781556  1  0.013394  0  0.093106  0.087907  0  1.015917  0
H  H15  1  0.58651046  0.84381857  0.11780638  1  0.013489  0  0.093114  0.087921  0  1.016101  0
H  H16  1  0.50868793  0.24382578  0.48929396  1  0.071512  0  0.094031  0.08979  0  1.046934  0
H  H17  1  0.99130484  0.75618262  0.98928833  1  0.071501  0  0.094017  0.08972  0  1.046939  0
H  H18  1  0.00869743  0.25617460  0.51071182  1  0.071641  0  0.094044  0.089767  0  1.04687  0
H  H19  1  0.49129294  0.74382919  0.01070886  1  0.071681  0  0.094044  0.089759  0  1.047049  0
H  H20  1  0.56582952  0.34429789  0.60184961  1  0.076151  0  0.0976  0.10845  0  1.049252  0
H  H21  1  0.93416131  0.65571146  0.10184460  1  0.07609  0  0.097586  0.108388  0  1.049377  0
H  H22  1  0.06581713  0.15569489  0.39815540  1  0.076405  0  0.097633  0.108431  0  1.049301  0
H  H23  1  0.43416939  0.84430957  0.89815176  1  0.076243  0  0.097577  0.108363  0  1.049368  0
H  H24  1  0.74104124  0.63353430  0.72656648  1  0.005641  0  0.114194  0.075875  0  0.953464  0
H  H25  1  0.75895186  0.36646330  0.22657238  1  0.005603  0  0.114243  0.075929  0  0.953464  0
H  H26  1  0.24101503  0.86647653  0.27343600  1  0.00572  0  0.114139  0.075853  0  0.953447  0
H  H27  1  0.25895528  0.13354131  0.77343400  1  0.005644  0  0.114168  0.075807  0  0.953556  0
H  H28  1  0.36082144  0.91361847  0.38164118  1  0.0328  0  0.094919  0.058308  0  1.000894  0
H  H29  1  0.13918629  0.08637452  0.88164707  1  0.032842  0  0.094945  0.058369  0  1.000911  0
H  H30  1  0.86082480  0.58637787  0.61835868  1  0.032766  0  0.094917  0.058294  0  1.000892  0
H  H31  1  0.63918313  0.41362584  0.11835552  1  0.032807  0  0.094946  0.058291  0  1.000868  0
H  H32  1  0.32634235  0.07720801  0.46116074  1  0.069598  0  0.086095  0.118729  0  1.042853  0
H  H33  1  0.17366851  0.92278855  0.96116683  1  0.069451  0  0.086045  0.11869  0  1.042859  0
H  H34  1  0.82635177  0.42279044  0.53883949  1  0.069289  0  0.086102  0.11875  0  1.042813  0
H  H35  1  0.67364605  0.57722111  0.03884127  1  0.069508  0  0.086062  0.118701  0  1.042783  0
H  H36  1  0.47350072  0.09739452  0.39583209  1  0.033125  0  0.091202  0.127404  0  0.985094  0
H  H37  1  0.02651951  0.90259446  0.89583820  1  0.033117  0  0.091176  0.127381  0  0.985187  0
H  H38  1  0.97350735  0.40259870  0.60416755  1  0.03306  0  0.091159  0.127378  0  0.985193  0
H  H39  1  0.52649388  0.59740332  0.10417049  1  0.032962  0  0.091154  0.127375  0  0.985178  0
H  H40  1  0.52665710  0.06912998  0.48513113  1  -0.007163  0  0.082791  0.102514  0  1.038808  0
H  H41  1  0.97335664  0.93086048  0.98513763  1  -0.006883  0  0.082798  0.102536  0  1.038752  0
H  H42  1  0.02666333  0.43086029  0.51486763  1  -0.007256  0  0.082811  0.102498  0  1.038829  0
H  H43  1  0.47333742  0.56914677  0.01487034  1  -0.007186  0  0.082818  0.102499  0  1.038769  0
H  H44  1  0.64607735  0.93831280  0.35825312  1  0.022156  0  0.088011  0.124537  0  0.993185  0
H  H45  1  0.85393416  0.06167065  0.85825597  1  0.022085  0  0.088004  0.124529  0  0.993109  0
H  H46  1  0.14608020  0.56166969  0.64174921  1  0.021889  0  0.088017  0.12456  0  0.993127  0
H  H47  1  0.35392047  0.43831913  0.14174469  1  0.022119  0  0.087949  0.124486  0  0.9932  0
H  H48  1  0.60369431  0.80336547  0.38740180  1  0.012461  0  0.083634  0.117509  0  1.006145  0
H  H49  1  0.89631200  0.19662379  0.88740257  1  0.012632  0  0.08367  0.117568  0  1.006124  0
H  H50  1  0.10369720  0.69662351  0.61260070  1  0.012365  0  0.083625  0.117526  0  1.006191  0
H  H51  1  0.39631911  0.30337252  0.11259150  1  0.012599  0  0.083643  0.117573  0  1.006198  0
H  H52  1  0.68905236  0.89960112  0.44668499  1  0.017204  0  0.084482  0.116005  0  1.050963  0
H  H53  1  0.81095747  0.10038266  0.94668327  1  0.017201  0  0.084512  0.115984  0  1.051034  0
H  H54  1  0.18906353  0.60038217  0.55331556  1  0.018017  0  0.084575  0.116115  0  1.051054  0
H  H55  1  0.31095390  0.39961526  0.05331221  1  0.017444  0  0.08449  0.115992  0  1.051032  0
H  H56  1  0.62809196  0.51923453  0.82158688  1  0.031329  0  0.089468  0.048795  0  1.001413  0
H  H57  1  0.87190166  0.48076833  0.32159466  1  0.031156  0  0.089449  0.048876  0  1.001221  0
H  H58  1  0.12806898  0.98075970  0.17841070  1  0.031422  0  0.08944  0.048868  0  1.001298  0
H  H59  1  0.37190660  0.01923577  0.67841341  1  0.031257  0  0.089484  0.048842  0  1.001401  0
H  H60  1  0.36722066  0.69073622  0.82787055  1  0.004601  0  0.087172  0.112243  0  1.024025  0
H  H61  1  0.13277648  0.30926635  0.32786831  1  0.004852  0  0.087163  0.112189  0  1.024008  0
H  H62  1  0.86721466  0.80926082  0.17212875  1  0.004528  0  0.087175  0.112202  0  1.024018  0
H  H63  1  0.63277367  0.19073576  0.67212735  1  0.004652  0  0.087189  0.112236  0  1.024009  0
H  H64  1  0.39688447  0.58695314  0.89072343  1  0.014716  0  0.084276  0.111383  0  1.039397  0
H  H65  1  0.10312657  0.41305130  0.39071773  1  0.014642  0  0.084287  0.111394  0  1.039402  0
H  H66  1  0.89686873  0.91304334  0.10927308  1  0.014439  0  0.084288  0.11142  0  1.039417  0
H  H67  1  0.60311847  0.08694648  0.60927805  1  0.014543  0  0.084267  0.111383  0  1.039358  0
H  H68  1  0.34635771  0.55137161  0.80167722  1  0.042979  0  0.086447  0.120793  0  1.00529  0
H  H69  1  0.15363179  0.44862026  0.30167138  1  0.043005  0  0.086442  0.120766  0  1.005314  0
H  H70  1  0.84634125  0.94862256  0.19831896  1  0.043256  0  0.086506  0.120856  0  1.005221  0
H  H71  1  0.65363614  0.05137086  0.69832580  1  0.042954  0  0.086445  0.12077  0  1.00533  0
H  H72  1  0.80959382  0.67091722  0.84838671  1  0.003536  0  0.079732  0.106143  0  1.040691  0
H  H73  1  0.69040743  0.32908004  0.34839122  1  0.003594  0  0.07978  0.106197  0  1.040693  0
H  H74  1  0.30959108  0.82907928  0.15162084  1  0.003645  0  0.079762  0.106184  0  1.040692  0
H  H75  1  0.19039778  0.17091609  0.65161170  1  0.003433  0  0.0798  0.106261  0  1.040644  0
H  H76  1  0.67179251  0.66165451  0.91804481  1  0.045017  0  0.08423  0.119193  0  1.027591  0
H  H77  1  0.82820974  0.33833487  0.41804771  1  0.045177  0  0.084231  0.119187  0  1.027589  0
H  H78  1  0.17179887  0.83833889  0.08195581  1  0.045052  0  0.084236  0.119209  0  1.027617  0
H  H79  1  0.32819132  0.16164969  0.58195358  1  0.045137  0  0.084188  0.119154  0  1.027623  0
H  H80  1  0.65274450  0.76544237  0.85335919  1  0.058737  0  0.084283  0.11605  0  1.034487  0
H  H81  1  0.84725317  0.23455083  0.35335489  1  0.059251  0  0.084293  0.116076  0  1.034426  0
H  H82  1  0.15274547  0.73455302  0.14664525  1  0.0586  0  0.08429  0.116061  0  1.034465  0
H  H83  1  0.34723537  0.26544151  0.64663617  1  0.058884  0  0.084368  0.116118  0  1.034493  0
H  H84  1  0.43840927  0.74206379  0.72935476  1  0.42934  0  0.300832  0.288812  0  0.936673  0
H  H85  1  0.06159438  0.25795469  0.22935324  1  0.429279  0  0.300844  0.288796  0  0.936732  0
H  H86  1  0.93841150  0.75791723  0.27063945  1  0.429278  0  0.300788  0.288753  0  0.936764  0
H  H87  1  0.56158774  0.24206262  0.77064270  1  0.42921  0  0.300848  0.288754  0  0.936813  0
H  H88  1  0.39443358  0.92327381  0.59156839  1  0.426553  0  0.302269  0.289394  0  0.943891  0
H  H89  1  0.10555991  0.07672214  0.09157121  1  0.426586  0  0.302248  0.289315  0  0.943952  0
H  H90  1  0.89444129  0.57672435  0.40843080  1  0.426567  0  0.30228  0.28935  0  0.943951  0
H  H91  1  0.60555766  0.42328292  0.90842670  1  0.426535  0  0.302287  0.289347  0  0.943918  0
H  H92  1  0.60730869  0.79729674  0.73340537  1  0.427707  0  0.304228  0.301354  0  0.924104  0
H  H93  1  0.89271215  0.20270659  0.23340992  1  0.427827  0  0.304185  0.301314  0  0.924358  0
H  H94  1  0.10732951  0.70270521  0.26659550  1  0.427703  0  0.304235  0.30148  0  0.923843  0
H  H95  1  0.39268737  0.29730201  0.76659111  1  0.427586  0  0.30424  0.301486  0  0.923886  0
H  H96  1  0.56073403  0.91912080  0.54936254  1  0.425576  0  0.298156  0.281279  0  0.962067  0
H  H97  1  0.93926127  0.08088508  0.04936777  1  0.425611  0  0.29814  0.281253  0  0.96205  0
H  H98  1  0.06074557  0.58087062  0.45063478  1  0.425426  0  0.298188  0.281272  0  0.962013  0
H  H99  1  0.43925620  0.41913486  0.95063789  1  0.425364  0  0.298158  0.281216  0  0.962092  0
C  C100  1  0.37482837  0.86055624  0.48890553  1  0.285525  0  0.002628  0.025151  0  3.794032  0
C  C101  1  0.12517152  0.13944206  0.98890783  1  0.285362  0  0.002574  0.025104  0  3.794269  0
C  C102  1  0.87483638  0.63944229  0.51109320  1  0.285698  0  0.002624  0.024968  0  3.79387  0
C  C103  1  0.62517474  0.36056671  0.01108893  1  0.286477  0  0.00249  0.024785  0  3.794234  0
C  C104  1  0.36586133  0.73992597  0.46773132  1  1.392651  0  0.222398  0.449294  0  4.121461  0
C  C105  1  0.13414129  0.26007143  0.96773057  1  1.392619  0  0.222378  0.449329  0  4.121512  0
C  C106  1  0.86586548  0.76007028  0.53226959  1  1.392894  0  0.222385  0.449387  0  4.121362  0
C  C107  1  0.63415684  0.23993717  0.03226401  1  1.392508  0  0.22248  0.449517  0  4.121224  0
C  C108  1  0.45918564  0.55906971  0.49610180  1  0.320197  0  0.073844  0.140914  0  4.049607  0
C  C109  1  0.04082224  0.44092943  0.99610601  1  0.320183  0  0.07387  0.14086  0  4.049459  0
C  C110  1  0.95917877  0.94092722  0.50389927  1  0.320042  0  0.073893  0.140942  0  4.049526  0
C  C111  1  0.54084990  0.05908012  0.00389162  1  0.320112  0  0.073956  0.140847  0  4.049837  0
C  C112  1  0.42504827  0.50129079  0.43326002  1  -0.015943  0  -0.113381  -0.191482  0  4.025852  0
C  C113  1  0.07496080  0.49870892  0.93326312  1  -0.014944  0  -0.113373  -0.191395  0  4.025698  0
C  C114  1  0.92505774  0.99870597  0.56674332  1  -0.015704  0  -0.113346  -0.19145  0  4.025873  0
C  C115  1  0.57498135  0.00129835  0.06673384  1  -0.014603  0  -0.113542  -0.191495  0  4.025865  0
C  C116  1  0.44099270  0.38803498  0.43117964  1  -0.002165  0  -0.111804  -0.104544  0  4.095164  0
C  C117  1  0.05900712  0.61196554  0.93118032  1  -0.002082  0  -0.111816  -0.104599  0  4.095304  0
C  C118  1  0.94100067  0.11195967  0.56882494  1  -0.002397  0  -0.11181  -0.104628  0  4.095177  0
C  C119  1  0.55901864  0.88804222  0.06881808  1  -0.002794  0  -0.111741  -0.104599  0  4.095231  0
C  C120  1  0.49291929  0.33170825  0.49139784  1  -0.17365  0  -0.105152  -0.089937  0  4.06053  0
C  C121  1  0.00708404  0.66829576  0.99139829  1  -0.173697  0  -0.105148  -0.089915  0  4.060433  0
C  C122  1  0.99291347  0.16828949  0.50860653  1  -0.17355  0  -0.105154  -0.08993  0  4.060522  0
C  C123  1  0.50708609  0.83171379  0.00860245  1  -0.173594  0  -0.105215  -0.090034  0  4.060687  0
C  C124  1  0.52585511  0.38732147  0.55458874  1  0.04677  0  -0.106154  -0.180869  0  4.002291  0
C  C125  1  0.97413081  0.61267954  0.05458670  1  0.047034  0  -0.106148  -0.180785  0  4.002344  0
C  C126  1  0.02585508  0.11266962  0.44541858  1  0.046866  0  -0.106141  -0.180808  0  4.002205  0
C  C127  1  0.47415028  0.88733258  0.94541271  1  0.046672  0  -0.106029  -0.180564  0  4.002262  0
C  C128  1  0.50842811  0.50084374  0.55874457  1  0.414588  0  0.084915  0.16968  0  4.04262  0
C  C129  1  0.99157166  0.49915811  0.05875028  1  0.414394  0  0.084814  0.169611  0  4.042849  0
C  C130  1  0.00840990  0.99915357  0.44125457  1  0.414762  0  0.084882  0.169756  0  4.042336  0
C  C131  1  0.49159786  0.00084943  0.94124982  1  0.414507  0  0.084849  0.16963  0  4.042479  0
C  C132  1  0.56234344  0.53145346  0.68549413  1  1.410314  0  0.212961  0.450248  0  4.150596  0
C  C133  1  0.93763419  0.46855784  0.18549681  1  1.410295  0  0.213076  0.450714  0  4.150222  0
C  C134  1  0.06228817  0.96854527  0.31450211  1  1.410514  0  0.213086  0.450513  0  4.150014  0
C  C135  1  0.43766395  0.03145561  0.81450244  1  1.410305  0  0.21302  0.450368  0  4.150347  0
C  C136  1  0.61438680  0.62710358  0.73492464  1  0.308217  0  0.002465  0.030392  0  3.78725  0
C  C137  1  0.88560499  0.37290058  0.23492683  1  0.308196  0  0.00239  0.030289  0  3.787267  0
C  C138  1  0.11436050  0.87289662  0.26507300  1  0.308093  0  0.002603  0.030256  0  3.78751  0
C  C139  1  0.38560997  0.12710734  0.76507423  1  0.308294  0  0.002476  0.030424  0  3.787375  0
C  C140  1  0.44198782  0.92792141  0.42602516  1  0.051509  0  -0.090583  0.072895  0  3.87158  0
C  C141  1  0.05802023  0.07206850  0.92602922  1  0.051251  0  -0.090732  0.072618  0  3.871942  0
C  C142  1  0.94199605  0.57207258  0.57397437  1  0.051153  0  -0.0906  0.072896  0  3.871121  0
C  C143  1  0.55801504  0.42793258  0.07397209  1  0.051141  0  -0.090647  0.072939  0  3.87131  0
C  C144  1  0.44123358  0.04957414  0.44323425  1  -0.105139  0  -0.246238  -0.394031  0  3.929693  0
C  C145  1  0.05877995  0.95041828  0.94324138  1  -0.104916  0  -0.246078  -0.393857  0  3.929687  0
C  C146  1  0.94124043  0.45041806  0.55676498  1  -0.104325  0  -0.246178  -0.39394  0  3.929573  0
C  C147  1  0.55875937  0.54958623  0.05676717  1  -0.104619  0  -0.246141  -0.393894  0  3.929483  0
C  C148  1  0.60373547  0.88951069  0.40347667  1  -0.057012  0  -0.250046  -0.392066  0  3.914785  0
C  C149  1  0.89627518  0.11047864  0.90347730  1  -0.057133  0  -0.250063  -0.392043  0  3.914863  0
C  C150  1  0.10374776  0.61047748  0.59652636  1  -0.057466  0  -0.250146  -0.392212  0  3.914715  0
C  C151  1  0.39626886  0.38952012  0.09652051  1  -0.05724  0  -0.249974  -0.392062  0  3.914894  0
C  C152  1  0.58739310  0.60376924  0.81458228  1  0.033588  0  -0.096872  0.069473  0  3.90341  0
C  C153  1  0.91259718  0.39623277  0.31458386  1  0.033981  0  -0.096849  0.069441  0  3.903421  0
C  C154  1  0.08737787  0.89622575  0.18541440  1  0.034001  0  -0.096946  0.069362  0  3.903447  0
C  C155  1  0.41260223  0.10377056  0.68541655  1  0.033644  0  -0.096906  0.069343  0  3.903541  0
C  C156  1  0.41511742  0.60812107  0.83430950  1  -0.082802  0  -0.247569  -0.396926  0  3.931741  0
C  C157  1  0.08487495  0.39188152  0.33430759  1  -0.083261  0  -0.247585  -0.396862  0  3.931719  0
C  C158  1  0.91510722  0.89187669  0.16568693  1  -0.082976  0  -0.247589  -0.396896  0  3.931656  0
C  C159  1  0.58488123  0.10812149  0.66569147  1  -0.082592  0  -0.24758  -0.396873  0  3.931759  0
C  C160  1  0.68565220  0.67965214  0.86091021  1  -0.09772  0  -0.253038  -0.401259  0  3.934791  0
C  C161  1  0.81434997  0.32034354  0.36091099  1  -0.098426  0  -0.2531  -0.401418  0  3.934973  0
C  C162  1  0.18565236  0.82034263  0.13909196  1  -0.097749  0  -0.253032  -0.401291  0  3.93499  0
C  C163  1  0.31433559  0.17965106  0.63908822  1  -0.097953  0  -0.253138  -0.401384  0  3.935009  0
N  N164  1  0.45932177  0.87735814  0.55728704  1  -1.126771  0  -0.614567  -0.561749  0  3.326424  0
N  N165  1  0.04067933  0.12264256  0.05729073  1  -1.126869  0  -0.61454  -0.561607  0  3.326388  0
N  N166  1  0.95933288  0.62264041  0.44270869  1  -1.126744  0  -0.614606  -0.561668  0  3.326238  0
N  N167  1  0.54067006  0.37736943  0.94270851  1  -1.126704  0  -0.614576  -0.561563  0  3.326257  0
N  N168  1  0.45548227  0.67255682  0.50333655  1  -1.342295  0  -0.386704  -0.462414  0  3.616697  0
N  N169  1  0.04453378  0.32744531  0.00334324  1  -1.34217  0  -0.386568  -0.462311  0  3.616643  0
N  N170  1  0.95548453  0.82743937  0.49666507  1  -1.342217  0  -0.386667  -0.462423  0  3.616623  0
N  N171  1  0.54454758  0.17256580  0.99665705  1  -1.34283  0  -0.386757  -0.4625  0  3.616811  0
N  N172  1  0.54169700  0.56463336  0.61802142  1  -1.34228  0  -0.401478  -0.486803  0  3.622279  0
N  N173  1  0.95830861  0.43537198  0.11802663  1  -1.342565  0  -0.401535  -0.487028  0  3.622193  0
N  N174  1  0.04166378  0.93536250  0.38197598  1  -1.342809  0  -0.401528  -0.486939  0  3.621893  0
N  N175  1  0.45833698  0.06463945  0.88197200  1  -1.34245  0  -0.4014  -0.486782  0  3.621997  0
N  N176  1  0.54936914  0.73322225  0.71069531  1  -1.109633  0  -0.616144  -0.570366  0  3.346881  0
N  N177  1  0.95063355  0.26678589  0.21069385  1  -1.109572  0  -0.616057  -0.570255  0  3.347203  0
N  N178  1  0.04936618  0.76677510  0.28930099  1  -1.109709  0  -0.616154  -0.570431  0  3.346961  0
N  N179  1  0.45062705  0.23322487  0.78930053  1  -1.109486  0  -0.616176  -0.570427  0  3.346852  0
O  O180  1  0.27256440  0.71418105  0.41674357  1  -1.1934  0  -0.333628  -0.53361  0  2.34793  0
O  O181  1  0.22743802  0.28581370  0.91674195  1  -1.193455  0  -0.333698  -0.533626  0  2.347877  0
O  O182  1  0.77255848  0.78581533  0.58325504  1  -1.193708  0  -0.333652  -0.53364  0  2.347829  0
O  O183  1  0.72745243  0.21419476  0.08325653  1  -1.193617  0  -0.333644  -0.53361  0  2.347808  0
O  O184  1  0.55155392  0.43687292  0.71095489  1  -1.182572  0  -0.339095  -0.552089  0  2.127211  0
O  O185  1  0.94841046  0.56313359  0.21096035  1  -1.182472  0  -0.339106  -0.552255  0  2.127222  0
O  O186  1  0.05148097  0.06312421  0.28904270  1  -1.182749  0  -0.339198  -0.552252  0  2.126884  0
O  O187  1  0.44843448  0.93687169  0.78904183  1  -1.182551  0  -0.33914  -0.552177  0  2.126992  0
