# generated using pymatgen
data_CuH9C7SN3O
_symmetry_space_group_name_H-M   'P 1'
_cell_length_a   9.16790688
_cell_length_b   9.93560362
_cell_length_c   11.06153484
_cell_angle_alpha   89.99948742
_cell_angle_beta   89.99997207
_cell_angle_gamma   112.13317505
_symmetry_Int_Tables_number   1
_chemical_formula_structural   CuH9C7SN3O
_chemical_formula_sum   'Cu4 H36 C28 S4 N12 O4'
_cell_volume   933.33272376
_cell_formula_units_Z   4
loop_
 _symmetry_equiv_pos_site_id
 _symmetry_equiv_pos_as_xyz
  1  'x, y, z'
loop_
 _atom_site_type_symbol
 _atom_site_label
 _atom_site_symmetry_multiplicity
 _atom_site_fract_x
 _atom_site_fract_y
 _atom_site_fract_z
 _atom_site_occupancy
 _atom_site_pbe_bader_charge
 _atom_site_pbe_bader_spin_density
 _atom_site_pbe_cm5_charge
 _atom_site_pbe_ddec_charge
 _atom_site_pbe_ddec_spin_density
 _atom_site_pbe_ddec_sum_bond_order
 _atom_site_pbe_magmom
Cu  Cu0  1  0.46581730  0.45568729  0.63586429  1  1.008429  -0.237089  0.721878  0.755601  -0.297622  2.46545  -0.237
Cu  Cu1  1  0.03417677  0.04431866  0.13587406  1  1.008691  0.237064  0.721852  0.755624  0.29759  2.465113  0.237
Cu  Cu2  1  0.53417993  0.54431978  0.36412635  1  1.008678  0.237092  0.721841  0.755569  0.297625  2.465208  0.237
Cu  Cu3  1  0.96582067  0.95568623  0.86413557  1  1.008465  -0.237061  0.72186  0.755531  -0.297587  2.465483  -0.237
H  H4  1  0.22524901  0.50458932  0.57944860  1  0.474768  0.000112  0.291963  0.285718  0.000149  1.017713  0.0
H  H5  1  0.27473863  0.99541302  0.07944408  1  0.4747  -0.000112  0.291963  0.285727  -0.000149  1.01768  0.0
H  H6  1  0.77474907  0.49541449  0.42055470  1  0.474373  -0.000112  0.291969  0.285744  -0.000149  1.017672  0.0
H  H7  1  0.72525484  0.00458753  0.92055651  1  0.47467  0.000112  0.291959  0.285724  0.000149  1.017691  0.0
H  H8  1  0.06288314  0.52273415  0.65045399  1  0.483862  8.4e-05  0.280636  0.291148  3.5e-05  1.014165  0.0
H  H9  1  0.43710714  0.97726939  0.15044339  1  0.484002  -8.4e-05  0.280703  0.291191  -3.5e-05  1.014203  0.0
H  H10  1  0.93711450  0.47726857  0.34955022  1  0.483931  -8.4e-05  0.280666  0.29115  -3.5e-05  1.014178  0.0
H  H11  1  0.56288629  0.02272572  0.84954906  1  0.483939  8.4e-05  0.280657  0.291149  3.5e-05  1.014215  0.0
H  H12  1  0.08469968  0.63129108  0.84968488  1  0.083543  -0.000608  0.101836  0.120557  -0.000281  1.043575  0.0
H  H13  1  0.41530040  0.86870736  0.34967528  1  0.083501  0.000608  0.101816  0.120584  0.000281  1.043479  0.0
H  H14  1  0.91530099  0.36870838  0.15032113  1  0.0835  0.000608  0.101853  0.120591  0.000281  1.043502  0.0
H  H15  1  0.58470156  0.13128992  0.65032350  1  0.083563  -0.000608  0.101807  0.120535  -0.000281  1.043566  0.0
H  H16  1  0.24257439  0.70538615  0.03922615  1  0.085701  -5.4e-05  0.103014  0.103226  -2.6e-05  1.009025  0.0
H  H17  1  0.25743372  0.79461284  0.53922380  1  0.085762  5.4e-05  0.103008  0.103206  2.6e-05  1.009002  0.0
H  H18  1  0.75742910  0.29461222  0.96077624  1  0.085755  5.4e-05  0.103009  0.103239  2.6e-05  1.008999  0.0
H  H19  1  0.74257042  0.20538444  0.46077589  1  0.085786  -5.4e-05  0.10299  0.103181  -2.6e-05  1.008982  0.0
H  H20  1  0.51036689  0.68901974  0.04839133  1  0.096555  -0.000388  0.0981  0.109935  -0.000182  1.05246  0.0
H  H21  1  0.98963973  0.81097920  0.54840035  1  0.096494  0.000388  0.098064  0.109867  0.000182  1.052511  0.0
H  H22  1  0.48963418  0.31097537  0.95160473  1  0.096519  0.000388  0.098095  0.109934  0.000182  1.052496  0.0
H  H23  1  0.01036154  0.18901373  0.45160385  1  0.096636  -0.000388  0.09808  0.109914  -0.000182  1.052439  0.0
H  H24  1  0.60270078  0.59185716  0.86758047  1  0.085053  -0.001017  0.11138  0.080244  -0.000446  1.034455  -0.001
H  H25  1  0.89729825  0.90814234  0.36759008  1  0.084733  0.001017  0.111355  0.080264  0.000446  1.034411  0.001
H  H26  1  0.39729880  0.40814230  0.13241650  1  0.084763  0.001017  0.111375  0.080271  0.000446  1.034404  0.001
H  H27  1  0.10270108  0.09185386  0.63241503  1  0.085024  -0.001017  0.111357  0.080237  -0.000446  1.034461  -0.001
H  H28  1  0.57061549  0.83783863  0.48702536  1  0.043893  -0.002761  0.089258  0.093697  -0.001418  1.03287  -0.002
H  H29  1  0.92939696  0.66217519  0.98703247  1  0.043801  0.002761  0.089237  0.093694  0.001418  1.032814  0.002
H  H30  1  0.42939140  0.16217603  0.51297162  1  0.043954  0.002761  0.089246  0.093671  0.001418  1.03277  0.002
H  H31  1  0.07059462  0.33783405  0.01297264  1  0.04365  -0.002761  0.089247  0.09367  -0.001417  1.032874  -0.002
H  H32  1  0.70870770  0.80216406  0.58265975  1  0.023849  -2.6e-05  0.081891  0.088172  2e-06  1.014736  0.0
H  H33  1  0.79129101  0.69782625  0.08266854  1  0.023588  2.6e-05  0.081911  0.088166  -2e-06  1.014761  0.0
H  H34  1  0.29128380  0.19783432  0.41734084  1  0.023732  2.6e-05  0.081882  0.088115  -2e-06  1.014836  0.0
H  H35  1  0.20869900  0.30217647  0.91734199  1  0.023966  -2.6e-05  0.081955  0.088205  2e-06  1.014757  0.0
H  H36  1  0.52147804  0.78849836  0.64037160  1  0.0295  0.001969  0.087412  0.092631  0.001025  1.020658  0.001
H  H37  1  0.97851760  0.71148989  0.14038551  1  0.029301  -0.001969  0.087394  0.09258  -0.001025  1.020608  -0.001
H  H38  1  0.47850574  0.21148916  0.35961723  1  0.029405  -0.001969  0.087409  0.092627  -0.001025  1.020579  -0.001
H  H39  1  0.02146638  0.28849545  0.85962502  1  0.029358  0.001968  0.087394  0.092597  0.001024  1.020655  0.001
C  C40  1  0.35564904  0.15924042  0.76339079  1  0.542261  0.000516  0.150235  0.269378  3e-06  4.341807  -0.002
C  C41  1  0.14435466  0.34076791  0.26339896  1  0.542122  -0.000516  0.150225  0.269279  -3e-06  4.34211  0.002
C  C42  1  0.64435543  0.84077099  0.23660166  1  0.542135  -0.000516  0.150233  0.269321  -3e-06  4.342121  0.002
C  C43  1  0.85564743  0.65924567  0.73660614  1  0.541932  0.000515  0.150183  0.269263  2e-06  4.342172  -0.002
C  C44  1  0.25918729  0.57039787  0.75852082  1  0.983335  -0.000884  0.228682  0.446026  -0.000853  4.062035  -0.001
C  C45  1  0.24081104  0.92960150  0.25851836  1  0.982494  0.000884  0.228605  0.445858  0.000853  4.062183  0.001
C  C46  1  0.74081382  0.42960267  0.24147977  1  0.982902  0.000884  0.228617  0.445946  0.000853  4.062037  0.001
C  C47  1  0.75919156  0.07039469  0.74148223  1  0.983595  -0.000883  0.228581  0.445809  -0.000853  4.06217  -0.001
C  C48  1  0.19923418  0.62293149  0.85808883  1  0.079978  -0.001879  -0.099931  -0.229938  -0.001334  3.910813  -0.001
C  C49  1  0.30076546  0.87706588  0.35808636  1  0.080528  0.001878  -0.099941  -0.229962  0.001333  3.910895  0.001
C  C50  1  0.80076714  0.37706688  0.14191176  1  0.08047  0.001879  -0.099942  -0.229967  0.001334  3.910926  0.001
C  C51  1  0.69923561  0.12292923  0.64191423  1  0.07958  -0.00188  -0.099935  -0.229891  -0.001334  3.910928  -0.001
C  C52  1  0.28797898  0.66477748  0.96221957  1  -0.143051  0.000842  -0.074319  -0.004844  0.00053  3.989848  0.001
C  C53  1  0.21202700  0.83522224  0.46222058  1  -0.143267  -0.000841  -0.074296  -0.004822  -0.00053  3.989805  -0.001
C  C54  1  0.71202495  0.33522197  0.03778012  1  -0.143212  -0.000842  -0.074316  -0.004835  -0.00053  3.989894  -0.001
C  C55  1  0.78797560  0.16477396  0.53778182  1  -0.143395  0.000841  -0.074272  -0.004786  0.00053  3.98977  0.001
C  C56  1  0.43732913  0.65639032  0.96800633  1  0.018931  -0.001919  -0.111658  -0.181215  -0.0013  4.023696  -0.002
C  C57  1  0.06267685  0.84360941  0.46801539  1  0.018892  0.001919  -0.111625  -0.181063  0.0013  4.023701  0.002
C  C58  1  0.56267282  0.34360696  0.03198883  1  0.018911  0.001919  -0.11165  -0.181207  0.0013  4.023788  0.002
C  C59  1  0.93732684  0.15638679  0.53199153  1  0.019118  -0.001919  -0.111642  -0.181184  -0.0013  4.023586  -0.002
C  C60  1  0.48903627  0.60315072  0.86830452  1  0.449398  0.000275  0.037522  0.098277  -3.7e-05  3.990701  0.0
C  C61  1  0.01096425  0.89684884  0.36831539  1  0.449742  -0.000275  0.037528  0.098156  3.7e-05  3.990638  0.0
C  C62  1  0.51096395  0.39684765  0.13168883  1  0.449708  -0.000275  0.037476  0.098127  3.7e-05  3.99067  0.0
C  C63  1  0.98903617  0.10314735  0.63169243  1  0.449389  0.000275  0.03754  0.098232  -3.7e-05  3.990623  0.0
C  C64  1  0.58263708  0.76882481  0.56082222  1  0.434698  -0.000241  -0.176347  -0.13506  -0.000241  3.994236  0.0
C  C65  1  0.91736211  0.73117199  0.06083310  1  0.435311  0.000242  -0.176343  -0.135033  0.000241  3.99405  0.0
C  C66  1  0.41735595  0.23117465  0.43917204  1  0.434794  0.000241  -0.176338  -0.134964  0.000241  3.993931  0.0
C  C67  1  0.08262810  0.26882857  0.93917563  1  0.43494  -0.000241  -0.176353  -0.134994  -0.000241  3.994  0.0
S  S68  1  0.29215877  0.99927259  0.82461278  1  0.077383  0.001033  -0.133568  -0.322831  0.000565  2.429277  0.0
S  S69  1  0.20784926  0.50073993  0.32461329  1  0.077151  -0.001034  -0.1336  -0.322856  -0.000565  2.429374  0.0
S  S70  1  0.70784945  0.00074534  0.17538690  1  0.077067  -0.001034  -0.133647  -0.322917  -0.000565  2.429367  0.0
S  S71  1  0.79215355  0.49928343  0.67537464  1  0.077782  0.001032  -0.133577  -0.322834  0.000564  2.429393  0.0
N  N72  1  0.40352798  0.27473556  0.71618837  1  -1.312405  -0.02335  -0.438023  -0.502529  -0.015649  3.435625  -0.019
N  N73  1  0.09647661  0.22527486  0.21620038  1  -1.31214  0.023344  -0.437994  -0.502427  0.015646  3.435621  0.019
N  N74  1  0.59647867  0.72527585  0.28379956  1  -1.312046  0.023347  -0.437955  -0.502391  0.015648  3.43567  0.019
N  N75  1  0.90352980  0.77473328  0.78381557  1  -1.312479  -0.023347  -0.437961  -0.502384  -0.015648  3.435818  -0.019
N  N76  1  0.40262489  0.55984191  0.76644654  1  -1.233593  -0.03643  -0.367464  -0.343576  -0.0235  3.578708  -0.031
N  N77  1  0.09737191  0.94015640  0.26645390  1  -1.23342  0.036427  -0.367396  -0.343506  0.023498  3.578472  0.031
N  N78  1  0.59737513  0.44015864  0.23354772  1  -1.23347  0.03643  -0.367415  -0.343474  0.0235  3.578378  0.031
N  N79  1  0.90262852  0.05983980  0.73355301  1  -1.233609  -0.036427  -0.367386  -0.343436  -0.023498  3.578561  -0.031
N  N80  1  0.17658010  0.52937270  0.65456455  1  -1.314767  0.00011  -0.58119  -0.629732  0.000116  3.403289  0.0
N  N81  1  0.32341212  0.97062758  0.15455863  1  -1.314426  -0.00011  -0.581227  -0.629715  -0.000116  3.403492  0.0
N  N82  1  0.82342061  0.47063219  0.34543694  1  -1.314445  -0.00011  -0.58118  -0.629696  -0.000116  3.40341  0.0
N  N83  1  0.67658592  0.02937079  0.84543924  1  -1.314503  0.00011  -0.581169  -0.62966  0.000116  3.403484  0.0
O  O84  1  0.51423527  0.62045996  0.52573798  1  -0.997267  -0.009092  -0.401275  -0.484848  -0.005624  2.579232  -0.008
O  O85  1  0.98575762  0.87954005  0.02574625  1  -0.99761  0.009093  -0.401251  -0.484803  0.005625  2.579061  0.008
O  O86  1  0.48575866  0.37954168  0.47425628  1  -0.997532  0.009093  -0.401259  -0.484876  0.005624  2.579136  0.008
O  O87  1  0.01423759  0.12045942  0.97425977  1  -0.997304  -0.009091  -0.401304  -0.484904  -0.005623  2.579105  -0.008
