# generated using pymatgen
data_LiErH40(C6N)8
_symmetry_space_group_name_H-M   'P 1'
_cell_length_a   9.01146975
_cell_length_b   12.94979315
_cell_length_c   20.09236683
_cell_angle_alpha   90.00041735
_cell_angle_beta   89.99895143
_cell_angle_gamma   108.19138143
_symmetry_Int_Tables_number   1
_chemical_formula_structural   LiErH40(C6N)8
_chemical_formula_sum   'Li2 Er2 H80 C96 N16'
_cell_volume   2227.52127465
_cell_formula_units_Z   2
loop_
 _symmetry_equiv_pos_site_id
 _symmetry_equiv_pos_as_xyz
  1  'x, y, z'
loop_
 _atom_site_type_symbol
 _atom_site_label
 _atom_site_symmetry_multiplicity
 _atom_site_fract_x
 _atom_site_fract_y
 _atom_site_fract_z
 _atom_site_occupancy
 _atom_site_pbe_bader_charge
 _atom_site_pbe_bader_spin_density
 _atom_site_pbe_cm5_charge
 _atom_site_pbe_ddec_charge
 _atom_site_pbe_ddec_spin_density
 _atom_site_pbe_ddec_sum_bond_order
 _atom_site_pbe_magmom
Li  Li0  1  0.25702213  0.23214076  0.18793106  1  0.864855  0  0.461701  0.765886  0  0.531  0
Li  Li1  1  0.74297904  0.76785353  0.68792967  1  0.864837  0  0.461723  0.765942  0  0.530936  0
Er  Er2  1  0.64296881  0.27202303  0.16178383  1  2.050219  0  1.567623  1.585666  0  2.487517  0
Er  Er3  1  0.35703607  0.72797933  0.66178839  1  2.05039  0  1.567649  1.585689  0  2.48755  0
H  H4  1  0.90512841  0.11939434  0.01075140  1  0.079284  0  0.098831  0.094756  0  1.030927  0
H  H5  1  0.09487436  0.88060688  0.51075684  1  0.079302  0  0.098887  0.094809  0  1.030932  0
H  H6  1  0.04048970  0.02034649  0.93873847  1  0.114164  0  0.095077  0.089143  0  1.033956  0
H  H7  1  0.95951530  0.97966140  0.43874858  1  0.114447  0  0.095104  0.089168  0  1.03399  0
H  H8  1  0.92119562  0.82312852  0.91866047  1  0.030826  0  0.097203  0.09441  0  1.036293  0
H  H9  1  0.07881940  0.17688005  0.41867551  1  0.031011  0  0.097169  0.094424  0  1.036222  0
H  H10  1  0.67111392  0.72174264  0.97442572  1  0.077202  0  0.09337  0.090912  0  1.0639  0
H  H11  1  0.32890501  0.27825540  0.47443719  1  0.077201  0  0.093411  0.090908  0  1.06395  0
H  H12  1  0.53627698  0.82013693  0.04634868  1  0.056382  0  0.097722  0.096438  0  1.009509  0
H  H13  1  0.46373641  0.17985448  0.54635526  1  0.055975  0  0.097719  0.096488  0  1.009401  0
H  H14  1  0.51954211  0.97992847  0.09545534  1  0.060363  0  0.109288  0.062164  0  0.992516  0
H  H15  1  0.48046425  0.02006883  0.59545456  1  0.060737  0  0.109269  0.06213  0  0.992586  0
H  H16  1  0.66159692  0.15791463  0.99456690  1  0.034677  0  0.11105  0.062234  0  1.003404  0
H  H17  1  0.33840309  0.84207791  0.49456901  1  0.034672  0  0.111023  0.062174  0  1.003378  0
H  H18  1  0.54695907  0.14978948  0.89094840  1  0.06017  0  0.098808  0.098215  0  1.007506  0
H  H19  1  0.45302226  0.85020627  0.39094463  1  0.062709  0  0.098838  0.098266  0  1.007444  0
H  H20  1  0.37705461  0.03562324  0.80370774  1  0.07367  0  0.102176  0.101295  0  0.991757  0
H  H21  1  0.62291472  0.96437243  0.30369864  1  0.0734  0  0.102218  0.101406  0  0.991834  0
H  H22  1  0.18476282  0.85795588  0.83412948  1  0.085096  0  0.096431  0.102625  0  1.06676  0
H  H23  1  0.81521414  0.14203979  0.33411841  1  0.084761  0  0.096353  0.102423  0  1.066873  0
H  H24  1  0.15698029  0.79785992  0.95248385  1  0.058679  0  0.099487  0.093949  0  1.00616  0
H  H25  1  0.84301331  0.20213423  0.45247234  1  0.059072  0  0.099453  0.09391  0  1.006193  0
H  H26  1  0.31974541  0.91325457  0.03937052  1  0.035588  0  0.098013  0.092901  0  1.025987  0
H  H27  1  0.68026314  0.08674013  0.53936294  1  0.035738  0  0.098032  0.092847  0  1.025728  0
H  H28  1  0.29949505  0.16424228  0.00366473  1  0.078714  0  0.112591  0.079109  0  0.997193  0
H  H29  1  0.70050939  0.83575238  0.50366251  1  0.078646  0  0.112623  0.079132  0  0.997392  0
H  H30  1  0.09545392  0.28300211  0.04698877  1  0.070543  0  0.103025  0.123535  0  1.036177  0
H  H31  1  0.90455634  0.71700647  0.54699377  1  0.070775  0  0.10311  0.123584  0  1.036204  0
H  H32  1  0.12740705  0.43823098  0.14037272  1  0.108851  0  0.102813  0.125287  0  1.034052  0
H  H33  1  0.87260430  0.56177862  0.64037676  1  0.108661  0  0.102787  0.125292  0  1.034082  0
H  H34  1  0.41505140  0.47080308  0.19610921  1  0.069046  0  0.109594  0.092922  0  1.032831  0
H  H35  1  0.58494991  0.52919939  0.69610848  1  0.068864  0  0.109601  0.092905  0  1.032908  0
H  H36  1  0.84729741  0.01060413  0.14387906  1  0.055016  0  0.115611  0.085468  0  0.976357  0
H  H37  1  0.15269964  0.98939174  0.64388055  1  0.054635  0  0.115638  0.085473  0  0.97648  0
H  H38  1  0.07447778  0.07667493  0.24706485  1  0.10829  0  0.100932  0.123317  0  1.081048  0
H  H39  1  0.92550749  0.92332617  0.74706269  1  0.108661  0  0.100894  0.123301  0  1.080999  0
H  H40  1  0.17133173  0.26327622  0.32067891  1  0.066739  0  0.099466  0.112342  0  1.06072  0
H  H41  1  0.82864617  0.73672267  0.82067368  1  0.066809  0  0.099459  0.112364  0  1.0608  0
H  H42  1  0.97890282  0.37991217  0.28667790  1  0.046998  0  0.102953  0.07218  0  1.057332  0
H  H43  1  0.02108050  0.62008822  0.78667973  1  0.046995  0  0.102944  0.07221  0  1.057303  0
H  H44  1  0.03173271  0.53590845  0.28086650  1  0.058201  0  0.099741  0.099196  0  1.029867  0
H  H45  1  0.96826116  0.46409265  0.78087128  1  0.058377  0  0.099659  0.099072  0  1.02995  0
H  H46  1  0.21895051  0.68729512  0.34118950  1  0.045305  0  0.098948  0.092745  0  1.004065  0
H  H47  1  0.78104391  0.31270530  0.84119858  1  0.045148  0  0.098892  0.092678  0  1.004176  0
H  H48  1  0.13091667  0.83600298  0.38961307  1  0.071085  0  0.095005  0.084935  0  1.046613  0
H  H49  1  0.86907652  0.16399429  0.88961327  1  0.070968  0  0.095069  0.085087  0  1.04655  0
H  H50  1  0.85274560  0.82978299  0.37729149  1  0.039722  0  0.095528  0.088152  0  1.031464  0
H  H51  1  0.14724218  0.17021349  0.87728719  1  0.039932  0  0.095474  0.088091  0  1.031385  0
H  H52  1  0.66411518  0.67482676  0.31953116  1  0.037924  0  0.098438  0.097664  0  1.007059  0
H  H53  1  0.33587454  0.32517120  0.81952803  1  0.03809  0  0.098518  0.09779  0  1.006961  0
H  H54  1  0.61013714  0.52209634  0.25381452  1  0.026664  0  0.107834  0.058206  0  0.99218  0
H  H55  1  0.38985923  0.47790059  0.75381067  1  0.02674  0  0.107828  0.058226  0  0.992087  0
H  H56  1  0.76534503  0.38642755  0.33456264  1  0.072724  0  0.10923  0.064254  0  0.97824  0
H  H57  1  0.23465703  0.61357441  0.83456817  1  0.072594  0  0.109249  0.064243  0  0.97828  0
H  H58  1  0.73551133  0.42346081  0.44633515  1  0.046605  0  0.096199  0.09629  0  1.036277  0
H  H59  1  0.26449731  0.57653890  0.94634025  1  0.046681  0  0.096221  0.096275  0  1.036196  0
H  H60  1  0.59471750  0.48212600  0.53737790  1  0.061381  0  0.096727  0.104269  0  1.021639  0
H  H61  1  0.40530460  0.51788572  0.03738092  1  0.061331  0  0.096728  0.104232  0  1.021591  0
H  H62  1  0.34332710  0.51806043  0.51412939  1  0.083577  0  0.100256  0.103681  0  1.051335  0
H  H63  1  0.65669371  0.48195124  0.01412421  1  0.083048  0  0.100244  0.103673  0  1.051338  0
H  H64  1  0.23342647  0.49260597  0.39989336  1  0.052395  0  0.092563  0.089525  0  1.034104  0
H  H65  1  0.76657660  0.50738960  0.89988308  1  0.0529  0  0.092561  0.089573  0  1.03406  0
H  H66  1  0.37678432  0.43648925  0.30811650  1  0.03796  0  0.096765  0.086213  0  1.044969  0
H  H67  1  0.62320197  0.56349321  0.80811064  1  0.056942  0  0.096752  0.086162  0  1.045229  0
H  H68  1  0.46931638  0.21919700  0.36326839  1  0.089161  0  0.11466  0.088645  0  0.994101  0
H  H69  1  0.53068815  0.78079847  0.86327178  1  0.08904  0  0.11465  0.088594  0  0.994105  0
H  H70  1  0.27945831  0.99947921  0.34772978  1  0.066116  0  0.09653  0.110364  0  1.042013  0
H  H71  1  0.72052953  0.00051720  0.84773690  1  0.066328  0  0.096607  0.110527  0  1.042038  0
H  H72  1  0.17286494  0.87542699  0.23734671  1  0.085527  0  0.091526  0.108797  0  1.040388  0
H  H73  1  0.82713657  0.12457476  0.73735653  1  0.0855  0  0.091516  0.108801  0  1.040352  0
H  H74  1  0.29057776  0.00682839  0.13138006  1  0.074266  0  0.104951  0.075137  0  1.044035  0
H  H75  1  0.70943979  0.99317705  0.63138349  1  0.074355  0  0.104929  0.075136  0  1.043955  0
H  H76  1  0.90285501  0.61363022  0.17168036  1  0.087852  0  0.109494  0.077786  0  0.985941  0
H  H77  1  0.09714146  0.38637877  0.67167947  1  0.088031  0  0.109501  0.077751  0  0.986049  0
H  H78  1  0.04846561  0.63145439  0.04390602  1  0.056549  0  0.093441  0.107231  0  1.027425  0
H  H79  1  0.95154108  0.36855340  0.54391000  1  0.056588  0  0.093437  0.107288  0  1.027352  0
H  H80  1  0.02540209  0.48041646  0.94540085  1  0.048304  0  0.08876  0.097773  0  1.062853  0
H  H81  1  0.97460561  0.51959305  0.44540419  1  0.048331  0  0.088786  0.097806  0  1.062867  0
H  H82  1  0.82874778  0.29279317  0.99166892  1  0.04243  0  0.097809  0.060167  0  1.071  0
H  H83  1  0.17124924  0.70721654  0.49167475  1  0.04265  0  0.097719  0.06001  0  1.07105  0
C  C84  1  0.85290682  0.03225007  0.00228253  1  -0.169249  0  -0.098002  -0.147364  0  3.994779  0
C  C85  1  0.14710026  0.96774538  0.50228994  1  -0.169372  0  -0.098167  -0.147496  0  3.994926  0
C  C86  1  0.92913850  0.97708003  0.96201856  1  -0.111542  0  -0.095698  -0.08154  0  4.026901  0
C  C87  1  0.07087473  0.02292376  0.46202995  1  -0.111709  0  -0.095671  -0.081563  0  4.027143  0
C  C88  1  0.86296622  0.86550203  0.95122790  1  0.040952  0  -0.095267  -0.086834  0  4.004439  0
C  C89  1  0.13703819  0.13449854  0.45124276  1  0.041194  0  -0.095198  -0.086769  0  4.004379  0
C  C90  1  0.72242616  0.80896220  0.98202462  1  -0.088395  0  -0.095821  -0.078984  0  4.015882  0
C  C91  1  0.27758849  0.19104162  0.48203610  1  -0.088565  0  -0.095869  -0.079039  0  4.016002  0
C  C92  1  0.64701858  0.86437119  0.02278316  1  -0.043535  0  -0.094734  -0.135756  0  3.997183  0
C  C93  1  0.35298772  0.13562676  0.52278845  1  -0.043303  0  -0.094821  -0.135855  0  3.997221  0
C  C94  1  0.70977535  0.97656010  0.03251025  1  -0.001628  0  -0.016686  0.049954  0  3.982314  0
C  C95  1  0.29023536  0.02343865  0.53251652  1  -0.001728  0  -0.016567  0.050115  0  3.982148  0
C  C96  1  0.62085470  0.03854517  0.07115143  1  0.309825  0  0.016367  0.057528  0  3.883202  0
C  C97  1  0.37915148  0.96144963  0.57115543  1  0.309655  0  0.016305  0.057386  0  3.883065  0
C  C98  1  0.55800456  0.10795042  0.02205610  1  0.3444  0  0.019016  0.054008  0  3.888771  0
C  C99  1  0.44200098  0.89204346  0.52205875  1  0.344579  0  0.019031  0.054046  0  3.888989  0
C  C100  1  0.44678780  0.03940541  0.97107102  1  -0.038427  0  -0.01688  0.048753  0  3.984999  0
C  C101  1  0.55320765  0.96058958  0.47106695  1  -0.038182  0  -0.016821  0.048801  0  3.985089  0
C  C102  1  0.45903522  0.07329058  0.90453035  1  -0.131062  0  -0.093195  -0.139946  0  3.997871  0
C  C103  1  0.54094516  0.92670194  0.40452424  1  -0.133799  0  -0.093311  -0.14007  0  3.997884  0
C  C104  1  0.36390405  0.00931872  0.85550849  1  -0.060532  0  -0.089549  -0.072806  0  4.022754  0
C  C105  1  0.63607499  0.99067616  0.35549941  1  -0.068494  0  -0.089673  -0.0731  0  4.022817  0
C  C106  1  0.25645549  0.90932783  0.87238562  1  0.020929  0  -0.092979  -0.084068  0  3.979174  0
C  C107  1  0.74352951  0.09066702  0.37237490  1  0.029046  0  -0.09273  -0.083563  0  3.97875  0
C  C108  1  0.24152553  0.87553995  0.93874314  1  -0.080383  0  -0.091695  -0.07699  0  4.029414  0
C  C109  1  0.75847044  0.12445333  0.43873544  1  -0.080548  0  -0.091754  -0.07725  0  4.029432  0
C  C110  1  0.33385831  0.94089984  0.98781728  1  -0.0286  0  -0.09513  -0.141952  0  4.007971  0
C  C111  1  0.66614157  0.05908943  0.48780903  1  -0.028702  0  -0.095179  -0.14173  0  4.007915  0
C  C112  1  0.37574465  0.20582470  0.04465073  1  0.609837  0  0.080866  0.094543  0  3.980139  0
C  C113  1  0.62428664  0.79417878  0.54465143  1  0.609697  0  0.080815  0.094549  0  3.979964  0
C  C114  1  0.33220856  0.28585413  0.08210910  1  0.340388  0  0.020572  0.050837  0  4.227202  0
C  C115  1  0.66779428  0.71414399  0.58211006  1  0.340938  0  0.020595  0.050844  0  4.227696  0
C  C116  1  0.19402175  0.31491917  0.08021598  1  -0.104362  0  -0.112644  -0.210795  0  4.026454  0
C  C117  1  0.80598681  0.68508868  0.58021766  1  -0.104759  0  -0.112723  -0.210754  0  4.026308  0
C  C118  1  0.21124934  0.39647604  0.12847971  1  -0.082242  0  -0.124519  -0.187479  0  4.062363  0
C  C119  1  0.78875503  0.60352706  0.62848214  1  -0.082112  0  -0.124483  -0.187562  0  4.062176  0
C  C120  1  0.35921371  0.41326482  0.15734881  1  0.306088  0  -0.026311  -0.03221  0  4.098302  0
C  C121  1  0.64078728  0.58673593  0.65735038  1  0.306433  0  -0.02637  -0.032207  0  4.0984  0
C  C122  1  0.81773218  0.08480042  0.15546037  1  0.618493  0  0.07765  0.083922  0  3.993456  0
C  C123  1  0.18226926  0.91520115  0.65546476  1  0.618854  0  0.077563  0.08382  0  3.993663  0
C  C124  1  0.90412865  0.15470014  0.20621975  1  0.395608  0  0.056308  0.119624  0  4.170911  0
C  C125  1  0.09586853  0.84529913  0.70622004  1  0.395651  0  0.056339  0.119784  0  4.171108  0
C  C126  1  0.03038258  0.14591696  0.24501366  1  -0.209354  0  -0.152991  -0.312728  0  4.124297  0
C  C127  1  0.96961344  0.85408322  0.74501331  1  -0.209519  0  -0.152988  -0.312766  0  4.124496  0
C  C128  1  0.07905786  0.24166694  0.28362288  1  -0.187148  0  -0.14322  -0.252643  0  4.129256  0
C  C129  1  0.92093041  0.75833667  0.78362197  1  -0.18773  0  -0.143228  -0.252668  0  4.129477  0
C  C130  1  0.97814155  0.30185601  0.26678061  1  0.459566  0  0.006176  0.051967  0  4.024872  0
C  C131  1  0.02184660  0.69814348  0.76678379  1  0.459858  0  0.006121  0.051879  0  4.024806  0
C  C132  1  0.99102814  0.59887894  0.30324336  1  -0.122557  0  -0.095758  -0.144529  0  3.99222  0
C  C133  1  0.00895815  0.40111739  0.80324824  1  -0.122209  0  -0.095668  -0.144417  0  3.992539  0
C  C134  1  0.09730295  0.68514821  0.33660715  1  0.05788  0  -0.092568  -0.079412  0  4.028939  0
C  C135  1  0.90268783  0.31484162  0.83661078  1  0.057863  0  -0.092475  -0.079304  0  4.029223  0
C  C136  1  0.04794300  0.76810432  0.36394331  1  -0.151633  0  -0.093591  -0.085749  0  4.006918  0
C  C137  1  0.95205673  0.23189283  0.86395011  1  -0.151692  0  -0.093721  -0.086003  0  4.006875  0
C  C138  1  0.89224143  0.76457139  0.35722087  1  0.006114  0  -0.091731  -0.072756  0  4.007278  0
C  C139  1  0.10775714  0.23542984  0.85721570  1  0.006132  0  -0.091654  -0.072607  0  4.007282  0
C  C140  1  0.78615397  0.67783286  0.32403437  1  -0.009149  0  -0.091293  -0.129389  0  3.984137  0
C  C141  1  0.21383191  0.32216678  0.82402923  1  -0.009342  0  -0.091328  -0.129563  0  3.9844  0
C  C142  1  0.83371565  0.59359134  0.29695951  1  -0.052693  0  -0.012201  0.054912  0  3.964136  0
C  C143  1  0.16627355  0.40641066  0.79696263  1  -0.053193  0  -0.012277  0.05493  0  3.964241  0
C  C144  1  0.71455951  0.49731575  0.26427025  1  0.342099  0  0.01844  0.059613  0  3.880253  0
C  C145  1  0.28543130  0.50268207  0.76427185  1  0.341804  0  0.018426  0.059489  0  3.88034  0
C  C146  1  0.65941462  0.40026460  0.31402546  1  0.292218  0  0.017983  0.062568  0  3.867184  0
C  C147  1  0.34058150  0.59972757  0.81402856  1  0.292204  0  0.017999  0.062686  0  3.867306  0
C  C148  1  0.56840983  0.42852579  0.37072703  1  -0.006679  0  -0.017314  0.048674  0  3.988613  0
C  C149  1  0.43159485  0.57147542  0.87072826  1  -0.006697  0  -0.017315  0.048656  0  3.98864  0
C  C150  1  0.62605286  0.43945253  0.43577341  1  -0.095592  0  -0.09422  -0.141139  0  3.990074  0
C  C151  1  0.37395728  0.56054469  0.93577655  1  -0.096257  0  -0.094208  -0.141048  0  3.990115  0
C  C152  1  0.54628211  0.47211216  0.48721176  1  0.022672  0  -0.090905  -0.064333  0  3.978249  0
C  C153  1  0.45373157  0.52789004  0.98721011  1  0.023158  0  -0.090933  -0.064309  0  3.978348  0
C  C154  1  0.40586552  0.49248009  0.47424129  1  -0.090505  0  -0.092291  -0.084379  0  3.976383  0
C  C155  1  0.59415020  0.50752532  0.97423540  1  -0.089571  0  -0.092224  -0.084339  0  3.976307  0
C  C156  1  0.34482737  0.47879784  0.40962493  1  -0.026524  0  -0.098661  -0.086719  0  4.028603  0
C  C157  1  0.65517711  0.52119447  0.90961712  1  -0.027158  0  -0.098709  -0.086811  0  4.02832  0
C  C158  1  0.42566402  0.44742382  0.35831001  1  -0.096498  0  -0.1003  -0.149592  0  4.009736  0
C  C159  1  0.57433445  0.55257252  0.85830351  1  -0.115668  0  -0.100248  -0.149534  0  4.00993  0
C  C160  1  0.48234166  0.21928464  0.30888201  1  0.582704  0  0.076116  0.079847  0  3.99625  0
C  C161  1  0.51765206  0.78070428  0.80888650  1  0.582469  0  0.076116  0.079923  0  3.996061  0
C  C162  1  0.39632926  0.12475588  0.27297696  1  0.424324  0  0.045502  0.099624  0  4.165023  0
C  C163  1  0.60366303  0.87524114  0.77298418  1  0.423996  0  0.045571  0.099732  0  4.164369  0
C  C164  1  0.30353467  0.02245999  0.29594254  1  -0.136185  0  -0.109004  -0.169883  0  3.979432  0
C  C165  1  0.69646002  0.97753706  0.79595048  1  -0.136933  0  -0.108981  -0.170011  0  3.979127  0
C  C166  1  0.24947925  0.95890262  0.23888400  1  -0.073843  0  -0.133914  -0.197201  0  4.054409  0
C  C167  1  0.75051559  0.04110164  0.73888907  1  -0.054989  0  -0.133956  -0.197236  0  4.054116  0
C  C168  1  0.31102430  0.02585280  0.18396318  1  0.350676  0  -0.004222  0.02981  0  4.062872  0
C  C169  1  0.68898810  0.97414383  0.68396867  1  0.332293  0  -0.004209  0.029896  0  4.062677  0
C  C170  1  0.85140242  0.52681926  0.15986145  1  0.566896  0  0.067983  0.073774  0  4.008753  0
C  C171  1  0.14859524  0.47318888  0.65986254  1  0.566758  0  0.067928  0.073758  0  4.00901  0
C  C172  1  0.88424223  0.48962785  0.09678603  1  0.381604  0  0.044985  0.101441  0  4.166235  0
C  C173  1  0.11574360  0.51038270  0.59679204  1  0.381025  0  0.04506  0.101657  0  4.166013  0
C  C174  1  0.97996142  0.54585204  0.04418022  1  -0.137885  0  -0.119049  -0.199569  0  4.018052  0
C  C175  1  0.02003903  0.45415908  0.54418178  1  -0.13763  0  -0.11909  -0.199772  0  4.018125  0
C  C176  1  0.96830696  0.46897856  0.99363617  1  -0.044011  0  -0.134241  -0.1929  0  4.061512  0
C  C177  1  0.03170470  0.53102939  0.49363585  1  -0.043819  0  -0.134402  -0.193145  0  4.061576  0
C  C178  1  0.86602412  0.37022388  0.01758460  1  0.413865  0  0.003028  0.054319  0  4.018572  0
C  C179  1  0.13397739  0.62978717  0.51759003  1  0.413457  0  0.003154  0.054726  0  4.017789  0
N  N180  1  0.50258610  0.18458644  0.06018790  1  -1.20598  0  -0.405465  -0.349623  0  3.443598  0
N  N181  1  0.49740217  0.81541421  0.56018874  1  -1.205771  0  -0.405428  -0.349707  0  3.443388  0
N  N182  1  0.70966862  0.11100042  0.12312720  1  -1.208494  0  -0.420644  -0.379117  0  3.431136  0
N  N183  1  0.29033477  0.88899534  0.62313108  1  -1.208621  0  -0.420614  -0.379058  0  3.43083  0
N  N184  1  0.87186624  0.24999848  0.22045785  1  -1.245568  0  -0.434381  -0.427982  0  3.460133  0
N  N185  1  0.12813072  0.74999919  0.72046141  1  -1.24558  0  -0.434268  -0.427921  0  3.459933  0
N  N186  1  0.43355472  0.34583702  0.13047894  1  -1.296652  0  -0.520427  -0.512596  0  3.586181  0
N  N187  1  0.56644876  0.65415957  0.63047696  1  -1.297237  0  -0.520346  -0.51249  0  3.586297  0
N  N188  1  0.76166722  0.45861220  0.20199407  1  -1.204116  0  -0.431135  -0.385046  0  3.446167  0
N  N189  1  0.23832505  0.54139282  0.70199823  1  -1.203615  0  -0.431039  -0.38495  0  3.446406  0
N  N190  1  0.57237145  0.30288598  0.27665766  1  -1.215907  0  -0.424246  -0.40392  0  3.458409  0
N  N191  1  0.42762471  0.69710774  0.77666001  1  -1.215405  0  -0.424286  -0.404035  0  3.4587  0
N  N192  1  0.40077068  0.12716948  0.20355307  1  -1.344763  0  -0.500354  -0.56175  0  3.583156  0
N  N193  1  0.59923580  0.87282806  0.70355833  1  -1.344624  0  -0.500472  -0.562025  0  3.583189  0
N  N194  1  0.81455431  0.38105982  0.07974078  1  -1.254553  0  -0.465907  -0.451775  0  3.490999  0
N  N195  1  0.18545317  0.61894804  0.57974574  1  -1.254418  0  -0.465879  -0.451904  0  3.490643  0
