# generated using pymatgen
data_CdH12(C2N)10
_symmetry_space_group_name_H-M   'P 1'
_cell_length_a   7.82360454
_cell_length_b   9.36397013
_cell_length_c   14.25577209
_cell_angle_alpha   98.20342643
_cell_angle_beta   105.65459743
_cell_angle_gamma   102.68489160
_symmetry_Int_Tables_number   1
_chemical_formula_structural   CdH12(C2N)10
_chemical_formula_sum   'Cd2 H24 C40 N20'
_cell_volume   958.15564687
_cell_formula_units_Z   2
loop_
 _symmetry_equiv_pos_site_id
 _symmetry_equiv_pos_as_xyz
  1  'x, y, z'
loop_
 _atom_site_type_symbol
 _atom_site_label
 _atom_site_symmetry_multiplicity
 _atom_site_fract_x
 _atom_site_fract_y
 _atom_site_fract_z
 _atom_site_occupancy
 _atom_site_hle17_bader_spin_density
 _atom_site_hle17_ddec_charge
 _atom_site_hle17_ddec_spin_density
 _atom_site_hle17_ddec_sum_bond_order
 _atom_site_hle17_magmom
 _atom_site_hse06_10hf_bader_spin_density
 _atom_site_hse06_10hf_ddec_charge
 _atom_site_hse06_10hf_ddec_spin_density
 _atom_site_hse06_10hf_ddec_sum_bond_order
 _atom_site_hse06_10hf_magmom
 _atom_site_hse06_bader_spin_density
 _atom_site_hse06_ddec_charge
 _atom_site_hse06_ddec_spin_density
 _atom_site_hse06_ddec_sum_bond_order
 _atom_site_hse06_magmom
 _atom_site_pbe_bader_spin_density
 _atom_site_pbe_cm5_charge
 _atom_site_pbe_ddec_charge
 _atom_site_pbe_ddec_spin_density
 _atom_site_pbe_ddec_sum_bond_order
 _atom_site_pbe_magmom
Cd  Cd0  1  0.99907775  0.48713234  0.23945392  1  0  1.146256  0  1.886722  0  0  0.956556  0  2.377293  0  0  1.00466  0  2.32993  0  0  0.831891  0.922535  0  2.40983  0
Cd  Cd1  1  0.00091850  0.51287777  0.76054045  1  0  1.146246  0  1.886785  0  0  0.956522  0  2.377368  0  0  1.004627  0  2.329998  0  0  0.831908  0.922504  0  2.409905  0
H  H2  1  0.72261491  0.29171422  0.02992417  1  0  0.084477  0  0.962892  0  0  0.091101  0  1.03333  0  0  0.093153  0  1.030889  0  0  0.117283  0.089534  0  1.034966  0
H  H3  1  0.27738336  0.70828087  0.97007929  1  0  0.084534  0  0.962964  0  0  0.091134  0  1.033398  0  0  0.093177  0  1.030983  0  0  0.117278  0.089565  0  1.035034  0
H  H4  1  0.82570094  0.71997997  0.00601443  1  0  0.1157  0  0.944338  0  0  0.126223  0  1.004386  0  0  0.128833  0  1.004148  0  0  0.107393  0.124521  0  1.004332  0
H  H5  1  0.17429146  0.28001733  0.99398918  1  0  0.115799  0  0.944239  0  0  0.126311  0  1.004283  0  0  0.128919  0  1.004045  0  0  0.107418  0.124609  0  1.004233  0
H  H6  1  0.06218521  0.15197294  0.25503816  1  0  0.065732  0  0.948248  0  0  0.069941  0  1.020432  0  0  0.072296  0  1.017486  0  0  0.120715  0.068206  0  1.022604  0
H  H7  1  0.93782262  0.84803123  0.74496484  1  0  0.065761  0  0.94813  0  0  0.069919  0  1.02038  0  0  0.072276  0  1.017434  0  0  0.120717  0.068184  0  1.022554  0
H  H8  1  0.04548331  0.65962276  0.46017000  1  0  0.08456  0  0.939679  0  0  0.094975  0  1.002438  0  0  0.096675  0  1.000506  0  0  0.119631  0.093821  0  1.003545  0
H  H9  1  0.95451001  0.34037348  0.53983220  1  0  0.084663  0  0.939696  0  0  0.094958  0  1.002556  0  0  0.096656  0  1.000629  0  0  0.119626  0.093804  0  1.003662  0
H  H10  1  0.54781493  0.10616763  0.86298839  1  0  0.094119  0  0.98447  0  0  0.100367  0  1.054457  0  0  0.103052  0  1.053748  0  0  0.100994  0.09816  0  1.055907  0
H  H11  1  0.45218181  0.89383082  0.13701525  1  0  0.094008  0  0.984434  0  0  0.100264  0  1.054434  0  0  0.102945  0  1.053728  0  0  0.100934  0.098056  0  1.055882  0
H  H12  1  0.40702302  0.29671551  0.66938431  1  0  0.078942  0  0.970515  0  0  0.090721  0  1.031105  0  0  0.092014  0  1.031375  0  0  0.098868  0.089962  0  1.030624  0
H  H13  1  0.59296465  0.70329211  0.33061421  1  0  0.079001  0  0.970384  0  0  0.09077  0  1.030994  0  0  0.092061  0  1.031263  0  0  0.098883  0.090019  0  1.030491  0
H  H14  1  0.11152549  0.83351989  0.62756547  1  0  0.101143  0  0.959822  0  0  0.111314  0  1.023934  0  0  0.113623  0  1.022961  0  0  0.104627  0.109662  0  1.02461  0
H  H15  1  0.88844997  0.16648640  0.37243613  1  0  0.101181  0  0.959765  0  0  0.111317  0  1.023922  0  0  0.113631  0  1.022958  0  0  0.104619  0.109668  0  1.024599  0
H  H16  1  0.18647971  0.83787576  0.23218458  1  0  0.062728  0  0.942859  0  0  0.065893  0  1.01737  0  0  0.068251  0  1.014083  0  0  0.12024  0.064232  0  1.019665  0
H  H17  1  0.81351931  0.16212157  0.76781923  1  0  0.062729  0  0.942844  0  0  0.065904  0  1.017375  0  0  0.06826  0  1.014092  0  0  0.120255  0.064244  0  1.01967  0
H  H18  1  0.62327642  0.66170006  0.82997440  1  0  0.07383  0  0.983054  0  0  0.086208  0  1.043848  0  0  0.086758  0  1.045297  0  0  0.096553  0.085338  0  1.043987  0
H  H19  1  0.37672721  0.33829972  0.17002542  1  0  0.073796  0  0.983135  0  0  0.086202  0  1.043888  0  0  0.086752  0  1.04534  0  0  0.096544  0.085332  0  1.044027  0
H  H20  1  0.24837724  0.09216700  0.73456679  1  0  0.094035  0  0.964798  0  0  0.10175  0  1.030549  0  0  0.104371  0  1.030539  0  0  0.099867  0.099751  0  1.030821  0
H  H21  1  0.75161566  0.90784078  0.26542896  1  0  0.094091  0  0.964727  0  0  0.101804  0  1.030488  0  0  0.10443  0  1.030467  0  0  0.099898  0.0998  0  1.030763  0
H  H22  1  0.42022470  0.25176610  0.49561249  1  0  0.109991  0  0.979319  0  0  0.114751  0  1.049664  0  0  0.117664  0  1.049102  0  0  0.103898  0.112626  0  1.050309  0
H  H23  1  0.57974975  0.74823844  0.50437755  1  0  0.109899  0  0.979338  0  0  0.114677  0  1.049688  0  0  0.117614  0  1.049089  0  0  0.103899  0.112554  0  1.050334  0
H  H24  1  0.48295368  0.85203287  0.75864892  1  0  0.092899  0  0.959083  0  0  0.100903  0  1.024634  0  0  0.103397  0  1.024571  0  0  0.099823  0.099219  0  1.024503  0
H  H25  1  0.51705317  0.14796471  0.24135039  1  0  0.092959  0  0.959073  0  0  0.100962  0  1.024593  0  0  0.103457  0  1.024529  0  0  0.099852  0.099277  0  1.024462  0
C  C26  1  0.61847012  0.58065983  0.12880239  1  0  0.512331  0  3.991125  0  0  0.469005  0  4.281137  0  0  0.495655  0  4.291994  0  0  0.30861  0.45052  0  4.274102  0
C  C27  1  0.38152783  0.41933105  0.87119423  1  0  0.51223  0  3.991167  0  0  0.46889  0  4.281183  0  0  0.495537  0  4.292043  0  0  0.308554  0.450407  0  4.274143  0
C  C28  1  0.70019194  0.42872988  0.37507687  1  0  0.505132  0  3.993952  0  0  0.465571  0  4.27939  0  0  0.492213  0  4.289973  0  0  0.30936  0.447759  0  4.271352  0
C  C29  1  0.29984661  0.57126797  0.62492050  1  0  0.504937  0  3.993619  0  0  0.46531  0  4.27906  0  0  0.491949  0  4.289647  0  0  0.309188  0.44749  0  4.271019  0
C  C30  1  0.80607596  0.94810258  0.03416843  1  0  0.220844  0  3.779493  0  0  0.219292  0  4.020405  0  0  0.22799  0  4.040055  0  0  0.116405  0.213723  0  4.00688  0
C  C31  1  0.19392736  0.05189596  0.96583401  1  0  0.220832  0  3.77967  0  0  0.219386  0  4.020468  0  0  0.228092  0  4.040102  0  0  0.11646  0.213784  0  4.006998  0
C  C32  1  0.40107606  0.42502535  0.36903825  1  0  0.510497  0  3.995939  0  0  0.465679  0  4.290587  0  0  0.492918  0  4.299904  0  0  0.30846  0.446897  0  4.284789  0
C  C33  1  0.59893057  0.57496966  0.63094248  1  0  0.510298  0  3.995609  0  0  0.465405  0  4.290248  0  0  0.492646  0  4.29957  0  0  0.308255  0.446612  0  4.284447  0
C  C34  1  0.32796019  0.59443506  0.13192051  1  0  0.495244  0  3.996464  0  0  0.453657  0  4.285776  0  0  0.479543  0  4.296656  0  0  0.304396  0.43522  0  4.280138  0
C  C35  1  0.67205329  0.40557808  0.86808430  1  0  0.495248  0  3.996234  0  0  0.453655  0  4.285536  0  0  0.479539  0  4.296421  0  0  0.304385  0.435218  0  4.279898  0
C  C36  1  0.26921717  0.01812656  0.46165476  1  0  0.224828  0  3.784377  0  0  0.223773  0  4.023486  0  0  0.232274  0  4.043719  0  0  0.119308  0.218214  0  4.010065  0
C  C37  1  0.73075545  0.98187528  0.53834525  1  0  0.224815  0  3.784331  0  0  0.223682  0  4.023448  0  0  0.232182  0  4.043684  0  0  0.119249  0.218123  0  4.010031  0
C  C38  1  0.72797104  0.05825827  0.99235028  1  0  -0.037532  0  3.786988  0  0  -0.01299  0  4.007121  0  0  -0.021034  0  4.032702  0  0  -0.003444  -0.008601  0  3.990906  0
C  C39  1  0.27201889  0.94173869  0.00766067  1  0  -0.037579  0  3.78698  0  0  -0.01313  0  4.007188  0  0  -0.02119  0  4.032791  0  0  -0.003449  -0.008732  0  3.990982  0
C  C40  1  0.18437827  0.89900729  0.50071136  1  0  -0.04138  0  3.791019  0  0  -0.0176  0  4.013657  0  0  -0.025774  0  4.039768  0  0  -0.005401  -0.012997  0  3.996278  0
C  C41  1  0.81564037  0.10098098  0.49929622  1  0  -0.04152  0  3.790814  0  0  -0.017527  0  4.013145  0  0  -0.025698  0  4.039252  0  0  -0.005402  -0.012927  0  3.995773  0
C  C42  1  0.77865819  0.20176112  0.05487729  1  0  0.159016  0  3.648223  0  0  0.11826  0  3.893914  0  0  0.1308  0  3.908142  0  0  0.07879  0.110415  0  3.883809  0
C  C43  1  0.22135434  0.79823757  0.94512293  1  0  0.158844  0  3.64821  0  0  0.118133  0  3.893906  0  0  0.130676  0  3.90812  0  0  0.078714  0.110292  0  3.883799  0
C  C44  1  0.76416363  0.80309002  0.97436242  1  0  -0.139371  0  3.678828  0  0  -0.159681  0  3.927223  0  0  -0.166115  0  3.949142  0  0  -0.082831  -0.155292  0  3.912034  0
C  C45  1  0.23581661  0.19689806  0.02564407  1  0  -0.139429  0  3.67898  0  0  -0.159738  0  3.927326  0  0  -0.166168  0  3.949236  0  0  -0.082835  -0.155342  0  3.912149  0
C  C46  1  0.96360764  0.12139444  0.17993037  1  0  0.280997  0  3.730942  0  0  0.235158  0  4.005446  0  0  0.248924  0  4.018701  0  0  0.170876  0.22628  0  3.99605  0
C  C47  1  0.03642833  0.87861104  0.82007244  1  0  0.280919  0  3.731063  0  0  0.235116  0  4.00558  0  0  0.248877  0  4.018832  0  0  0.170891  0.22624  0  3.996184  0
C  C48  1  0.10916837  0.75703869  0.43527812  1  0  0.162707  0  3.65328  0  0  0.121528  0  3.900414  0  0  0.133887  0  3.915055  0  0  0.079916  0.113804  0  3.889758  0
C  C49  1  0.89081582  0.24296203  0.56472335  1  0  0.162573  0  3.653423  0  0  0.121458  0  3.900444  0  0  0.133816  0  3.915084  0  0  0.079901  0.113737  0  3.889786  0
C  C50  1  0.60889505  0.02165392  0.89277045  1  0  -0.083491  0  3.722496  0  0  -0.105651  0  3.969539  0  0  -0.10586  0  3.991077  0  0  -0.080352  -0.104902  0  3.955284  0
C  C51  1  0.39112060  0.97835053  0.10722735  1  0  -0.083241  0  3.722464  0  0  -0.105369  0  3.969453  0  0  -0.105577  0  3.990991  0  0  -0.080265  -0.104616  0  3.95519  0
C  C52  1  0.34384024  0.18565718  0.62101374  1  0  -0.028679  0  3.74126  0  0  -0.045077  0  3.99102  0  0  -0.044667  0  4.014033  0  0  -0.078957  -0.044487  0  3.974248  0
C  C53  1  0.65614777  0.81435163  0.37898356  1  0  -0.028705  0  3.741446  0  0  -0.045101  0  3.991228  0  0  -0.044691  0  4.014246  0  0  -0.078969  -0.044506  0  3.974458  0
C  C54  1  0.17779856  0.92630363  0.59986235  1  0  -0.079796  0  3.71716  0  0  -0.10151  0  3.962474  0  0  -0.101446  0  3.984404  0  0  -0.077316  -0.100703  0  3.946746  0
C  C55  1  0.82218118  0.07369615  0.40013419  1  0  -0.079837  0  3.717064  0  0  -0.101586  0  3.962324  0  0  -0.101538  0  3.984265  0  0  -0.077327  -0.100783  0  3.946599  0
C  C56  1  0.19108355  0.85782248  0.31023299  1  0  0.289288  0  3.727854  0  0  0.24135  0  4.006538  0  0  0.255642  0  4.018965  0  0  0.172833  0.232006  0  3.99761  0
C  C57  1  0.80888658  0.14217609  0.68976420  1  0  0.289338  0  3.727825  0  0  0.241341  0  4.006547  0  0  0.255631  0  4.018975  0  0  0.172815  0.231998  0  3.99762  0
C  C58  1  0.65052525  0.77174630  0.87696495  1  0  -0.030044  0  3.738999  0  0  -0.045739  0  3.987576  0  0  -0.045889  0  4.01212  0  0  -0.078198  -0.045057  0  3.971057  0
C  C59  1  0.34947637  0.22825890  0.12303942  1  0  -0.029999  0  3.739094  0  0  -0.045736  0  3.987655  0  0  -0.045886  0  4.012203  0  0  -0.078201  -0.045052  0  3.971132  0
C  C60  1  0.25543039  0.06865063  0.65880291  1  0  -0.069004  0  3.738967  0  0  -0.083956  0  3.992715  0  0  -0.088992  0  4.016294  0  0  -0.088277  -0.080477  0  3.976248  0
C  C61  1  0.74456245  0.93135245  0.34119721  1  0  -0.069066  0  3.738997  0  0  -0.084018  0  3.992751  0  0  -0.089052  0  4.016333  0  0  -0.088318  -0.080534  0  3.976284  0
C  C62  1  0.35169632  0.16216810  0.52463330  1  0  -0.143205  0  3.68675  0  0  -0.16155  0  3.935471  0  0  -0.167909  0  3.956907  0  0  -0.086443  -0.157934  0  3.921125  0
C  C63  1  0.64829983  0.83782963  0.47536105  1  0  -0.143083  0  3.686819  0  0  -0.161458  0  3.935579  0  0  -0.167833  0  3.956983  0  0  -0.086411  -0.157847  0  3.921238  0
C  C64  1  0.57181594  0.88018579  0.83575009  1  0  -0.054954  0  3.73216  0  0  -0.069402  0  3.983957  0  0  -0.074159  0  4.007118  0  0  -0.082465  -0.066199  0  3.967857  0
C  C65  1  0.42819570  0.11981390  0.16425292  1  0  -0.055103  0  3.731948  0  0  -0.069522  0  3.983736  0  0  -0.07428  0  4.006896  0  0  -0.08251  -0.066318  0  3.967634  0
N  N66  1  0.11199431  0.73581525  0.34176828  1  0  -0.392634  0  3.210445  0  0  -0.31199  0  3.476033  0  0  -0.335363  0  3.493262  0  0  -0.325037  -0.295918  0  3.463644  0
N  N67  1  0.88800528  0.26417983  0.65823536  1  0  -0.392608  0  3.210564  0  0  -0.311975  0  3.476155  0  0  -0.335345  0  3.493379  0  0  -0.325034  -0.295903  0  3.463764  0
N  N68  1  0.89605467  0.23403675  0.14647157  1  0  -0.387445  0  3.213167  0  0  -0.307989  0  3.480075  0  0  -0.331058  0  3.496969  0  0  -0.327271  -0.292302  0  3.467934  0
N  N69  1  0.10393982  0.76596276  0.85353328  1  0  -0.387333  0  3.213409  0  0  -0.307844  0  3.48026  0  0  -0.330908  0  3.497148  0  0  -0.327243  -0.29216  0  3.468123  0
N  N70  1  0.92242068  0.98242104  0.13001504  1  0  -0.374053  0  3.0156  0  0  -0.33946  0  3.285444  0  0  -0.353991  0  3.299251  0  0  -0.311172  -0.329763  0  3.275726  0
N  N71  1  0.07757745  0.01757729  0.86999158  1  0  -0.37406  0  3.015803  0  0  -0.339494  0  3.285595  0  0  -0.354036  0  3.299424  0  0  -0.311194  -0.329787  0  3.275892  0
N  N72  1  0.74655591  0.53231338  0.13177961  1  0  -0.604505  0  2.810069  0  0  -0.55599  0  3.09515  0  0  -0.578251  0  3.098419  0  0  -0.385702  -0.540564  0  3.09259  0
N  N73  1  0.25344543  0.46767977  0.86821703  1  0  -0.604485  0  2.810015  0  0  -0.555962  0  3.095078  0  0  -0.578216  0  3.098339  0  0  -0.385696  -0.540535  0  3.092514  0
N  N74  1  0.24332801  0.41800994  0.33669800  1  0  -0.609598  0  2.812191  0  0  -0.562017  0  3.102098  0  0  -0.584381  0  3.105094  0  0  -0.389406  -0.546946  0  3.100697  0
N  N75  1  0.75669593  0.58200051  0.66329249  1  0  -0.6093  0  2.811737  0  0  -0.561684  0  3.101616  0  0  -0.584053  0  3.104618  0  0  -0.389211  -0.546609  0  3.100214  0
N  N76  1  0.17730463  0.56234605  0.13787089  1  0  -0.58899  0  2.761616  0  0  -0.540272  0  3.037171  0  0  -0.561418  0  3.040624  0  0  -0.38158  -0.525667  0  3.035703  0
N  N77  1  0.82270396  0.43766515  0.86212601  1  0  -0.589047  0  2.761556  0  0  -0.540303  0  3.03707  0  0  -0.561448  0  3.040523  0  0  -0.381628  -0.525699  0  3.035602  0
N  N78  1  0.83068054  0.42609574  0.34893546  1  0  -0.617437  0  2.79897  0  0  -0.57082  0  3.082482  0  0  -0.592559  0  3.085197  0  0  -0.389524  -0.556245  0  3.080635  0
N  N79  1  0.16934864  0.57389266  0.65107078  1  0  -0.617354  0  2.798448  0  0  -0.570757  0  3.082085  0  0  -0.592496  0  3.084798  0  0  -0.389473  -0.556179  0  3.080237  0
N  N80  1  0.57046313  0.43200064  0.41428075  1  0  -0.451052  0  3.320613  0  0  -0.392513  0  3.581855  0  0  -0.417071  0  3.586837  0  0  -0.301626  -0.375842  0  3.577648  0
N  N81  1  0.42955397  0.56799761  0.58570460  1  0  -0.45098  0  3.320769  0  0  -0.39228  0  3.581852  0  0  -0.416833  0  3.586841  0  0  -0.301454  -0.37559  0  3.577631  0
N  N82  1  0.48894310  0.64681761  0.12334533  1  0  -0.461591  0  3.326169  0  0  -0.403191  0  3.590285  0  0  -0.427417  0  3.595258  0  0  -0.30405  -0.386061  0  3.587783  0
N  N83  1  0.51106361  0.35318320  0.87665713  1  0  -0.461485  0  3.326016  0  0  -0.403064  0  3.590124  0  0  -0.42729  0  3.595107  0  0  -0.303964  -0.385931  0  3.587618  0
N  N84  1  0.26956664  0.99442087  0.36472140  1  0  -0.370543  0  3.004236  0  0  -0.336619  0  3.273683  0  0  -0.351269  0  3.287753  0  0  -0.311699  -0.326498  0  3.263964  0
N  N85  1  0.73042821  0.00557201  0.63528064  1  0  -0.370483  0  3.004297  0  0  -0.336536  0  3.273786  0  0  -0.351183  0  3.287857  0  0  -0.311641  -0.326415  0  3.264068  0
