# generated using pymatgen
data_MnH24C22N5O4
_symmetry_space_group_name_H-M   'P 1'
_cell_length_a   9.94243281
_cell_length_b   10.44531219
_cell_length_c   10.93321531
_cell_angle_alpha   96.80000309
_cell_angle_beta   103.43037277
_cell_angle_gamma   99.41113596
_symmetry_Int_Tables_number   1
_chemical_formula_structural   MnH24C22N5O4
_chemical_formula_sum   'Mn2 H48 C44 N10 O8'
_cell_volume   1074.95243818
_cell_formula_units_Z   2
loop_
 _symmetry_equiv_pos_site_id
 _symmetry_equiv_pos_as_xyz
  1  'x, y, z'
loop_
 _atom_site_type_symbol
 _atom_site_label
 _atom_site_symmetry_multiplicity
 _atom_site_fract_x
 _atom_site_fract_y
 _atom_site_fract_z
 _atom_site_occupancy
 _atom_site_hse06_10hf_ddec_charge
 _atom_site_hse06_10hf_ddec_spin_density
 _atom_site_hse06_10hf_ddec_sum_bond_order
 _atom_site_hse06_10hf_magmom
 _atom_site_hse06_ddec_charge
 _atom_site_hse06_ddec_spin_density
 _atom_site_hse06_ddec_sum_bond_order
 _atom_site_hse06_magmom
 _atom_site_pbe_cm5_charge
 _atom_site_pbe_ddec_charge
 _atom_site_pbe_ddec_spin_density
 _atom_site_pbe_ddec_sum_bond_order
 _atom_site_pbe_magmom
Mn  Mn0  1  0.50004566  0.99998941  0.50006621  1  0.888497  -2.116537  3.247969  -2.01  1.005608  -2.13363  3.153653  -2.017  0.762502  0.821575  -2.074137  3.305752  -1.971
Mn  Mn1  1  0.49999332  0.99998971  0.00001074  1  1.050494  3.798264  3.087535  3.595  1.163414  3.906052  2.999491  3.718  0.834204  0.971181  3.685235  3.15177  3.467
H  H2  1  0.51877049  0.29805494  0.36638156  1  0.083409  0.000586  1.017255  0.0  0.083435  0.000497  1.017615  0.0  0.107526  0.083465  0.000724  1.016968  0.0
H  H3  1  0.48122759  0.70194412  0.63361855  1  0.083379  0.000586  1.017339  0.0  0.083401  0.000497  1.017702  0.0  0.107519  0.083439  0.000724  1.017045  0.0
H  H4  1  0.58294023  0.43929585  0.30145052  1  0.09225  -7e-05  1.007791  0.0  0.092644  -0.000101  1.00714  0.0  0.109674  0.092036  -5e-06  1.008262  0.0
H  H5  1  0.41705600  0.56070419  0.69854931  1  0.092247  -7e-05  1.007849  0.0  0.092642  -0.000101  1.007193  0.0  0.109659  0.092014  -5e-06  1.008338  0.0
H  H6  1  0.65800608  0.18145522  0.26808747  1  0.080833  -0.000149  0.994649  0.0  0.082753  -0.000251  0.993133  0.0  0.115524  0.079543  -3.6e-05  0.995634  0.0
H  H7  1  0.34199345  0.81854581  0.73191409  1  0.080802  -0.00015  0.994644  0.0  0.082724  -0.000251  0.993122  0.0  0.115516  0.079514  -3.7e-05  0.995622  0.0
H  H8  1  0.29039433  0.05700068  0.67160620  1  0.077297  -0.000272  0.997622  0.0  0.079944  -0.000176  0.995516  0.0  0.11438  0.075589  -0.000281  0.999133  0.0
H  H9  1  0.70959921  0.94300133  0.32839694  1  0.077374  -0.000274  0.997603  0.0  0.080021  -0.000178  0.995498  0.0  0.114395  0.07566  -0.000282  0.999123  0.0
H  H10  1  0.07461258  0.94796623  0.74545818  1  0.120645  4.8e-05  1.004336  0.0  0.123817  4.3e-05  1.00339  0.0  0.103803  0.118283  7.4e-05  1.005364  0.0
H  H11  1  0.92538819  0.05203086  0.25453679  1  0.120704  4.8e-05  1.004321  0.0  0.123892  4.3e-05  1.003355  0.0  0.103823  0.118335  7.4e-05  1.005361  0.0
H  H12  1  0.14797511  0.31181434  0.10545706  1  0.102085  1e-06  1.031117  0.0  0.10414  -1e-05  1.029402  0.0  0.105062  0.100622  3.3e-05  1.032281  0.0
H  H13  1  0.85202463  0.68818276  0.89454226  1  0.102074  1e-06  1.031081  0.0  0.104129  -1e-05  1.029366  0.0  0.105053  0.100611  3.3e-05  1.032248  0.0
H  H14  1  0.25609703  0.32973720  0.70853051  1  0.088659  7.4e-05  0.9825  0.0  0.08889  6.8e-05  0.982242  0.0  0.108997  0.088236  0.00013  0.982781  0.0
H  H15  1  0.74390002  0.67026186  0.29147030  1  0.088658  7.4e-05  0.982516  0.0  0.08889  6.9e-05  0.98226  0.0  0.109008  0.088236  0.00013  0.982799  0.0
H  H16  1  0.35614847  0.24989564  0.82383719  1  0.07913  -6.9e-05  1.026383  0.0  0.080285  -0.000136  1.026344  0.0  0.104647  0.077819  -8e-06  1.026958  0.0
H  H17  1  0.64385522  0.75011030  0.17616398  1  0.079173  -6.9e-05  1.026367  0.0  0.080329  -0.000136  1.02633  0.0  0.104659  0.077861  -8e-06  1.026946  0.0
H  H18  1  0.90331739  0.22851926  0.46976649  1  0.121951  -0.000135  1.011668  0.0  0.126051  -7.1e-05  1.009728  0.0  0.102734  0.118867  -0.000204  1.013535  0.0
H  H19  1  0.09668256  0.77147881  0.53023390  1  0.121945  -0.000136  1.011695  0.0  0.126048  -7.2e-05  1.009745  0.0  0.102723  0.118862  -0.000204  1.013558  0.0
H  H20  1  0.70589328  0.48184435  0.77620503  1  0.104001  1.8e-05  1.046113  0.0  0.10827  3e-06  1.04155  0.0  0.102972  0.100829  3.4e-05  1.049246  0.0
H  H21  1  0.29410874  0.51815864  0.22379545  1  0.104014  1.8e-05  1.04609  0.0  0.108284  2e-06  1.041527  0.0  0.102963  0.100846  3.4e-05  1.049218  0.0
H  H22  1  0.17310458  0.04137114  0.44865863  1  0.09861  0.00017  1.00921  0.0  0.100331  0.00016  1.008596  0.0  0.09631  0.097234  0.000177  1.00973  0.0
H  H23  1  0.82690054  0.95863185  0.55134159  1  0.09856  0.00017  1.009218  0.0  0.100278  0.000161  1.008608  0.0  0.096312  0.097184  0.000177  1.009737  0.0
H  H24  1  0.08783741  0.12744024  0.54688811  1  0.079619  -0.00013  1.013464  0.0  0.079913  -0.000103  1.014785  0.0  0.088169  0.07939  -0.000115  1.012629  0.0
H  H25  1  0.91216544  0.87256176  0.45311152  1  0.079582  -0.00013  1.013453  0.0  0.079877  -0.000104  1.014773  0.0  0.088146  0.079354  -0.000115  1.012619  0.0
H  H26  1  0.28814857  0.25354202  0.39703028  1  0.120658  0.000178  1.032398  0.0  0.122391  0.000143  1.032438  0.0  0.085467  0.119134  0.000224  1.032797  0.0
H  H27  1  0.71185614  0.74645900  0.60296963  1  0.1206  0.000178  1.032399  0.0  0.122342  0.000142  1.032429  0.0  0.085421  0.119076  0.000223  1.032796  0.0
H  H28  1  0.20403236  0.34426762  0.49428405  1  0.10091  -1.5e-05  1.033739  0.0  0.100949  -7e-06  1.035628  0.0  0.078026  0.101025  -3.3e-05  1.032131  0.0
H  H29  1  0.79597173  0.65573537  0.50571595  1  0.100892  -1.5e-05  1.033757  0.0  0.100935  -6e-06  1.035643  0.0  0.078037  0.101005  -3.3e-05  1.03215  0.0
H  H30  1  0.10321589  0.23599957  0.35491537  1  0.109117  -1.4e-05  1.024376  0.0  0.110385  -1.1e-05  1.024551  0.0  0.083356  0.10829  -3.6e-05  1.024113  0.0
H  H31  1  0.89678903  0.76400243  0.64508470  1  0.109075  -1.4e-05  1.024342  0.0  0.110342  -1.1e-05  1.024518  0.0  0.083337  0.108247  -3.6e-05  1.024077  0.0
H  H32  1  0.95106365  0.56182088  0.76178142  1  0.096647  -9.1e-05  1.028643  0.0  0.10003  -4.5e-05  1.027907  0.0  0.09604  0.09405  -0.000159  1.029593  0.0
H  H33  1  0.04893795  0.43818015  0.23821783  1  0.096629  -9.1e-05  1.028724  0.0  0.100012  -4.5e-05  1.02799  0.0  0.096035  0.094032  -0.000159  1.029675  0.0
H  H34  1  0.04717165  0.43679721  0.60370056  1  0.085548  0.000336  1.032749  0.0  0.088502  0.0002  1.029459  0.0  0.095232  0.083718  0.000375  1.034163  0.0
H  H35  1  0.95282851  0.56320185  0.39629816  1  0.085551  0.000337  1.032759  0.0  0.088508  0.000201  1.029458  0.0  0.095232  0.083723  0.000376  1.034171  0.0
H  H36  1  0.87790393  0.05925097  0.76786824  1  0.096491  3.6e-05  1.048875  0.0  0.099044  3.4e-05  1.04719  0.0  0.100834  0.094317  9.9e-05  1.050281  0.0
H  H37  1  0.12209662  0.94074513  0.23213114  1  0.096489  3.6e-05  1.048948  0.0  0.099039  3.4e-05  1.047269  0.0  0.100811  0.094314  0.0001  1.050352  0.0
H  H38  1  0.80732152  0.38123773  0.24132393  1  0.077127  0.000102  1.011356  0.0  0.076194  8.7e-05  1.013424  0.0  0.087306  0.077666  9.7e-05  1.009967  0.0
H  H39  1  0.19267823  0.61876428  0.75867779  1  0.077086  0.000101  1.01141  0.0  0.076151  8.7e-05  1.01348  0.0  0.08729  0.077626  9.7e-05  1.010019  0.0
H  H40  1  0.77845249  0.25229427  0.11239124  1  0.095137  -5.4e-05  1.005058  0.0  0.096947  -0.00011  1.004413  0.0  0.094832  0.093789  1e-06  1.005626  0.0
H  H41  1  0.22154829  0.74770773  0.88761069  1  0.095168  -5.4e-05  1.005039  0.0  0.096982  -0.00011  1.004387  0.0  0.094845  0.09382  1e-06  1.005606  0.0
H  H42  1  0.61525891  0.48057328  0.10033692  1  0.113072  2.1e-05  1.025689  0.0  0.113852  1.1e-05  1.026518  0.0  0.083159  0.112409  2.1e-05  1.025368  0.0
H  H43  1  0.38473960  0.51942775  0.89966442  1  0.113067  2.1e-05  1.025761  0.0  0.113848  1.1e-05  1.02659  0.0  0.083166  0.112405  2.1e-05  1.025438  0.0
H  H44  1  0.61058798  0.35635301  0.97236838  1  0.118383  -0.000246  1.039542  0.0  0.120066  -0.000267  1.039381  0.0  0.084639  0.117292  -0.000214  1.039508  0.0
H  H45  1  0.38940866  0.64364900  0.02763359  1  0.118392  -0.000246  1.039616  0.0  0.120078  -0.000268  1.039453  0.0  0.084653  0.117299  -0.000214  1.039587  0.0
H  H46  1  0.76663722  0.47560621  0.04218863  1  0.117062  1.8e-05  1.008644  0.0  0.117579  1.4e-05  1.009876  0.0  0.084291  0.116797  1.6e-05  1.007679  0.0
H  H47  1  0.23336025  0.52439481  0.95781249  1  0.117064  1.8e-05  1.008608  0.0  0.117582  1.4e-05  1.00984  0.0  0.084287  0.116798  1.6e-05  1.007642  0.0
H  H48  1  0.91236397  0.24216853  0.94827020  1  0.104724  -3.3e-05  1.021267  0.0  0.107465  -6.8e-05  1.021617  0.0  0.098773  0.102811  -1.6e-05  1.021029  0.0
H  H49  1  0.08763658  0.75782757  0.05173010  1  0.104748  -3.2e-05  1.021231  0.0  0.107487  -6.8e-05  1.021585  0.0  0.098777  0.102833  -1.5e-05  1.020993  0.0
C  C50  1  0.53523783  0.33443633  0.27987715  1  -0.023128  -0.00101  3.751658  -0.001  -0.014938  -0.001236  3.75589  -0.001  -0.055903  -0.028603  -0.000781  3.748326  -0.001
C  C51  1  0.46475943  0.66556372  0.72012290  1  -0.023111  -0.001011  3.751778  -0.001  -0.014908  -0.001237  3.756005  -0.001  -0.055857  -0.028574  -0.000782  3.748443  -0.001
C  C52  1  0.61212659  0.24804893  0.20748730  1  0.112858  0.001378  3.814339  0.002  0.117383  0.000965  3.829066  0.002  0.008635  0.109902  0.001839  3.8039  0.002
C  C53  1  0.38787295  0.75195210  0.79251425  1  0.112965  0.001376  3.814228  0.002  0.117487  0.000964  3.828946  0.002  0.008632  0.110011  0.001837  3.803778  0.002
C  C54  1  0.30767678  0.14469103  0.62678639  1  0.116934  -0.002497  3.809251  -0.002  0.120599  -0.002258  3.823397  -0.002  0.009977  0.114521  -0.002761  3.799899  -0.003
C  C55  1  0.69232648  0.85530802  0.37321756  1  0.116746  -0.002496  3.809468  -0.002  0.120408  -0.002258  3.823619  -0.002  0.009978  0.114332  -0.002763  3.800126  -0.003
C  C56  1  0.08946135  0.02850407  0.82343566  1  -0.215749  0.004929  3.968572  0.003  -0.226749  0.00301  3.988932  0.002  -0.103072  -0.209112  0.006242  3.955235  0.004
C  C57  1  0.91053839  0.97149302  0.17656274  1  -0.215795  0.004928  3.968651  0.003  -0.226808  0.003014  3.989007  0.002  -0.103094  -0.209154  0.006242  3.955325  0.004
C  C58  1  0.38023332  0.21677629  0.10175650  1  0.427258  0.015326  4.042958  0.013  0.458898  0.013808  4.045389  0.012  0.245898  0.405952  0.018026  4.040553  0.015
C  C59  1  0.61976744  0.78322080  0.89824487  1  0.427307  0.01533  4.042964  0.013  0.458954  0.013811  4.045379  0.012  0.245878  0.405988  0.01803  4.040562  0.015
C  C60  1  0.22351521  0.06600586  0.91076344  1  0.328602  0.001358  4.109721  0.002  0.349636  0.000192  4.125531  0.002  0.09935  0.3144  0.003419  4.098679  0.004
C  C61  1  0.77648514  0.93398926  0.08923579  1  0.328551  0.001357  4.109752  0.002  0.349579  0.000188  4.125563  0.002  0.099339  0.314342  0.003418  4.098709  0.004
C  C62  1  0.13014807  0.23284379  0.02553049  1  -0.075652  0.00134  4.013002  0.0  -0.070662  0.000465  4.034049  0.0  -0.085026  -0.078692  0.002445  3.99851  0.001
C  C63  1  0.86985206  0.76715034  0.97447224  1  -0.075701  0.001343  4.012976  0.0  -0.070713  0.000465  4.034025  0.0  -0.08506  -0.078748  0.002449  3.998476  0.001
C  C64  1  0.24353498  0.17109166  0.01324478  1  -0.179858  0.006925  4.05267  0.005  -0.197212  0.005014  4.078228  0.004  -0.032213  -0.168605  0.008656  4.03577  0.006
C  C65  1  0.75646516  0.82890248  0.98675612  1  -0.179927  0.006925  4.05269  0.005  -0.19728  0.005017  4.078243  0.004  -0.032267  -0.168645  0.008655  4.03576  0.006
C  C66  1  0.33761250  0.27008168  0.72585846  1  -0.021301  0.000921  3.774894  0.001  -0.013446  0.000787  3.777365  0.001  -0.056637  -0.026276  0.000918  3.773386  0.001
C  C67  1  0.66238580  0.72991837  0.27413907  1  -0.021311  0.000921  3.775005  0.001  -0.013464  0.000786  3.777484  0.001  -0.056652  -0.026288  0.000918  3.773503  0.001
C  C68  1  0.52576482  0.26518660  0.64360674  1  0.400785  0.013221  4.04116  0.011  0.438421  0.005372  4.036881  0.004  0.228055  0.375585  0.018617  4.044196  0.015
C  C69  1  0.47423844  0.73481737  0.35640052  1  0.400957  0.013243  4.041014  0.011  0.4386  0.005416  4.036717  0.004  0.228141  0.375755  0.018631  4.044051  0.015
C  C70  1  0.72464806  0.23388603  0.54809530  1  0.327431  0.004729  4.09251  0.003  0.351241  0.003012  4.106543  0.002  0.096133  0.310966  0.005759  4.084217  0.004
C  C71  1  0.27535541  0.76611401  0.45190880  1  0.327374  0.004754  4.092673  0.003  0.351191  0.003057  4.106704  0.002  0.096053  0.310903  0.005779  4.084376  0.004
C  C72  1  0.66755615  0.30954389  0.63412823  1  -0.170129  -0.007079  4.042046  -0.007  -0.187645  -0.005939  4.06404  -0.005  -0.034427  -0.160024  -0.007825  4.028638  -0.008
C  C73  1  0.33244670  0.69045812  0.36587506  1  -0.170184  -0.007103  4.042073  -0.007  -0.187709  -0.00599  4.064068  -0.005  -0.034426  -0.160078  -0.007849  4.028666  -0.008
C  C74  1  0.86167004  0.28479585  0.53763717  1  -0.225491  -0.007026  3.983985  -0.005  -0.235681  -0.005312  4.000645  -0.004  -0.112268  -0.219508  -0.008402  3.973566  -0.007
C  C75  1  0.13832929  0.71520419  0.46236240  1  -0.225519  -0.007041  3.983993  -0.006  -0.235707  -0.00535  4.000647  -0.004  -0.112257  -0.219532  -0.008417  3.973569  -0.007
C  C76  1  0.75105274  0.42694311  0.71033807  1  -0.076166  0.005589  3.997497  0.005  -0.068178  0.003966  4.012845  0.003  -0.087838  -0.080325  0.00737  3.986765  0.006
C  C77  1  0.24894701  0.57305890  0.28966181  1  -0.076121  0.0056  3.997466  0.005  -0.068129  0.004006  4.012813  0.003  -0.087798  -0.080285  0.007377  3.986733  0.006
C  C78  1  0.18317727  0.13483505  0.51100743  1  -0.161858  -0.000512  3.947555  -0.001  -0.163158  -0.000223  3.960952  0.0  -0.167376  -0.160703  -0.000631  3.938344  -0.001
C  C79  1  0.81682847  0.86516597  0.48899270  1  -0.16182  -0.000512  3.947623  -0.001  -0.163129  -0.000225  3.961039  0.0  -0.167383  -0.160659  -0.000632  3.938397  -0.001
C  C80  1  0.19572812  0.24849796  0.43619504  1  -0.353145  0.0  3.968855  0.0  -0.355952  -1.5e-05  3.981303  0.0  -0.249796  -0.350962  1.7e-05  3.960227  0.0
C  C81  1  0.80427680  0.75150405  0.56380594  1  -0.353025  1e-06  3.968739  0.0  -0.355843  -1.7e-05  3.981187  0.0  -0.24974  -0.350846  1.7e-05  3.960128  0.0
C  C82  1  0.88714387  0.47169039  0.70165402  1  -0.132002  -0.009099  4.071585  -0.007  -0.14052  -0.007169  4.092954  -0.006  -0.111059  -0.127019  -0.011095  4.057244  -0.009
C  C83  1  0.11285753  0.52830965  0.29834507  1  -0.131983  -0.009123  4.071561  -0.007  -0.140499  -0.007213  4.092926  -0.006  -0.111039  -0.127003  -0.011119  4.05723  -0.009
C  C84  1  0.94137252  0.40068780  0.61346612  1  -0.056914  0.006915  4.069892  0.006  -0.049224  0.004255  4.085863  0.004  -0.094548  -0.061338  0.009968  4.057925  0.008
C  C85  1  0.05862722  0.59931421  0.38653285  1  -0.056949  0.006927  4.069848  0.006  -0.049256  0.004294  4.085814  0.004  -0.094584  -0.061375  0.009978  4.057888  0.008
C  C86  1  0.98012799  0.09148223  0.83684420  1  -0.025812  0.001183  3.999011  0.0  -0.020569  0.000456  4.018897  0.0  -0.080869  -0.028663  0.001741  3.985268  0.0
C  C87  1  0.01987132  0.90851290  0.16315664  1  -0.025813  0.001187  3.998932  0.0  -0.020572  0.000453  4.018833  0.0  -0.080866  -0.028663  0.001744  3.985186  0.0
C  C88  1  0.72733785  0.32404692  0.15684887  1  -0.152704  0.000211  3.945535  0.0  -0.153892  -4.7e-05  3.959705  0.0  -0.161925  -0.151573  0.000393  3.93551  0.0
C  C89  1  0.27266293  0.67595509  0.84315398  1  -0.152729  0.000211  3.945551  0.0  -0.153915  -4.6e-05  3.959715  0.0  -0.161927  -0.151599  0.000393  3.935524  0.0
C  C90  1  0.67666816  0.41401541  0.06305365  1  -0.357957  -9.3e-05  3.949004  0.0  -0.360049  -0.000122  3.960294  0.0  -0.252092  -0.356358  -6.2e-05  3.941041  0.0
C  C91  1  0.32333220  0.58598463  0.93694796  1  -0.357971  -9.3e-05  3.949102  0.0  -0.360064  -0.000121  3.960389  0.0  -0.25212  -0.356372  -6.2e-05  3.941143  0.0
C  C92  1  0.99960936  0.19436680  0.93843273  1  -0.125807  0.009457  4.045107  0.007  -0.135001  0.007158  4.07005  0.005  -0.105346  -0.119849  0.010457  4.027914  0.007
C  C93  1  0.00039078  0.80562733  0.06157000  1  -0.125736  0.009456  4.044966  0.007  -0.134931  0.007162  4.06991  0.005  -0.105297  -0.119776  0.010456  4.027774  0.007
N  N94  1  0.49394430  0.16827704  0.10372613  1  -0.426414  -0.005358  3.412034  -0.026  -0.462069  -0.012573  3.425423  -0.033  -0.383294  -0.401797  -0.000319  3.403073  -0.021
N  N95  1  0.50605627  0.83172398  0.89627108  1  -0.42641  -0.005366  3.411988  -0.026  -0.462108  -0.01258  3.425479  -0.033  -0.383271  -0.401792  -0.000328  3.403032  -0.021
N  N96  1  0.44401258  0.15095360  0.59212576  1  -0.398902  0.001941  3.442033  0.011  -0.432619  0.006171  3.450445  0.015  -0.37956  -0.379354  0.000518  3.436334  0.009
N  N97  1  0.55600325  0.84904149  0.40789870  1  -0.398693  0.001923  3.441772  0.011  -0.432402  0.006138  3.450179  0.015  -0.379579  -0.379144  0.000503  3.436071  0.009
N  N98  1  0.36368841  0.02220997  0.31406727  1  -0.429468  0.061758  2.83915  0.063  -0.461574  0.057792  2.853023  0.061  -0.215323  -0.40792  0.061072  2.828669  0.061
N  N99  1  0.63621763  0.97782267  0.68584215  1  -0.429418  0.061692  2.840862  0.063  -0.461538  0.057738  2.854691  0.061  -0.215528  -0.407856  0.060975  2.830401  0.06
N  N100  1  0.37345593  0.95598673  0.22092549  1  0.41992  0.004818  4.478073  0.002  0.438689  -0.000527  4.517882  -0.003  0.099393  0.407466  0.01002  4.450758  0.008
N  N101  1  0.62651575  0.04401927  0.77903048  1  0.420014  0.004811  4.477673  0.002  0.438779  -0.000557  4.517443  -0.003  0.099286  0.407556  0.010016  4.450378  0.008
N  N102  1  0.37898319  0.89297057  0.12607272  1  -0.41173  0.042173  2.812729  0.031  -0.440343  0.040368  2.827934  0.031  -0.194003  -0.392032  0.041638  2.802603  0.029
N  N103  1  0.62105002  0.10701371  0.87392035  1  -0.411391  0.042113  2.811822  0.031  -0.439973  0.040433  2.827053  0.031  -0.193628  -0.391735  0.041508  2.801713  0.029
O  O104  1  0.32471349  0.00456538  0.89065602  1  -0.516627  0.030358  2.457007  0.014  -0.560765  0.018414  2.454143  0.001  -0.321531  -0.485047  0.041164  2.458728  0.025
O  O105  1  0.67529143  0.99543663  0.10934222  1  -0.5166  0.03036  2.457085  0.014  -0.560726  0.018414  2.454216  0.001  -0.321464  -0.485001  0.041169  2.458778  0.025
O  O106  1  0.46912037  0.34751699  0.71393951  1  -0.226537  0.004057  2.458629  0.004  -0.243267  0.001804  2.453109  0.002  -0.167714  -0.215734  0.005221  2.462269  0.005
O  O107  1  0.53087216  0.65248995  0.28605300  1  -0.226637  0.004063  2.458601  0.004  -0.243355  0.001817  2.453069  0.002  -0.167775  -0.215833  0.005225  2.462247  0.005
O  O108  1  0.39540253  0.32081633  0.19271444  1  -0.20694  0.006534  2.462029  0.007  -0.227876  0.004694  2.461068  0.005  -0.151357  -0.192004  0.009083  2.461914  0.01
O  O109  1  0.60459617  0.67918076  0.80728467  1  -0.207037  0.006536  2.462018  0.007  -0.227976  0.004695  2.46105  0.005  -0.151382  -0.192095  0.009085  2.461897  0.01
O  O110  1  0.65521492  0.12084400  0.47612771  1  -0.496612  -0.033542  2.444014  -0.022  -0.542129  -0.028387  2.441133  -0.016  -0.31438  -0.467122  -0.03901  2.445409  -0.028
O  O111  1  0.34478645  0.87915112  0.52388454  1  -0.496539  -0.03357  2.443963  -0.022  -0.542055  -0.028396  2.441068  -0.016  -0.314319  -0.467068  -0.039045  2.445412  -0.028
