# generated using pymatgen
data_MnH8C10N3ClO2
_symmetry_space_group_name_H-M   'P 1'
_cell_length_a   7.88418757
_cell_length_b   8.48410195
_cell_length_c   8.99780962
_cell_angle_alpha   91.13442045
_cell_angle_beta   103.72820817
_cell_angle_gamma   109.63638592
_symmetry_Int_Tables_number   1
_chemical_formula_structural   MnH8C10N3ClO2
_chemical_formula_sum   'Mn2 H16 C20 N6 Cl2 O4'
_cell_volume   547.40068556
_cell_formula_units_Z   2
loop_
 _symmetry_equiv_pos_site_id
 _symmetry_equiv_pos_as_xyz
  1  'x, y, z'
loop_
 _atom_site_type_symbol
 _atom_site_label
 _atom_site_symmetry_multiplicity
 _atom_site_fract_x
 _atom_site_fract_y
 _atom_site_fract_z
 _atom_site_occupancy
 _atom_site_hle17_ddec_charge
 _atom_site_hle17_ddec_spin_density
 _atom_site_hle17_ddec_sum_bond_order
 _atom_site_hle17_magmom
 _atom_site_hse06_10hf_ddec_charge
 _atom_site_hse06_10hf_ddec_spin_density
 _atom_site_hse06_10hf_ddec_sum_bond_order
 _atom_site_hse06_10hf_magmom
 _atom_site_hse06_ddec_charge
 _atom_site_hse06_ddec_spin_density
 _atom_site_hse06_ddec_sum_bond_order
 _atom_site_hse06_magmom
 _atom_site_pbe_cm5_charge
 _atom_site_pbe_ddec_charge
 _atom_site_pbe_ddec_spin_density
 _atom_site_pbe_ddec_sum_bond_order
 _atom_site_pbe_magmom
Mn  Mn0  1  0.44259288  0.30299123  0.38021971  1  0.966025  4.789416  1.945711  4.647  0.800569  4.716981  2.452595  4.503  0.862489  4.762794  2.389144  4.573  0.50827  0.752086  4.67126  2.498549  4.436
Mn  Mn1  1  0.55739825  0.69699807  0.61978157  1  0.965931  4.789416  1.945858  4.647  0.800489  4.716993  2.452709  4.503  0.862406  4.762802  2.389271  4.573  0.508232  0.752004  4.671271  2.498658  4.436
H  H2  1  0.94429603  0.08787824  0.20943235  1  0.133308  -4.4e-05  0.962361  0.0  0.143599  0.000262  1.021843  0.0  0.146923  0.000114  1.019265  0.0  0.129416  0.141029  0.00042  1.023863  0.0
H  H3  1  0.05570035  0.91212114  0.79055911  1  0.133312  -4.5e-05  0.962358  0.0  0.143589  0.000262  1.021854  0.0  0.14691  0.000114  1.019277  0.0  0.129391  0.141012  0.00042  1.023885  0.0
H  H4  1  0.72607919  0.15237640  0.94385035  1  0.144691  4.9e-05  0.934468  0.0  0.157347  0.000103  0.985472  0.0  0.160956  3.7e-05  0.984536  0.0  0.118576  0.154734  0.000174  0.986313  0.0
H  H5  1  0.27393028  0.84764940  0.05614658  1  0.144734  4.7e-05  0.934582  0.0  0.157347  0.000103  0.985612  0.0  0.161005  3.7e-05  0.984612  0.0  0.118612  0.154737  0.000174  0.986448  0.0
H  H6  1  0.46419817  0.24068864  0.80433886  1  0.126501  -0.000138  0.953396  0.0  0.134751  -0.000154  1.014315  0.0  0.13911  -0.000238  1.011963  0.0  0.111111  0.13146  -5.6e-05  1.016291  0.0
H  H7  1  0.53580863  0.75932706  0.19566397  1  0.126437  -0.000137  0.953486  0.0  0.134659  -0.000154  1.014431  0.0  0.139049  -0.000238  1.012041  0.0  0.111091  0.131372  -5.6e-05  1.016406  0.0
H  H8  1  0.20297189  0.33643550  0.68780825  1  0.089508  -0.000548  0.983936  0.0  0.098348  -0.000201  1.05035  0.0  0.101048  -0.000345  1.048302  0.0  0.097926  0.096154  -4e-05  1.052199  0.0
H  H9  1  0.79703003  0.66357770  0.31219798  1  0.089453  -0.00055  0.984044  0.0  0.098359  -0.000201  1.050397  0.0  0.101059  -0.000346  1.04834  0.0  0.097946  0.096164  -4e-05  1.05225  0.0
H  H10  1  0.02349964  0.41176348  0.85745037  1  0.101323  0.000218  0.954016  0.0  0.112799  0.000326  1.012555  0.0  0.115879  0.00021  1.011478  0.0  0.105231  0.110486  0.000452  1.013616  0.0
H  H11  1  0.97650989  0.58824588  0.14255844  1  0.101246  0.00022  0.954007  0.0  0.112736  0.000326  1.012536  0.0  0.115807  0.00021  1.011485  0.0  0.105235  0.110423  0.000452  1.013596  0.0
H  H12  1  0.13145820  0.40413681  0.14323336  1  0.063259  8.1e-05  0.987102  0.0  0.06761  0.000718  1.061677  0.001  0.070152  0.000431  1.059376  0.0  0.102394  0.065635  0.001017  1.063539  0.001
H  H13  1  0.86854264  0.59586378  0.85677348  1  0.063267  8.2e-05  0.987122  0.0  0.067631  0.000718  1.061667  0.001  0.070172  0.000431  1.059369  0.0  0.102408  0.065656  0.001017  1.06353  0.001
H  H14  1  0.82974061  0.25056496  0.54452244  1  0.127599  0.000183  0.92564  0.0  0.139895  0.000842  0.988699  0.0  0.142424  0.000489  0.986591  0.0  0.120704  0.137902  0.001219  0.990548  0.001
H  H15  1  0.17024880  0.74941679  0.45547165  1  0.127515  0.000184  0.925596  0.0  0.139826  0.000842  0.988651  0.0  0.142353  0.000489  0.986543  0.0  0.120661  0.13784  0.001219  0.990519  0.001
H  H16  1  0.98409151  0.16256294  0.49115811  1  0.114662  -0.000163  0.939362  0.0  0.126745  5.3e-05  1.005384  0.0  0.128244  -8.9e-05  1.005076  0.0  0.120647  0.125591  0.000209  1.005782  0.001
H  H17  1  0.01590119  0.83742385  0.50883454  1  0.114665  -0.000164  0.939359  0.0  0.12674  5.2e-05  1.005384  0.0  0.128237  -8.9e-05  1.005074  0.0  0.12065  0.125603  0.000209  1.005785  0.001
C  C18  1  0.82706422  0.13170620  0.19179900  1  0.004825  0.00625  3.631591  0.005  -0.056827  0.007744  3.892445  0.006  -0.049465  0.006769  3.906474  0.005  0.028131  -0.061227  0.008933  3.883029  0.007
C  C19  1  0.17293267  0.86829444  0.80819370  1  0.00474  0.006261  3.631639  0.005  -0.056817  0.007746  3.892469  0.006  -0.049448  0.006771  3.906513  0.005  0.028146  -0.061212  0.008935  3.883055  0.007
C  C20  1  0.71583337  0.16570670  0.06120192  1  -0.223094  -0.000995  3.723408  -0.001  -0.245465  0.000954  3.992671  0.0  -0.255062  -0.000145  4.013032  0.0  -0.104271  -0.239151  0.001979  3.978837  0.001
C  C21  1  0.28417223  0.83430270  0.93879720  1  -0.223167  -0.000999  3.723588  -0.001  -0.245458  0.000953  3.99284  0.0  -0.255096  -0.000147  4.01318  0.0  -0.104291  -0.239155  0.001979  3.979002  0.001
C  C22  1  0.58752877  0.21883613  0.11504196  1  0.125677  0.003966  3.82225  0.004  0.112428  0.006871  4.087501  0.007  0.119133  0.005935  4.108013  0.006  0.100033  0.108184  0.007927  4.073311  0.007
C  C23  1  0.41247273  0.78116951  0.88495846  1  0.125768  0.003984  3.822097  0.004  0.112458  0.006869  4.087487  0.007  0.11916  0.00594  4.108012  0.006  0.100077  0.108242  0.007927  4.073261  0.007
C  C24  1  0.43657366  0.27379348  0.03628592  1  0.192638  0.002734  3.784548  0.003  0.19278  0.005382  4.019681  0.005  0.200161  0.004343  4.039489  0.004  0.125364  0.187443  0.006875  4.006398  0.006
C  C25  1  0.56343034  0.72621846  0.96371515  1  0.192689  0.002735  3.784511  0.003  0.192786  0.005381  4.019785  0.005  0.200164  0.004343  4.039597  0.004  0.125369  0.187437  0.006874  4.006501  0.006
C  C26  1  0.38875454  0.27832321  0.87700489  1  -0.140342  -0.001828  3.679211  -0.001  -0.161604  -0.000645  3.931501  0.0  -0.168408  -0.001654  3.950544  -0.001  -0.077871  -0.157199  4.3e-05  3.919317  0.0
C  C27  1  0.61124785  0.72169127  0.12299479  1  -0.140306  -0.001837  3.679286  -0.001  -0.161512  -0.000645  3.931615  0.0  -0.168333  -0.001657  3.95064  -0.001  -0.077871  -0.15711  4.3e-05  3.919442  0.0
C  C28  1  0.23959134  0.32884890  0.81132751  1  0.01057  0.003911  3.709116  0.003  -0.013366  0.006095  3.968138  0.004  -0.008632  0.005161  3.984011  0.004  -0.066594  -0.016745  0.007627  3.958084  0.005
C  C29  1  0.76041757  0.67116552  0.18867684  1  0.01056  0.003923  3.709133  0.003  -0.013443  0.006094  3.968154  0.004  -0.008701  0.005163  3.984019  0.004  -0.066569  -0.016818  0.007626  3.958083  0.005
C  C30  1  0.14180901  0.37296929  0.90549105  1  -0.120621  -0.002202  3.731961  -0.001  -0.134826  -0.001059  3.984739  -0.001  -0.140533  -0.002024  4.004159  -0.001  -0.087089  -0.131248  -0.000341  3.972115  0.0
C  C31  1  0.85819682  0.62704388  0.09451820  1  -0.12042  -0.002222  3.731963  -0.001  -0.134627  -0.001058  3.984745  -0.001  -0.140336  -0.002027  4.004165  -0.001  -0.087096  -0.131049  -0.00034  3.972121  0.0
C  C32  1  0.19987795  0.36813561  0.06337939  1  0.130714  0.004446  3.728801  0.004  0.10206  0.006869  3.978514  0.006  0.108861  0.005811  3.997166  0.005  0.048525  0.097354  0.00829  3.966031  0.007
C  C33  1  0.80012979  0.63187249  0.93663014  1  0.130671  0.004457  3.728669  0.004  0.10205  0.006868  3.978372  0.006  0.108849  0.005815  3.997021  0.005  0.04854  0.097341  0.00829  3.965889  0.007
C  C34  1  0.83677547  0.14708896  0.47356942  1  -0.180403  -0.001084  3.631953  -0.001  -0.254186  0.000923  3.875327  0.0  -0.255461  0.000174  3.881321  0.0  -0.045743  -0.253321  0.001721  3.871794  0.0
C  C35  1  0.16321754  0.85289529  0.52642435  1  -0.180329  -0.001087  3.631669  -0.001  -0.254074  0.000924  3.875131  0.0  -0.255337  0.000169  3.881111  0.0  -0.045711  -0.253284  0.001721  3.871684  0.0
C  C36  1  0.73568881  0.98083436  0.52857277  1  0.664663  0.005168  3.867968  0.003  0.618734  0.00984  4.169625  0.006  0.651903  0.007872  4.165297  0.005  0.203319  0.595882  0.011656  4.17109  0.007
C  C37  1  0.26431431  0.01915234  0.47142424  1  0.664959  0.005166  3.867696  0.003  0.619043  0.009839  4.169322  0.006  0.652214  0.00787  4.164991  0.005  0.203493  0.596209  0.011655  4.170791  0.007
N  N38  1  0.76533775  0.16457758  0.31357956  1  0.124068  0.001926  3.57715  0.003  0.236653  0.004166  3.759897  0.005  0.230798  0.00284  3.782889  0.004  -0.128159  0.239831  0.00559  3.744724  0.007
N  N39  1  0.23465545  0.83541046  0.68641544  1  0.124131  0.001929  3.57706  0.003  0.236537  0.004167  3.760014  0.005  0.230674  0.00284  3.783006  0.004  -0.128226  0.239734  0.00559  3.744852  0.007
N  N40  1  0.61955953  0.21699434  0.26917271  1  -0.30519  0.027205  3.086899  0.015  -0.27566  0.030627  3.365826  0.013  -0.292998  0.026585  3.380492  0.01  -0.23397  -0.262978  0.034389  3.35583  0.016
N  N41  1  0.38043519  0.78299746  0.73082603  1  -0.305228  0.027182  3.086827  0.014  -0.275631  0.030627  3.365868  0.013  -0.292968  0.02658  3.380535  0.01  -0.233982  -0.262953  0.034388  3.355853  0.016
N  N42  1  0.34396728  0.32034797  0.12833588  1  -0.357103  0.027034  3.237524  0.015  -0.286848  0.03031  3.496883  0.014  -0.30766  0.025984  3.513753  0.011  -0.317556  -0.271791  0.034568  3.485302  0.017
N  N43  1  0.65603655  0.67966017  0.87167062  1  -0.357157  0.027024  3.237338  0.015  -0.28695  0.030311  3.496799  0.014  -0.307759  0.025981  3.513664  0.011  -0.317633  -0.271894  0.034568  3.485221  0.017
Cl  Cl44  1  0.73179719  0.52118435  0.55442729  1  -0.551371  0.08087  1.025796  0.046  -0.491  0.107959  1.332687  0.054  -0.51435  0.093477  1.303481  0.044  -0.229426  -0.471464  0.121408  1.352801  0.063
Cl  Cl45  1  0.26819195  0.47879990  0.44557903  1  -0.551402  0.080873  1.025844  0.046  -0.490988  0.107959  1.332699  0.054  -0.514339  0.093481  1.303496  0.044  -0.229445  -0.471453  0.121409  1.352814  0.063
O  O46  1  0.58954015  0.87282391  0.44068565  1  -0.615577  0.029191  1.970604  0.023  -0.552888  0.03317  2.214451  0.024  -0.584193  0.028505  2.206554  0.02  -0.309675  -0.52929  0.037806  2.218457  0.029
O  O47  1  0.41045868  0.12715525  0.55931254  1  -0.615592  0.029187  1.970402  0.023  -0.553027  0.033169  2.214402  0.024  -0.584299  0.028506  2.206435  0.02  -0.309733  -0.529431  0.037806  2.218401  0.029
O  O48  1  0.80577432  0.95699060  0.66490103  1  -0.626304  0.024359  1.923022  0.02  -0.57159  0.031855  2.159809  0.026  -0.601284  0.02696  2.151982  0.022  -0.319243  -0.549288  0.036863  2.163992  0.031
O  O49  1  0.19422380  0.04299992  0.33509615  1  -0.626504  0.024364  1.922981  0.02  -0.571781  0.031859  2.15978  0.026  -0.601477  0.026964  2.151942  0.022  -0.319341  -0.54948  0.036869  2.163957  0.031
