# generated using pymatgen
data_ZnH7C8N5O2
_symmetry_space_group_name_H-M   'P 1'
_cell_length_a   9.60615593
_cell_length_b   12.00907737
_cell_length_c   12.00915606
_cell_angle_alpha   90.41752229
_cell_angle_beta   109.35841323
_cell_angle_gamma   109.35794616
_symmetry_Int_Tables_number   1
_chemical_formula_structural   ZnH7C8N5O2
_chemical_formula_sum   'Zn4 H28 C32 N20 O8'
_cell_volume   1222.44195407
_cell_formula_units_Z   4
loop_
 _symmetry_equiv_pos_site_id
 _symmetry_equiv_pos_as_xyz
  1  'x, y, z'
loop_
 _atom_site_type_symbol
 _atom_site_label
 _atom_site_symmetry_multiplicity
 _atom_site_fract_x
 _atom_site_fract_y
 _atom_site_fract_z
 _atom_site_occupancy
 _atom_site_hle17_bader_spin_density
 _atom_site_hle17_ddec_charge
 _atom_site_hle17_ddec_spin_density
 _atom_site_hle17_ddec_sum_bond_order
 _atom_site_hle17_magmom
 _atom_site_hse06_10hf_bader_spin_density
 _atom_site_hse06_10hf_ddec_charge
 _atom_site_hse06_10hf_ddec_spin_density
 _atom_site_hse06_10hf_ddec_sum_bond_order
 _atom_site_hse06_10hf_magmom
 _atom_site_hse06_bader_spin_density
 _atom_site_hse06_ddec_charge
 _atom_site_hse06_ddec_spin_density
 _atom_site_hse06_ddec_sum_bond_order
 _atom_site_hse06_magmom
 _atom_site_pbe_bader_spin_density
 _atom_site_pbe_cm5_charge
 _atom_site_pbe_ddec_charge
 _atom_site_pbe_ddec_spin_density
 _atom_site_pbe_ddec_sum_bond_order
 _atom_site_pbe_magmom
Zn  Zn0  1  0.84818966  0.37418631  0.15509566  1  0  0.930108  0  1.946328  0  0  0.727077  0  2.430008  0  0  0.770354  0  2.381019  0  0  0.729184  0.697023  0  2.463822  0
Zn  Zn1  1  0.65180706  0.84490294  0.62581269  1  0  0.930135  0  1.946295  0  0  0.727078  0  2.429986  0  0  0.77036  0  2.380995  0  0  0.729186  0.697028  0  2.463784  0
Zn  Zn2  1  0.15181102  0.62581376  0.84490386  1  0  0.930157  0  1.946309  0  0  0.727091  0  2.430001  0  0  0.770371  0  2.381015  0  0  0.729193  0.697036  0  2.463807  0
Zn  Zn3  1  0.34819320  0.15509624  0.37418671  1  0  0.930129  0  1.946316  0  0  0.727082  0  2.430002  0  0  0.77036  0  2.381013  0  0  0.729185  0.69703  0  2.46382  0
H  H4  1  0.19354205  0.73401032  0.48517463  1  0  0.121772  0  0.945594  0  0  0.129914  0  1.005419  0  0  0.133059  0  1.00525  0  0  0.115382  0.127594  0  1.005771  0
H  H5  1  0.30644972  0.51482808  0.26598925  1  0  0.121757  0  0.945496  0  0  0.12988  0  1.005353  0  0  0.133029  0  1.005182  0  0  0.115358  0.127569  0  1.005703  0
H  H6  1  0.80645634  0.26598974  0.51483093  1  0  0.121758  0  0.945648  0  0  0.129882  0  1.005499  0  0  0.133029  0  1.005326  0  0  0.115365  0.127568  0  1.005844  0
H  H7  1  0.69354740  0.48517379  0.73400931  1  0  0.121761  0  0.945534  0  0  0.12989  0  1.005385  0  0  0.133037  0  1.005217  0  0  0.115372  0.127574  0  1.005736  0
H  H8  1  0.98740480  0.75609691  0.11193940  1  0  0.121845  0  0.963533  0  0  0.121589  0  1.038807  0  0  0.126057  0  1.035646  0  0  0.109455  0.118352  0  1.041197  0
H  H9  1  0.51259555  0.88806534  0.24390001  1  0  0.121776  0  0.963582  0  0  0.121519  0  1.038863  0  0  0.125984  0  1.0357  0  0  0.109409  0.118281  0  1.041242  0
H  H10  1  0.01260467  0.24390313  0.88806419  1  0  0.121843  0  0.963523  0  0  0.12159  0  1.03881  0  0  0.126061  0  1.035653  0  0  0.109463  0.118358  0  1.041196  0
H  H11  1  0.48740667  0.11193563  0.75609911  1  0  0.121805  0  0.963571  0  0  0.121547  0  1.038853  0  0  0.126013  0  1.035691  0  0  0.109426  0.118311  0  1.041235  0
H  H12  1  0.33211528  0.95759433  0.51666529  1  0  0.091876  0  0.956642  0  0  0.094911  0  1.02846  0  0  0.098253  0  1.025012  0  0  0.118015  0.092419  0  1.031039  0
H  H13  1  0.16788285  0.48333527  0.04240443  1  0  0.091912  0  0.956539  0  0  0.094947  0  1.028373  0  0  0.09829  0  1.024924  0  0  0.118033  0.092459  0  1.030953  0
H  H14  1  0.66788448  0.04240394  0.48333980  1  0  0.091895  0  0.956543  0  0  0.094929  0  1.028386  0  0  0.098273  0  1.024937  0  0  0.118039  0.09244  0  1.030956  0
H  H15  1  0.83211581  0.51666749  0.95759372  1  0  0.09187  0  0.956627  0  0  0.094913  0  1.028435  0  0  0.098256  0  1.024987  0  0  0.118035  0.092424  0  1.031018  0
H  H16  1  0.12971144  0.97745143  0.15722356  1  0  0.084556  0  0.928396  0  0  0.09191  0  0.990736  0  0  0.094721  0  0.98835  0  0  0.121001  0.089793  0  0.9926  0
H  H17  1  0.37028701  0.84277863  0.02254896  1  0  0.08453  0  0.928454  0  0  0.091881  0  0.990799  0  0  0.094693  0  0.988412  0  0  0.120976  0.089765  0  0.992655  0
H  H18  1  0.87029709  0.02255129  0.84277978  1  0  0.084558  0  0.928393  0  0  0.091908  0  0.990734  0  0  0.094718  0  0.988347  0  0  0.120988  0.089796  0  0.992592  0
H  H19  1  0.62971384  0.15722411  0.97745062  1  0  0.084576  0  0.928367  0  0  0.09193  0  0.990706  0  0  0.09474  0  0.988321  0  0  0.12099  0.089811  0  0.992564  0
H  H20  1  0.22268812  0.34606479  0.48260719  1  0  0.148238  0  0.936179  0  0  0.168849  0  0.991644  0  0  0.170786  0  0.991177  0  0  0.106196  0.167483  0  0.991936  0
H  H21  1  0.27730509  0.51738842  0.65392703  1  0  0.148155  0  0.936147  0  0  0.168858  0  0.991527  0  0  0.170795  0  0.991061  0  0  0.106216  0.167488  0  0.99181  0
H  H22  1  0.77731146  0.65393529  0.51739204  1  0  0.14821  0  0.936194  0  0  0.168837  0  0.991649  0  0  0.170774  0  0.991183  0  0  0.106192  0.167465  0  0.991933  0
H  H23  1  0.72268453  0.48260904  0.34606113  1  0  0.148225  0  0.936198  0  0  0.168852  0  0.991634  0  0  0.170789  0  0.991168  0  0  0.106186  0.167485  0  0.991914  0
H  H24  1  0.04587678  0.22048310  0.45061115  1  0  0.132201  0  0.924601  0  0  0.151537  0  0.982695  0  0  0.15302  0  0.982662  0  0  0.100476  0.150469  0  0.98275  0
H  H25  1  0.45412082  0.54938424  0.77950926  1  0  0.132235  0  0.924582  0  0  0.151546  0  0.982715  0  0  0.15303  0  0.982681  0  0  0.100487  0.150476  0  0.982777  0
H  H26  1  0.95412388  0.77951696  0.54939003  1  0  0.13219  0  0.92462  0  0  0.151521  0  0.98272  0  0  0.153006  0  0.982685  0  0  0.100465  0.150448  0  0.98278  0
H  H27  1  0.54587039  0.45060964  0.22048182  1  0  0.132238  0  0.924539  0  0  0.151549  0  0.982662  0  0  0.153032  0  0.982628  0  0  0.100465  0.150481  0  0.982721  0
H  H28  1  0.03665618  0.36415786  0.41921317  1  0  0.155309  0  0.957614  0  0  0.170373  0  1.022358  0  0  0.173557  0  1.019981  0  0  0.103897  0.168069  0  1.024089  0
H  H29  1  0.46333702  0.58078678  0.63583522  1  0  0.155301  0  0.957584  0  0  0.170352  0  1.022355  0  0  0.173539  0  1.019979  0  0  0.103864  0.168048  0  1.024089  0
H  H30  1  0.96334076  0.63584133  0.58078699  1  0  0.15531  0  0.957616  0  0  0.170371  0  1.022362  0  0  0.173555  0  1.019986  0  0  0.103901  0.168066  0  1.024089  0
H  H31  1  0.53665409  0.41921156  0.36415585  1  0  0.155326  0  0.957607  0  0  0.170377  0  1.022366  0  0  0.173564  0  1.019987  0  0  0.103896  0.168072  0  1.024106  0
C  C32  1  0.99638744  0.59635423  0.27887408  1  0  0.615163  0  3.949537  0  0  0.568337  0  4.24018  0  0  0.601  0  4.233614  0  0  0.200291  0.546197  0  4.243807  0
C  C33  1  0.50360977  0.72113572  0.40364025  1  0  0.615064  0  3.949471  0  0  0.568293  0  4.240059  0  0  0.600958  0  4.233493  0  0  0.200204  0.54614  0  4.243714  0
C  C34  1  0.00361410  0.40364762  0.72112486  1  0  0.615269  0  3.949399  0  0  0.568425  0  4.240062  0  0  0.601089  0  4.233495  0  0  0.200324  0.546279  0  4.243699  0
C  C35  1  0.49639004  0.27886257  0.59636069  1  0  0.614949  0  3.949348  0  0  0.568193  0  4.239918  0  0  0.600859  0  4.233357  0  0  0.200198  0.54605  0  4.243549  0
C  C36  1  0.10466977  0.27951454  0.29973901  1  0  0.421946  0  3.721644  0  0  0.399653  0  3.985379  0  0  0.414733  0  4.000662  0  0  0.236603  0.389597  0  3.974813  0
C  C37  1  0.39532700  0.70025829  0.72048086  1  0  0.421854  0  3.721674  0  0  0.399568  0  3.985407  0  0  0.414655  0  4.000694  0  0  0.236668  0.389515  0  3.974837  0
C  C38  1  0.89532759  0.72048554  0.70026044  1  0  0.42191  0  3.721748  0  0  0.39965  0  3.985426  0  0  0.414736  0  4.00071  0  0  0.236641  0.389599  0  3.974851  0
C  C39  1  0.60466916  0.29973914  0.27951409  1  0  0.42201  0  3.721519  0  0  0.399682  0  3.9853  0  0  0.414761  0  4.000584  0  0  0.23665  0.389628  0  3.974732  0
C  C40  1  0.07814718  0.72954319  0.29714323  1  0  0.003462  0  3.712673  0  0  0.02252  0  3.940894  0  0  0.020363  0  3.96201  0  0  0.008483  0.023995  0  3.926638  0
C  C41  1  0.42185013  0.70285933  0.27045741  1  0  0.003576  0  3.712466  0  0  0.022589  0  3.94072  0  0  0.020431  0  3.961836  0  0  0.008533  0.024064  0  3.926472  0
C  C42  1  0.92185935  0.27045774  0.70286372  1  0  0.003323  0  3.712702  0  0  0.022408  0  3.940925  0  0  0.020251  0  3.962044  0  0  0.008451  0.023887  0  3.926672  0
C  C43  1  0.57814850  0.29714342  0.72954240  1  0  0.00361  0  3.712495  0  0  0.022614  0  3.940745  0  0  0.020455  0  3.961862  0  0  0.008547  0.024095  0  3.926483  0
C  C44  1  0.17708443  0.78653992  0.41167052  1  0  -0.117231  0  3.705462  0  0  -0.139088  0  3.953472  0  0  -0.145152  0  3.975522  0  0  -0.073738  -0.135204  0  3.938806  0
C  C45  1  0.32291043  0.58833282  0.21345534  1  0  -0.117179  0  3.705407  0  0  -0.139016  0  3.95344  0  0  -0.145083  0  3.975493  0  0  -0.07368  -0.13514  0  3.938789  0
C  C46  1  0.82291398  0.21346014  0.58833338  1  0  -0.117135  0  3.705518  0  0  -0.138985  0  3.953536  0  0  -0.14505  0  3.975589  0  0  -0.073699  -0.135108  0  3.938872  0
C  C47  1  0.67708780  0.41166905  0.78654352  1  0  -0.117227  0  3.70547  0  0  -0.139072  0  3.953509  0  0  -0.145138  0  3.975561  0  0  -0.073739  -0.135195  0  3.938851  0
C  C48  1  0.06025817  0.79770885  0.20294352  1  0  -0.112999  0  3.686515  0  0  -0.132112  0  3.930307  0  0  -0.137873  0  3.951862  0  0  -0.072601  -0.128347  0  3.915899  0
C  C49  1  0.43974135  0.79705951  0.20228920  1  0  -0.112972  0  3.686426  0  0  -0.132065  0  3.930213  0  0  -0.13782  0  3.951764  0  0  -0.072559  -0.128286  0  3.915787  0
C  C50  1  0.93974954  0.20229209  0.79705792  1  0  -0.112934  0  3.68654  0  0  -0.132089  0  3.930369  0  0  -0.137858  0  3.951929  0  0  -0.072634  -0.12832  0  3.915965  0
C  C51  1  0.56025864  0.20294146  0.79771098  1  0  -0.112998  0  3.686418  0  0  -0.132097  0  3.930204  0  0  -0.137855  0  3.951755  0  0  -0.072584  -0.128328  0  3.915783  0
C  C52  1  0.25398726  0.90900306  0.42902219  1  0  0.127019  0  3.676612  0  0  0.096716  0  3.924644  0  0  0.103101  0  3.942114  0  0  0.048426  0.092564  0  3.912914  0
C  C53  1  0.24601584  0.57098202  0.09099939  1  0  0.126943  0  3.676715  0  0  0.096628  0  3.924761  0  0  0.103011  0  3.942234  0  0  0.048375  0.092472  0  3.91303  0
C  C54  1  0.74601789  0.09099966  0.57098606  1  0  0.126949  0  3.676804  0  0  0.096636  0  3.924847  0  0  0.103019  0  3.942321  0  0  0.048368  0.092485  0  3.913109  0
C  C55  1  0.75398254  0.42902252  0.90899954  1  0  0.127027  0  3.676569  0  0  0.096716  0  3.924607  0  0  0.103101  0  3.942076  0  0  0.048373  0.092566  0  3.912886  0
C  C56  1  0.14030985  0.92012794  0.22733738  1  0  0.124898  0  3.687184  0  0  0.094793  0  3.933482  0  0  0.100252  0  3.952971  0  0  0.051158  0.091297  0  3.92027  0
C  C57  1  0.35968991  0.77266641  0.07987359  1  0  0.124951  0  3.687218  0  0  0.094834  0  3.933508  0  0  0.100293  0  3.952996  0  0  0.051222  0.091328  0  3.920285  0
C  C58  1  0.85969711  0.07987388  0.77266886  1  0  0.124973  0  3.686981  0  0  0.094887  0  3.933274  0  0  0.100348  0  3.952761  0  0  0.05125  0.091382  0  3.920069  0
C  C59  1  0.64031026  0.22733723  0.92012581  1  0  0.124906  0  3.687286  0  0  0.094798  0  3.933585  0  0  0.100258  0  3.953072  0  0  0.051196  0.091298  0  3.920369  0
C  C60  1  0.10116629  0.30404010  0.41974164  1  0  -0.405481  0  3.677955  0  0  -0.48327  0  3.911716  0  0  -0.487418  0  3.916605  0  0  -0.231991  -0.480193  0  3.908203  0
C  C61  1  0.39882833  0.58025368  0.69595337  1  0  -0.405412  0  3.677764  0  0  -0.483248  0  3.911512  0  0  -0.487401  0  3.916401  0  0  -0.232011  -0.48016  0  3.907997  0
C  C62  1  0.89883287  0.69595909  0.58025746  1  0  -0.405396  0  3.677975  0  0  -0.483206  0  3.911729  0  0  -0.487356  0  3.916615  0  0  -0.231965  -0.480119  0  3.908207  0
C  C63  1  0.60116328  0.41974109  0.30403865  1  0  -0.405531  0  3.677899  0  0  -0.483284  0  3.911673  0  0  -0.487433  0  3.91656  0  0  -0.231977  -0.480203  0  3.908157  0
N  N64  1  0.02190425  0.30788453  0.19699638  1  0  -0.365111  0  3.210695  0  0  -0.293219  0  3.520677  0  0  -0.313001  0  3.530775  0  0  -0.248892  -0.279819  0  3.513659  0
N  N65  1  0.47809204  0.80300132  0.69211220  1  0  -0.365135  0  3.210722  0  0  -0.293256  0  3.520699  0  0  -0.313036  0  3.530793  0  0  -0.248983  -0.279866  0  3.513688  0
N  N66  1  0.97809408  0.69211288  0.80300165  1  0  -0.365213  0  3.210742  0  0  -0.293343  0  3.52072  0  0  -0.313124  0  3.530816  0  0  -0.248971  -0.279944  0  3.5137  0
N  N67  1  0.52190697  0.19699519  0.30788601  1  0  -0.365196  0  3.210693  0  0  -0.293313  0  3.520725  0  0  -0.313095  0  3.530824  0  0  -0.248965  -0.279919  0  3.513716  0
N  N68  1  0.23498996  0.97475117  0.33826666  1  0  -0.320822  0  3.311473  0  0  -0.233854  0  3.586352  0  0  -0.251555  0  3.600845  0  0  -0.331237  -0.221888  0  3.576468  0
N  N69  1  0.26500929  0.66173501  0.02524789  1  0  -0.320798  0  3.311384  0  0  -0.233816  0  3.586256  0  0  -0.251516  0  3.600749  0  0  -0.331236  -0.221826  0  3.576351  0
N  N70  1  0.76501264  0.02525067  0.66173589  1  0  -0.320884  0  3.31157  0  0  -0.233917  0  3.586448  0  0  -0.251617  0  3.60094  0  0  -0.331245  -0.221942  0  3.576555  0
N  N71  1  0.73499045  0.33826775  0.97475140  1  0  -0.320813  0  3.311306  0  0  -0.233847  0  3.586194  0  0  -0.251546  0  3.600684  0  0  -0.331201  -0.221877  0  3.576311  0
N  N72  1  0.06161348  0.26889632  0.10921330  1  0  -0.077363  0  2.974182  0  0  -0.072346  0  3.273177  0  0  -0.071401  0  3.283866  0  0  -0.091716  -0.0728  0  3.265938  0
N  N73  1  0.43838553  0.89078565  0.73110149  1  0  -0.077331  0  2.974213  0  0  -0.072307  0  3.273208  0  0  -0.071361  0  3.283893  0  0  -0.091686  -0.07276  0  3.265965  0
N  N74  1  0.93838636  0.73110197  0.89078598  1  0  -0.077297  0  2.974221  0  0  -0.072278  0  3.273225  0  0  -0.071332  0  3.283911  0  0  -0.091674  -0.072733  0  3.265989  0
N  N75  1  0.56161718  0.10921174  0.26889940  1  0  -0.077298  0  2.974258  0  0  -0.072265  0  3.273245  0  0  -0.07132  0  3.283933  0  0  -0.091661  -0.072719  0  3.266002  0
N  N76  1  0.19417988  0.22455087  0.27520531  1  0  -0.370649  0  3.228873  0  0  -0.294867  0  3.535588  0  0  -0.315169  0  3.545861  0  0  -0.253154  -0.281238  0  3.528483  0
N  N77  1  0.30582001  0.72479276  0.77544779  1  0  -0.370547  0  3.228768  0  0  -0.294751  0  3.53548  0  0  -0.315072  0  3.545766  0  0  -0.253134  -0.281121  0  3.528367  0
N  N78  1  0.80581926  0.77544831  0.72479545  1  0  -0.370605  0  3.228905  0  0  -0.294806  0  3.535581  0  0  -0.315121  0  3.545863  0  0  -0.253144  -0.281181  0  3.528476  0
N  N79  1  0.69417901  0.27520375  0.22454959  1  0  -0.370591  0  3.228756  0  0  -0.294806  0  3.535499  0  0  -0.315104  0  3.545767  0  0  -0.253134  -0.281173  0  3.528383  0
N  N80  1  0.16487778  0.21897929  0.15601839  1  0  -0.089247  0  2.949354  0  0  -0.09179  0  3.241944  0  0  -0.089531  0  3.252418  0  0  -0.105607  -0.093069  0  3.234791  0
N  N81  1  0.33512318  0.84398054  0.78101966  1  0  -0.089279  0  2.94935  0  0  -0.091835  0  3.241943  0  0  -0.08957  0  3.252418  0  0  -0.10563  -0.093121  0  3.234785  0
N  N82  1  0.83512163  0.78101811  0.84398160  1  0  -0.089279  0  2.949435  0  0  -0.091832  0  3.242019  0  0  -0.089569  0  3.252492  0  0  -0.105635  -0.09312  0  3.234873  0
N  N83  1  0.66487952  0.15601685  0.21898206  1  0  -0.089335  0  2.949436  0  0  -0.091879  0  3.242026  0  0  -0.089622  0  3.252496  0  0  -0.105664  -0.093164  0  3.234865  0
O  O84  1  0.91796108  0.54856097  0.16865253  1  0  -0.640629  0  2.055778  0  0  -0.565963  0  2.326761  0  0  -0.594672  0  2.312464  0  0  -0.336671  -0.545748  0  2.335772  0
O  O85  1  0.58203675  0.83134788  0.45143912  1  0  -0.640564  0  2.055955  0  0  -0.565898  0  2.326902  0  0  -0.594606  0  2.312605  0  0  -0.336631  -0.545672  0  2.335907  0
O  O86  1  0.08204770  0.45143996  0.83135170  1  0  -0.64079  0  2.055564  0  0  -0.566075  0  2.326506  0  0  -0.594782  0  2.312201  0  0  -0.336725  -0.545862  0  2.335534  0
O  O87  1  0.41796741  0.16865486  0.54856054  1  0  -0.64048  0  2.056047  0  0  -0.565822  0  2.326986  0  0  -0.594523  0  2.312682  0  0  -0.336608  -0.545608  0  2.336  0
O  O88  1  0.00815002  0.54068605  0.36661981  1  0  -0.578863  0  1.916729  0  0  -0.531672  0  2.128572  0  0  -0.553491  0  2.120777  0  0  -0.302954  -0.516561  0  2.133553  0
O  O89  1  0.49183737  0.63337706  0.45931221  1  0  -0.578969  0  1.916374  0  0  -0.53177  0  2.12816  0  0  -0.553596  0  2.120367  0  0  -0.302988  -0.516648  0  2.133155  0
O  O90  1  0.99184748  0.45931222  0.63338800  1  0  -0.578809  0  1.916954  0  0  -0.531608  0  2.12879  0  0  -0.553423  0  2.120997  0  0  -0.302937  -0.516496  0  2.133776  0
O  O91  1  0.50815927  0.36662838  0.54068374  1  0  -0.578962  0  1.916105  0  0  -0.531758  0  2.127869  0  0  -0.553585  0  2.120079  0  0  -0.302996  -0.516639  0  2.132855  0
