# generated using pymatgen
data_CoH20C24(N2F)2
_symmetry_space_group_name_H-M   'P 1'
_cell_length_a   8.24193147
_cell_length_b   8.24186629
_cell_length_c   16.39918304
_cell_angle_alpha   89.96783957
_cell_angle_beta   90.01506458
_cell_angle_gamma   89.99749888
_symmetry_Int_Tables_number   1
_chemical_formula_structural   CoH20C24(N2F)2
_chemical_formula_sum   'Co2 H40 C48 N8 F4'
_cell_volume   1113.97820303
_cell_formula_units_Z   2
loop_
 _symmetry_equiv_pos_site_id
 _symmetry_equiv_pos_as_xyz
  1  'x, y, z'
loop_
 _atom_site_type_symbol
 _atom_site_label
 _atom_site_symmetry_multiplicity
 _atom_site_fract_x
 _atom_site_fract_y
 _atom_site_fract_z
 _atom_site_occupancy
 _atom_site_pbe_bader_charge
 _atom_site_pbe_bader_spin_density
 _atom_site_pbe_cm5_charge
 _atom_site_pbe_ddec_charge
 _atom_site_pbe_ddec_spin_density
 _atom_site_pbe_ddec_sum_bond_order
 _atom_site_pbe_magmom
Co  Co0  1  0.49999813  0.49996884  0.24999949  1  1.222947  0.875443  0.652415  0.66862  1.061341  3.166966  0.869
Co  Co1  1  0.49993754  0.49992302  0.74999942  1  1.22241  -0.8761  0.652084  0.66804  -1.061759  3.16684  -0.87
H  H2  1  0.42885830  0.69405912  0.09978867  1  0.103002  0.002115  0.112207  0.083235  0.000867  1.020212  0.001
H  H3  1  0.57108708  0.30598734  0.09978189  1  0.103567  0.002144  0.112079  0.08297  0.00088  1.020123  0.001
H  H4  1  0.69398328  0.57118142  0.90013894  1  0.102605  -0.002086  0.112161  0.083211  -0.000856  1.019805  -0.001
H  H5  1  0.30588444  0.42892712  0.90030289  1  0.103392  -0.002177  0.112099  0.082995  -0.000892  1.019957  -0.001
H  H6  1  0.42894085  0.30591434  0.59970539  1  0.103528  -0.002178  0.112166  0.083108  -0.000893  1.019863  -0.001
H  H7  1  0.57118669  0.69400895  0.59984555  1  0.102559  -0.002086  0.112206  0.083299  -0.000856  1.019864  -0.001
H  H8  1  0.69408098  0.42889047  0.40024989  1  0.103333  0.002144  0.112213  0.083147  0.000879  1.020041  0.001
H  H9  1  0.30600983  0.57112892  0.40017077  1  0.102928  0.002114  0.11214  0.083181  0.000868  1.020003  0.001
H  H10  1  0.58697170  0.85103485  0.99651258  1  0.114104  0.000935  0.100344  0.106113  0.000407  1.032066  0.0
H  H11  1  0.41295260  0.14899615  0.99655656  1  0.115315  0.000948  0.100337  0.106193  0.000411  1.032181  0.0
H  H12  1  0.85095382  0.41300369  0.00341524  1  0.115612  -0.000913  0.100362  0.106106  -0.000398  1.032304  0.0
H  H13  1  0.14889252  0.58700504  0.00352925  1  0.112661  -0.000969  0.100274  0.105962  -0.000421  1.03225  0.0
H  H14  1  0.58704398  0.14891929  0.49649372  1  0.113372  -0.000968  0.100288  0.106034  -0.00042  1.031836  0.0
H  H15  1  0.41302455  0.85097767  0.49655912  1  0.114893  -0.000915  0.100446  0.106246  -0.000398  1.032077  0.0
H  H16  1  0.85107752  0.58696089  0.50350474  1  0.113388  0.000953  0.100409  0.106265  0.000414  1.031889  0.0
H  H17  1  0.14903590  0.41295985  0.50341830  1  0.115659  0.000929  0.100339  0.105952  0.000404  1.032525  0.0
H  H18  1  0.02206344  0.70518067  0.12598294  1  0.043237  0.000828  0.104806  0.11248  0.000354  1.028639  0.0
H  H19  1  0.97790054  0.29470907  0.12594818  1  0.042907  0.000852  0.104701  0.11236  0.000364  1.028618  0.0
H  H20  1  0.70517488  0.97799445  0.87403299  1  0.043023  -0.000815  0.104839  0.112487  -0.00035  1.028599  0.0
H  H21  1  0.29473735  0.02217617  0.87404160  1  0.042375  -0.000862  0.104684  0.112172  -0.000368  1.028419  0.0
H  H22  1  0.02216832  0.29470597  0.62595281  1  0.04232  -0.000865  0.104667  0.112257  -0.000369  1.028373  0.0
H  H23  1  0.97798994  0.70515159  0.62598124  1  0.043446  -0.000813  0.104883  0.112536  -0.000348  1.028585  0.0
H  H24  1  0.70522722  0.02212567  0.37402299  1  0.042689  0.000844  0.104714  0.11232  0.00036  1.028598  0.0
H  H25  1  0.29474916  0.97795822  0.37404930  1  0.04267  0.000836  0.104822  0.11244  0.000358  1.028537  0.0
H  H26  1  0.84408674  0.54686731  0.21905122  1  0.107383  0.001845  0.11631  0.095276  0.000706  1.002824  0.001
H  H27  1  0.15591147  0.45304685  0.21895198  1  0.109108  0.001867  0.116186  0.095086  0.000713  1.003024  0.001
H  H28  1  0.54687543  0.15597648  0.78096036  1  0.107983  -0.001816  0.116377  0.095387  -0.000694  1.002828  -0.001
H  H29  1  0.45302562  0.84416730  0.78104885  1  0.108481  -0.001898  0.116133  0.094978  -0.000726  1.002821  -0.001
H  H30  1  0.84414586  0.45301877  0.71892654  1  0.109002  -0.001897  0.116139  0.094983  -0.000725  1.003216  -0.001
H  H31  1  0.15596170  0.54685229  0.71906495  1  0.107935  -0.001817  0.116339  0.095463  -0.000694  1.002605  -0.001
H  H32  1  0.54690279  0.84414558  0.28098498  1  0.107598  0.001871  0.116358  0.095212  0.000716  1.002941  0.001
H  H33  1  0.45307818  0.15596365  0.28101279  1  0.108975  0.001841  0.116317  0.095307  0.000703  1.003057  0.001
H  H34  1  0.89044871  0.86169473  0.93109306  1  0.051511  -0.00051  0.107588  0.093972  -0.000219  0.97008  0.0
H  H35  1  0.10951407  0.13840835  0.93109149  1  0.051527  -0.0005  0.107556  0.093888  -0.000214  0.969964  0.0
H  H36  1  0.86165959  0.10947482  0.06891434  1  0.050645  0.000521  0.107561  0.093943  0.000224  0.970062  0.0
H  H37  1  0.13835212  0.89043876  0.06894768  1  0.051043  0.000495  0.107575  0.093819  0.000213  0.970259  0.0
H  H38  1  0.89046807  0.13838617  0.43105584  1  0.050843  0.000494  0.107582  0.09385  0.000212  0.970327  0.0
H  H39  1  0.10951032  0.86168845  0.43108495  1  0.051189  0.000521  0.107595  0.093872  0.000224  0.97016  0.0
H  H40  1  0.86167780  0.89041355  0.56891541  1  0.051396  -0.000501  0.107535  0.093841  -0.000215  0.970144  0.0
H  H41  1  0.13838745  0.10948607  0.56890014  1  0.051123  -0.000509  0.107516  0.093876  -0.000218  0.970011  0.0
C  C42  1  0.56090908  0.69942765  0.10184306  1  0.470676  -0.004284  0.042988  0.08441  -0.002122  3.957834  -0.003
C  C43  1  0.43902889  0.30059103  0.10183442  1  0.469535  -0.004115  0.042957  0.084858  -0.002026  3.958956  -0.003
C  C44  1  0.69933754  0.43910798  0.89810594  1  0.469383  0.00435  0.042777  0.084443  0.002164  3.957745  0.003
C  C45  1  0.30054125  0.56101862  0.89824300  1  0.471296  0.004091  0.043072  0.084585  0.002009  3.960192  0.003
C  C46  1  0.56102826  0.30056200  0.60176678  1  0.470897  0.004062  0.042807  0.084213  0.001993  3.960418  0.003
C  C47  1  0.43911369  0.69936263  0.60188863  1  0.46954  0.004372  0.042935  0.08452  0.002176  3.957572  0.003
C  C48  1  0.69945858  0.56095383  0.39819254  1  0.470586  -0.004187  0.042947  0.084756  -0.002064  3.958885  -0.003
C  C49  1  0.30062388  0.43908363  0.39812791  1  0.470602  -0.004216  0.042859  0.08455  -0.002086  3.957895  -0.003
C  C50  1  0.65036773  0.78717779  0.04529660  1  -0.132195  0.002776  -0.092679  -0.186039  0.001564  3.960914  0.002
C  C51  1  0.34959520  0.21281806  0.04531976  1  -0.133438  0.00274  -0.092929  -0.186641  0.001548  3.962088  0.002
C  C52  1  0.78709225  0.34962984  0.95466310  1  -0.132535  -0.002708  -0.092565  -0.185884  -0.001525  3.961765  -0.002
C  C53  1  0.21276523  0.65040918  0.95475917  1  -0.13304  -0.002811  -0.093104  -0.186419  -0.001588  3.960961  -0.002
C  C54  1  0.65042887  0.21278390  0.54525598  1  -0.132963  -0.002791  -0.092939  -0.186338  -0.001577  3.960781  -0.002
C  C55  1  0.34964218  0.78710698  0.54532184  1  -0.13241  -0.00273  -0.092657  -0.186039  -0.001536  3.961329  -0.002
C  C56  1  0.78721908  0.65037088  0.45472027  1  -0.132828  0.002801  -0.093159  -0.186886  0.00158  3.961454  0.002
C  C57  1  0.21286148  0.34960813  0.45466070  1  -0.133211  0.002713  -0.092712  -0.186085  0.001531  3.961911  0.002
C  C58  1  0.82030037  0.79343230  0.05191517  1  0.053118  -0.008683  0.000613  0.120893  -0.004861  3.965519  -0.006
C  C59  1  0.17965753  0.20654279  0.05192013  1  0.05324  -0.008412  0.000693  0.120691  -0.004712  3.965532  -0.005
C  C60  1  0.79340344  0.17969736  0.94807307  1  0.053293  0.008873  0.000627  0.120589  0.004967  3.965889  0.006
C  C61  1  0.20653672  0.82037090  0.94812416  1  0.052822  0.008352  0.000838  0.120873  0.004679  3.965244  0.005
C  C62  1  0.82038848  0.20654488  0.55188119  1  0.052322  0.008307  0.000747  0.120849  0.004654  3.96546  0.005
C  C63  1  0.17971152  0.79340533  0.55192411  1  0.05324  0.008895  0.00057  0.12069  0.00498  3.96608  0.006
C  C64  1  0.79345246  0.82031655  0.44809523  1  0.052884  -0.0085  0.000796  0.121121  -0.00476  3.965171  -0.005
C  C65  1  0.20657610  0.17967835  0.44807410  1  0.053319  -0.008608  0.00066  0.1208  -0.00482  3.965583  -0.006
C  C66  1  0.89129273  0.70609912  0.11597375  1  -0.024909  0.004528  -0.095001  -0.201243  0.002523  3.985893  0.004
C  C67  1  0.10865751  0.29379212  0.11594723  1  -0.025539  0.004564  -0.095013  -0.201127  0.002547  3.985848  0.004
C  C68  1  0.70607128  0.10876819  0.88404117  1  -0.026974  -0.004495  -0.094978  -0.201196  -0.002495  3.986106  -0.003
C  C69  1  0.29381708  0.89138272  0.88407161  1  -0.024373  -0.004593  -0.094984  -0.200973  -0.002564  3.98528  -0.004
C  C70  1  0.89138188  0.29380081  0.61592374  1  -0.02467  -0.004592  -0.095021  -0.201218  -0.002564  3.985557  -0.004
C  C71  1  0.10876870  0.70606069  0.61597089  1  -0.02617  -0.004493  -0.095002  -0.201347  -0.002495  3.986204  -0.003
C  C72  1  0.70615360  0.89135160  0.38403605  1  -0.02362  0.00456  -0.094966  -0.201183  0.002544  3.985479  0.004
C  C73  1  0.29384016  0.10871502  0.38404518  1  -0.024595  0.004533  -0.095156  -0.201407  0.002525  3.986198  0.004
C  C74  1  0.79374288  0.61853786  0.16920912  1  0.477226  -0.006639  0.042139  0.085359  -0.003371  3.955131  -0.004
C  C75  1  0.20621464  0.38138721  0.16913667  1  0.474735  -0.006474  0.042114  0.085367  -0.003273  3.955802  -0.004
C  C76  1  0.61851260  0.20633123  0.83078427  1  0.479117  0.00679  0.042343  0.08565  0.003462  3.954828  0.004
C  C77  1  0.38136363  0.79382589  0.83088662  1  0.475471  0.006398  0.042126  0.085478  0.003227  3.956783  0.004
C  C78  1  0.79382212  0.38135891  0.66910216  1  0.475134  0.006378  0.042115  0.085425  0.003216  3.957197  0.004
C  C79  1  0.20632240  0.61850001  0.66923071  1  0.478068  0.006794  0.042417  0.085676  0.003465  3.95468  0.004
C  C80  1  0.61858949  0.79380711  0.33082915  1  0.475696  -0.006502  0.042237  0.085721  -0.003289  3.955685  -0.004
C  C81  1  0.38143097  0.20627422  0.33082726  1  0.474966  -0.006616  0.042052  0.085381  -0.00336  3.955759  -0.004
C  C82  1  0.91608963  0.89715062  0.99450085  1  0.002192  0.000665  -0.07423  -0.076588  0.000306  3.811016  0.001
C  C83  1  0.08386880  0.10289114  0.99450650  1  0.001854  0.000695  -0.074259  -0.076076  0.000326  3.809915  0.001
C  C84  1  0.89707818  0.08392554  0.00550308  1  0.003069  -0.000676  -0.074044  -0.075756  -0.000312  3.810535  -0.001
C  C85  1  0.10288208  0.91606876  0.00553065  1  -0.001091  -0.00067  -0.074382  -0.076192  -0.000312  3.811008  -0.001
C  C86  1  0.91608748  0.10290545  0.49447361  1  -0.000389  -0.000681  -0.074464  -0.076271  -0.000319  3.810892  -0.001
C  C87  1  0.08394965  0.89709572  0.49449303  1  0.00273  -0.000667  -0.074154  -0.075841  -0.000307  3.810717  -0.001
C  C88  1  0.89715714  0.91608083  0.50550305  1  0.001535  0.000666  -0.074184  -0.076373  0.000308  3.810431  0.001
C  C89  1  0.10289426  0.08386918  0.50548909  1  0.002826  0.000692  -0.074055  -0.075906  0.000323  3.809908  0.001
N  N90  1  0.63084140  0.61560623  0.16302409  1  -1.222068  0.040644  -0.333123  -0.212154  0.025255  3.628459  0.035
N  N91  1  0.36910559  0.38442162  0.16294606  1  -1.220049  0.041579  -0.333244  -0.212909  0.025792  3.628835  0.036
N  N92  1  0.61555989  0.36923878  0.83693585  1  -1.22115  -0.03951  -0.332961  -0.211781  -0.024588  3.628595  -0.034
N  N93  1  0.38434749  0.63096843  0.83712954  1  -1.219677  -0.0426  -0.333308  -0.213206  -0.026391  3.630026  -0.037
N  N94  1  0.63096781  0.38437013  0.66286204  1  -1.219975  -0.042598  -0.33326  -0.21299  -0.026387  3.630028  -0.037
N  N95  1  0.36923290  0.61557338  0.66307264  1  -1.220807  -0.039533  -0.333092  -0.211903  -0.024604  3.628671  -0.034
N  N96  1  0.61562328  0.63090976  0.33703449  1  -1.220553  0.041625  -0.333353  -0.213165  0.025824  3.629128  0.036
N  N97  1  0.38443682  0.36917677  0.33699265  1  -1.221892  0.04059  -0.333053  -0.212389  0.02522  3.628736  0.035
F  F98  1  0.66117141  0.33879549  0.25003156  1  -0.695972  -0.017994  -0.389345  -0.544883  -0.009194  0.951081  -0.016
F  F99  1  0.33881394  0.66116767  0.24996680  1  -0.695811  -0.017864  -0.389444  -0.544956  -0.009119  0.950834  -0.015
F  F100  1  0.33876040  0.33873852  0.75001330  1  -0.696473  0.018139  -0.389368  -0.544751  0.009282  0.950912  0.016
F  F101  1  0.66118748  0.66118032  0.74998249  1  -0.695682  0.01773  -0.389594  -0.545265  0.009044  0.950304  0.015
