# generated using pymatgen
data_Cd2H30C27(N3O5)2
_symmetry_space_group_name_H-M   'P 1'
_cell_length_a   14.63150934
_cell_length_b   15.99351976
_cell_length_c   17.13177963
_cell_angle_alpha   90.00005982
_cell_angle_beta   90.00006770
_cell_angle_gamma   112.87827782
_symmetry_Int_Tables_number   1
_chemical_formula_structural   Cd2H30C27(N3O5)2
_chemical_formula_sum   'Cd8 H120 C108 N24 O40'
_cell_volume   3693.62008108
_cell_formula_units_Z   4
loop_
 _symmetry_equiv_pos_site_id
 _symmetry_equiv_pos_as_xyz
  1  'x, y, z'
loop_
 _atom_site_type_symbol
 _atom_site_label
 _atom_site_symmetry_multiplicity
 _atom_site_fract_x
 _atom_site_fract_y
 _atom_site_fract_z
 _atom_site_occupancy
 _atom_site_pbe_bader_charge
 _atom_site_pbe_bader_spin_density
 _atom_site_pbe_cm5_charge
 _atom_site_pbe_ddec_charge
 _atom_site_pbe_ddec_spin_density
 _atom_site_pbe_ddec_sum_bond_order
 _atom_site_pbe_magmom
Cd  Cd0  1  0.37843822  0.69921357  0.80777009  1  1.317931  0  0.765621  0.940002  0  2.156559  0
Cd  Cd1  1  0.12156246  0.80078946  0.30777117  1  1.31795  0  0.765643  0.940058  0  2.156506  0
Cd  Cd2  1  0.62156159  0.30078655  0.19222860  1  1.317969  0  0.765618  0.940011  0  2.156521  0
Cd  Cd3  1  0.87843889  0.19921270  0.69222752  1  1.317953  0  0.76563  0.940017  0  2.156589  0
Cd  Cd4  1  0.67191251  0.81273899  0.77967514  1  1.270881  0  0.759565  0.846359  0  2.248189  0
Cd  Cd5  1  0.82809058  0.68726181  0.27967456  1  1.270864  0  0.759572  0.846345  0  2.248148  0
Cd  Cd6  1  0.32808879  0.18725979  0.22032530  1  1.270805  0  0.759561  0.846344  0  2.248169  0
Cd  Cd7  1  0.17191185  0.31273967  0.72032587  1  1.27088  0  0.759569  0.846345  0  2.248243  0
H  H8  1  0.32362181  0.59075264  0.93271150  1  0.647551  0  0.275859  0.369919  0  0.982872  0
H  H9  1  0.17637726  0.90925264  0.43271157  1  0.647561  0  0.275862  0.369925  0  0.982833  0
H  H10  1  0.67637668  0.40925085  0.06728894  1  0.647584  0  0.275845  0.369884  0  0.982884  0
H  H11  1  0.82362095  0.09075018  0.56728829  1  0.647589  0  0.275873  0.369938  0  0.982834  0
H  H12  1  0.32217752  0.51300360  0.86514580  1  0.659324  0  0.276624  0.377594  0  0.971582  0
H  H13  1  0.17782027  0.98699884  0.36514536  1  0.659306  0  0.276636  0.377621  0  0.971565  0
H  H14  1  0.67782121  0.48699719  0.13485464  1  0.659316  0  0.276646  0.377644  0  0.971536  0
H  H15  1  0.82217863  0.01300398  0.63485391  1  0.659329  0  0.276654  0.37765  0  0.971497  0
H  H16  1  0.71307221  0.99686848  0.83373210  1  0.640547  0  0.276132  0.371466  0  0.986506  0
H  H17  1  0.78693049  0.50313445  0.33373305  1  0.640619  0  0.276182  0.371517  0  0.986429  0
H  H18  1  0.28692857  0.00313232  0.16626834  1  0.640603  0  0.276136  0.371481  0  0.986489  0
H  H19  1  0.21307127  0.49686704  0.66626855  1  0.640601  0  0.276146  0.371493  0  0.986468  0
H  H20  1  0.65153709  0.91730304  0.89435095  1  0.61539  0  0.308341  0.393166  0  0.901049  0
H  H21  1  0.84846699  0.58270136  0.39435088  1  0.615329  0  0.308359  0.39315  0  0.901032  0
H  H22  1  0.34846437  0.08269776  0.10564949  1  0.615372  0  0.308356  0.393161  0  0.901091  0
H  H23  1  0.15153613  0.41730013  0.60565015  1  0.615377  0  0.308311  0.393134  0  0.901133  0
H  H24  1  0.54400060  0.25593877  0.41871989  1  0.02678  0  0.095479  0.102718  0  0.998723  0
H  H25  1  0.95599295  0.24405951  0.91872069  1  0.026809  0  0.095499  0.102802  0  0.998679  0
H  H26  1  0.45599802  0.74405525  0.58128113  1  0.026799  0  0.095494  0.102694  0  0.998823  0
H  H27  1  0.04400606  0.75594196  0.08127858  1  0.026857  0  0.095489  0.102757  0  0.998718  0
H  H28  1  0.41363768  0.21554771  0.42830900  1  0.07533  0  0.097003  0.10405  0  0.999415  0
H  H29  1  0.08635502  0.28445006  0.92831005  1  0.075477  0  0.097025  0.10409  0  0.999419  0
H  H30  1  0.58636128  0.78445037  0.57169144  1  0.075338  0  0.096999  0.10406  0  0.999416  0
H  H31  1  0.91364165  0.71555071  0.07168981  1  0.075436  0  0.097039  0.104119  0  0.999384  0
H  H32  1  0.64570926  0.40155383  0.47412231  1  0.085357  0  0.102175  0.105874  0  1.011755  0
H  H33  1  0.85428470  0.09844523  0.97412637  1  0.086267  0  0.102145  0.105832  0  1.011862  0
H  H34  1  0.35429244  0.59844426  0.52587696  1  0.085362  0  0.102151  0.105805  0  1.011842  0
H  H35  1  0.14571146  0.90155758  0.02587699  1  0.086261  0  0.102179  0.105844  0  1.011823  0
H  H36  1  0.66204480  0.53389589  0.55504626  1  0.051153  0  0.108036  0.113546  0  1.000102  0
H  H37  1  0.83795135  0.96610378  0.05504947  1  0.051172  0  0.107976  0.11345  0  1.000085  0
H  H38  1  0.33795524  0.46610152  0.44495242  1  0.051212  0  0.108031  0.1135  0  1.000076  0
H  H39  1  0.16204480  0.03389903  0.94495388  1  0.051194  0  0.10806  0.113559  0  1.000038  0
H  H40  1  0.36304125  0.39023116  0.63974477  1  0.105516  0  0.106463  0.113277  0  1.043661  0
H  H41  1  0.13695910  0.10976950  0.13974217  1  0.1055  0  0.106476  0.113262  0  1.043722  0
H  H42  1  0.63696045  0.60976694  0.36025567  1  0.105458  0  0.106488  0.113268  0  1.043731  0
H  H43  1  0.86304128  0.89023198  0.86025535  1  0.105454  0  0.106471  0.113297  0  1.043715  0
H  H44  1  0.34518469  0.26197657  0.55635115  1  0.116666  0  0.108212  0.123553  0  1.005541  0
H  H45  1  0.15481326  0.23802189  0.05634752  1  0.11674  0  0.108203  0.123528  0  1.005547  0
H  H46  1  0.65482038  0.73801816  0.44365396  1  0.117184  0  0.108207  0.123465  0  1.005606  0
H  H47  1  0.84518518  0.76197822  0.94364941  1  0.116712  0  0.108213  0.123522  0  1.005568  0
H  H48  1  0.63118984  0.24057014  0.55926341  1  0.085228  0  0.107869  0.116929  0  1.001477  0
H  H49  1  0.86880555  0.25942883  0.05926703  1  0.085295  0  0.107846  0.11692  0  1.001445  0
H  H50  1  0.36880689  0.75942590  0.44073586  1  0.086442  0  0.107856  0.116933  0  1.001409  0
H  H51  1  0.13119084  0.74057127  0.94073107  1  0.085353  0  0.107863  0.116899  0  1.001478  0
H  H52  1  0.63686072  0.12036239  0.64397902  1  0.091734  0  0.109032  0.115792  0  1.032131  0
H  H53  1  0.86314028  0.37964151  0.14398158  1  0.09171  0  0.109036  0.115826  0  1.032054  0
H  H54  1  0.36313881  0.87963705  0.35602084  1  0.09175  0  0.109021  0.115773  0  1.032085  0
H  H55  1  0.13685748  0.62035860  0.85601886  1  0.09176  0  0.109059  0.115785  0  1.032157  0
H  H56  1  0.34102863  0.94509812  0.56705498  1  0.127807  0  0.105569  0.123049  0  1.041113  0
H  H57  1  0.15897131  0.55489904  0.06705585  1  0.127876  0  0.105573  0.123037  0  1.041072  0
H  H58  1  0.65897067  0.05489590  0.43294780  1  0.127912  0  0.105603  0.123082  0  1.041132  0
H  H59  1  0.84102822  0.44510040  0.93294634  1  0.127843  0  0.105602  0.123107  0  1.041087  0
H  H60  1  0.33594847  0.06885631  0.48512727  1  0.075685  0  0.104341  0.108418  0  1.002029  0
H  H61  1  0.16404704  0.43113820  0.98512854  1  0.075804  0  0.104328  0.108393  0  1.001989  0
H  H62  1  0.66404821  0.93113634  0.51487492  1  0.075922  0  0.104309  0.108335  0  1.002093  0
H  H63  1  0.83595123  0.56885988  0.01487423  1  0.075951  0  0.104309  0.108374  0  1.002059  0
H  H64  1  0.36565755  0.51987986  0.67116364  1  0.256017  0  0.148323  0.136192  0  1.02226  0
H  H65  1  0.13434227  0.98012155  0.17116199  1  0.256013  0  0.148326  0.1362  0  1.022248  0
H  H66  1  0.63434277  0.48011823  0.32883622  1  0.256028  0  0.148323  0.136192  0  1.02228  0
H  H67  1  0.86565800  0.01988128  0.82883670  1  0.256031  0  0.1483  0.136146  0  1.022273  0
H  H68  1  0.67992008  0.62590814  0.66422995  1  0.162431  0  0.154498  0.12873  0  0.968856  0
H  H69  1  0.82008139  0.87409243  0.16423306  1  0.162444  0  0.154483  0.128713  0  0.968923  0
H  H70  1  0.32008190  0.37409063  0.33576406  1  0.16247  0  0.154505  0.128764  0  0.968886  0
H  H71  1  0.17991762  0.12590904  0.83576622  1  0.162467  0  0.154504  0.128754  0  0.968856  0
H  H72  1  0.34322182  0.87247014  0.69459628  1  0.208222  0  0.157742  0.144236  0  0.96398  0
H  H73  1  0.15677897  0.62752861  0.19459897  1  0.208379  0  0.15773  0.14421  0  0.963963  0
H  H74  1  0.65677749  0.12752388  0.30540358  1  0.208379  0  0.157767  0.144214  0  0.963991  0
H  H75  1  0.84322027  0.37247015  0.80540205  1  0.208368  0  0.157722  0.144214  0  0.963974  0
H  H76  1  0.65461732  0.98539931  0.65739545  1  0.212779  0  0.15041  0.126105  0  1.003659  0
H  H77  1  0.84538636  0.51460330  0.15739472  1  0.212825  0  0.150434  0.126122  0  1.003667  0
H  H78  1  0.34538414  0.01460150  0.34260791  1  0.212788  0  0.150417  0.126113  0  1.003626  0
H  H79  1  0.15461386  0.48539614  0.84260572  1  0.212729  0  0.150443  0.126166  0  1.00361  0
H  H80  1  0.04745932  0.60640616  0.70318121  1  0.043958  0  0.10118  0.118499  0  0.968973  0
H  H81  1  0.45253874  0.89359260  0.20318330  1  0.043913  0  0.101224  0.118529  0  0.968961  0
H  H82  1  0.95253883  0.39359327  0.29681689  1  0.043923  0  0.101235  0.118548  0  0.968945  0
H  H83  1  0.54746175  0.10640753  0.79681656  1  0.043925  0  0.101203  0.118506  0  0.969005  0
H  H84  1  0.09219979  0.55140899  0.63200530  1  0.02551  0  0.092121  0.100937  0  0.992447  0
H  H85  1  0.40780148  0.94859439  0.13200856  1  0.025501  0  0.092129  0.100939  0  0.992459  0
H  H86  1  0.90780184  0.44859385  0.36799281  1  0.025481  0  0.092129  0.100945  0  0.992482  0
H  H87  1  0.59219930  0.05140641  0.86799188  1  0.02552  0  0.092127  0.100946  0  0.992424  0
H  H88  1  0.04097410  0.66739070  0.57063984  1  -0.000518  0  0.090556  0.084882  0  0.970037  0
H  H89  1  0.45902499  0.83261255  0.07064071  1  -0.000483  0  0.090544  0.08487  0  0.970079  0
H  H90  1  0.95902548  0.33261212  0.42935943  1  -0.000496  0  0.090533  0.08484  0  0.970093  0
H  H91  1  0.54097374  0.16738824  0.92935798  1  -0.000466  0  0.090549  0.084885  0  0.970068  0
H  H92  1  0.12161076  0.75284140  0.63273680  1  0.062795  0  0.092719  0.089724  0  0.987353  0
H  H93  1  0.37838761  0.74715994  0.13273692  1  0.062818  0  0.092721  0.089746  0  0.987343  0
H  H94  1  0.87838934  0.24715940  0.36726247  1  0.062786  0  0.092719  0.089745  0  0.987297  0
H  H95  1  0.62161180  0.25284085  0.86726119  1  0.062769  0  0.092706  0.089739  0  0.987297  0
H  H96  1  0.19282399  0.64539212  0.51558783  1  0.028177  0  0.088985  0.101627  0  0.989302  0
H  H97  1  0.30717538  0.85461035  0.01558857  1  0.028376  0  0.089009  0.101695  0  0.989443  0
H  H98  1  0.80717639  0.35460935  0.48441086  1  0.028141  0  0.089019  0.101709  0  0.989409  0
H  H99  1  0.69282295  0.14539111  0.98441129  1  0.028168  0  0.088973  0.101619  0  0.989326  0
H  H100  1  0.26827358  0.73904471  0.57421171  1  0.000168  0  0.089634  0.096908  0  1.00921  0
H  H101  1  0.23172579  0.76095923  0.07421111  1  0.000195  0  0.089639  0.09692  0  1.009262  0
H  H102  1  0.73172628  0.26095879  0.42578697  1  0.000192  0  0.089637  0.096916  0  1.009229  0
H  H103  1  0.76827350  0.23904292  0.92578874  1  0.000202  0  0.089638  0.096915  0  1.009243  0
H  H104  1  0.95032639  0.95463050  0.60801893  1  0.078276  0  0.098869  0.117817  0  0.9868  0
H  H105  1  0.54967673  0.54536930  0.10801793  1  0.07828  0  0.098878  0.117814  0  0.98683  0
H  H106  1  0.04967673  0.04537099  0.39198092  1  0.078315  0  0.098859  0.117772  0  0.986824  0
H  H107  1  0.45032554  0.45463016  0.89198251  1  0.078274  0  0.098853  0.117788  0  0.986745  0
H  H108  1  0.97342811  0.86140023  0.64845311  1  0.048468  0  0.101159  0.120635  0  0.966401  0
H  H109  1  0.52657265  0.63860031  0.14845393  1  0.048484  0  0.101138  0.120587  0  0.966438  0
H  H110  1  0.02657364  0.13860125  0.35154733  1  0.048486  0  0.101152  0.120617  0  0.966463  0
H  H111  1  0.47342814  0.36140049  0.85154651  1  0.048462  0  0.101151  0.120597  0  0.966426  0
H  H112  1  0.81897342  0.84899390  0.52204351  1  0.0191  0  0.090466  0.08358  0  0.991007  0
H  H113  1  0.68102803  0.65100708  0.02204216  1  0.01911  0  0.090459  0.083607  0  0.990959  0
H  H114  1  0.18102942  0.15100691  0.47795693  1  0.019018  0  0.090435  0.083551  0  0.991024  0
H  H115  1  0.31897316  0.34899304  0.97795653  1  0.019129  0  0.090466  0.083599  0  0.991013  0
H  H116  1  0.83165559  0.75455275  0.56638737  1  0.018159  0  0.085009  0.070998  0  0.986727  0
H  H117  1  0.66834624  0.74544900  0.06638727  1  0.018106  0  0.084985  0.070941  0  0.986758  0
H  H118  1  0.16834519  0.24544805  0.43361424  1  0.018139  0  0.084998  0.070967  0  0.986752  0
H  H119  1  0.33165483  0.25455248  0.93361083  1  0.018113  0  0.085007  0.070999  0  0.986731  0
H  H120  1  0.00830035  0.80833965  0.51449861  1  0.066922  0  0.099197  0.118684  0  0.994883  0
H  H121  1  0.49170124  0.69166486  0.01449938  1  0.066911  0  0.099182  0.118624  0  0.994894  0
H  H122  1  0.99170237  0.19166251  0.48550416  1  0.067002  0  0.099192  0.118678  0  0.994934  0
H  H123  1  0.50829886  0.30833593  0.98549990  1  0.066894  0  0.099204  0.118671  0  0.994891  0
H  H124  1  0.99328802  0.90057087  0.46993170  1  0.087239  0  0.103863  0.127917  0  0.977551  0
H  H125  1  0.50671057  0.59943161  0.96993189  1  0.087289  0  0.103811  0.127838  0  0.977644  0
H  H126  1  0.00671385  0.09942925  0.53006991  1  0.087351  0  0.10386  0.127919  0  0.977563  0
H  H127  1  0.49328895  0.40056783  0.03006738  1  0.087312  0  0.103806  0.127835  0  0.977627  0
C  C128  1  0.48335074  0.23874261  0.46151984  1  -0.028403  0  -0.157737  -0.253644  0  3.977643  0
C  C129  1  0.01664244  0.26125455  0.96152138  1  -0.028727  0  -0.157748  -0.253785  0  3.977809  0
C  C130  1  0.51664817  0.76125209  0.53848118  1  -0.028645  0  -0.157645  -0.253539  0  3.977904  0
C  C131  1  0.98335452  0.73874690  0.03847789  1  -0.028925  0  -0.157739  -0.253741  0  3.977752  0
C  C132  1  0.49453474  0.32185480  0.50881562  1  -0.034158  0  -0.007637  0.117428  0  3.971898  0
C  C133  1  0.00546561  0.17814629  0.00881821  1  -0.033967  0  -0.007643  0.117399  0  3.971865  0
C  C134  1  0.50547204  0.67814400  0.49118541  1  -0.033933  0  -0.007695  0.1173  0  3.972064  0
C  C135  1  0.99453203  0.82185517  0.99118223  1  -0.033658  0  -0.007616  0.11744  0  3.971991  0
C  C136  1  0.58340357  0.39879639  0.51051313  1  -0.029036  0  -0.092072  -0.133126  0  3.986975  0
C  C137  1  0.91658921  0.10119976  0.01051606  1  -0.029976  0  -0.092086  -0.133142  0  3.986963  0
C  C138  1  0.41659836  0.60119900  0.48948731  1  -0.02915  0  -0.092054  -0.133009  0  3.986903  0
C  C139  1  0.08340706  0.89880169  0.98948496  1  -0.029923  0  -0.092141  -0.133123  0  3.987  0
C  C140  1  0.59354544  0.47346372  0.55721118  1  0.004156  0  -0.091199  -0.162132  0  4.008411  0
C  C141  1  0.90645138  0.02653864  0.05721345  1  0.003787  0  -0.091127  -0.161988  0  4.008471  0
C  C142  1  0.40645523  0.52653843  0.44278634  1  0.004106  0  -0.091168  -0.162041  0  4.008528  0
C  C143  1  0.09354489  0.97346281  0.94278699  1  0.003842  0  -0.091216  -0.162169  0  4.008672  0
C  C144  1  0.51409632  0.47020106  0.60397452  1  0.238012  0  0.088565  0.149937  0  4.03003  0
C  C145  1  0.98589877  0.02979867  0.10397279  1  0.238238  0  0.088595  0.149917  0  4.029887  0
C  C146  1  0.48590167  0.52979634  0.39602591  1  0.238217  0  0.088507  0.149832  0  4.030194  0
C  C147  1  0.01409847  0.97020346  0.89602590  1  0.238316  0  0.088526  0.149875  0  4.030125  0
C  C148  1  0.42512955  0.39379181  0.60329150  1  0.022197  0  -0.084392  -0.139586  0  3.97129  0
C  C149  1  0.07486998  0.10620540  0.10329117  1  0.022261  0  -0.084379  -0.139535  0  3.971059  0
C  C150  1  0.57487141  0.60620290  0.39670894  1  0.022077  0  -0.084389  -0.139589  0  3.971294  0
C  C151  1  0.92512863  0.89379675  0.89670810  1  0.022104  0  -0.084361  -0.139548  0  3.971162  0
C  C152  1  0.41549130  0.32072920  0.55556670  1  -0.039103  0  -0.08237  -0.110626  0  3.930308  0
C  C153  1  0.08450402  0.17926789  0.05556412  1  -0.039126  0  -0.082385  -0.110602  0  3.930432  0
C  C154  1  0.58450938  0.67926483  0.44443549  1  -0.039673  0  -0.082358  -0.110473  0  3.930509  0
C  C155  1  0.91549402  0.82073289  0.94443282  1  -0.039165  0  -0.082385  -0.110623  0  3.930468  0
C  C156  1  0.48410012  0.16287636  0.51405550  1  0.012013  0  -0.007067  0.117319  0  3.962601  0
C  C157  1  0.01589249  0.33711929  0.01405651  1  0.011897  0  -0.006992  0.117468  0  3.962322  0
C  C158  1  0.51589725  0.83711630  0.48594494  1  0.011838  0  -0.007154  0.117164  0  3.962617  0
C  C159  1  0.98410293  0.66288013  0.98594218  1  0.012072  0  -0.006985  0.11744  0  3.962312  0
C  C160  1  0.56765778  0.17588163  0.56008229  1  -0.016036  0  -0.084282  -0.108361  0  3.942814  0
C  C161  1  0.93233956  0.32411871  0.06008313  1  -0.016235  0  -0.084297  -0.108395  0  3.94284  0
C  C162  1  0.43234170  0.82411442  0.43991814  1  -0.017169  0  -0.084334  -0.108397  0  3.942688  0
C  C163  1  0.06765740  0.67588275  0.93991556  1  -0.016483  0  -0.084367  -0.10847  0  3.942794  0
C  C164  1  0.57094966  0.10772086  0.60868959  1  -0.020574  0  -0.086496  -0.150329  0  3.981396  0
C  C165  1  0.92904859  0.39227822  0.10869107  1  -0.020411  0  -0.086517  -0.150427  0  3.981349  0
C  C166  1  0.42905010  0.89227587  0.39131085  1  -0.020299  0  -0.086445  -0.150301  0  3.981404  0
C  C167  1  0.07094957  0.60772122  0.89130879  1  -0.020367  0  -0.086473  -0.15026  0  3.981335  0
C  C168  1  0.48951833  0.02472443  0.61142711  1  0.23319  0  0.085714  0.144118  0  4.037892  0
C  C169  1  0.01048082  0.47527346  0.11142649  1  0.233465  0  0.085801  0.144301  0  4.03789  0
C  C170  1  0.51048086  0.97527095  0.38857391  1  0.232881  0  0.08575  0.144117  0  4.038042  0
C  C171  1  0.98951705  0.52472529  0.88857336  1  0.232967  0  0.085718  0.144161  0  4.037891  0
C  C172  1  0.40456839  0.01007983  0.56726877  1  0.025679  0  -0.088881  -0.154739  0  3.972833  0
C  C173  1  0.09543147  0.48991663  0.06727059  1  0.025386  0  -0.088904  -0.1548  0  3.972876  0
C  C174  1  0.59543189  0.98991487  0.43273225  1  0.02581  0  -0.088984  -0.154932  0  3.973056  0
C  C175  1  0.90456749  0.51008145  0.93273218  1  0.025725  0  -0.089021  -0.15502  0  3.973176  0
C  C176  1  0.40251610  0.08002264  0.51942497  1  -0.074346  0  -0.089276  -0.125827  0  3.968811  0
C  C177  1  0.09748028  0.41997710  0.01942556  1  -0.07445  0  -0.089278  -0.125808  0  3.968576  0
C  C178  1  0.59748172  0.91997273  0.48057605  1  -0.074619  0  -0.089145  -0.125491  0  3.968747  0
C  C179  1  0.90251690  0.58002165  0.98057546  1  -0.074578  0  -0.089208  -0.125644  0  3.968807  0
C  C180  1  0.44273460  0.56266757  0.68125489  1  0.918731  0  0.168224  0.103944  0  3.849593  0
C  C181  1  0.05726575  0.93733183  0.18125545  1  0.91872  0  0.168214  0.10389  0  3.849621  0
C  C182  1  0.55726584  0.43732916  0.31874322  1  0.918725  0  0.168258  0.103948  0  3.849769  0
C  C183  1  0.94273451  0.06267100  0.81874441  1  0.918758  0  0.168255  0.103979  0  3.849735  0
C  C184  1  0.60397885  0.61711775  0.67607865  1  0.986019  0  0.170567  0.099189  0  3.867635  0
C  C185  1  0.89602076  0.88288486  0.17608009  1  0.986189  0  0.170566  0.099138  0  3.867629  0
C  C186  1  0.39602125  0.38288304  0.32391770  1  0.986104  0  0.17054  0.099131  0  3.867423  0
C  C187  1  0.10397950  0.11711796  0.82392035  1  0.985987  0  0.170534  0.099186  0  3.867323  0
C  C188  1  0.42145756  0.88472815  0.69634454  1  0.951139  0  0.170879  0.102053  0  3.844197  0
C  C189  1  0.07854449  0.61527197  0.19634480  1  0.951294  0  0.170919  0.102085  0  3.844213  0
C  C190  1  0.57854260  0.11526791  0.30365649  1  0.95133  0  0.170854  0.101981  0  3.844215  0
C  C191  1  0.92145407  0.38472679  0.80365447  1  0.951233  0  0.170952  0.102087  0  3.844049  0
C  C192  1  0.58124493  0.94211846  0.67732269  1  0.968586  0  0.169892  0.108955  0  3.878698  0
C  C193  1  0.91875686  0.55788281  0.17732032  1  0.968591  0  0.169885  0.108975  0  3.878664  0
C  C194  1  0.41875637  0.05788031  0.32268009  1  0.968566  0  0.169852  0.108894  0  3.87865  0
C  C195  1  0.08124199  0.44211662  0.82267895  1  0.968728  0  0.16984  0.108874  0  3.878686  0
C  C196  1  0.20295900  0.64253845  0.70883921  1  1.539238  0  0.193417  0.606327  0  4.190221  0
C  C197  1  0.29704101  0.85746168  0.20884227  1  1.539278  0  0.1934  0.606275  0  4.190157  0
C  C198  1  0.79704069  0.35746302  0.29115948  1  1.539205  0  0.19338  0.606292  0  4.190246  0
C  C199  1  0.70295937  0.14253979  0.79115758  1  1.539152  0  0.193399  0.606247  0  4.190174  0
C  C200  1  0.10810597  0.61680163  0.66122530  1  -0.032906  0  -0.165796  -0.289647  0  3.937575  0
C  C201  1  0.39189503  0.88319774  0.16122732  1  -0.032599  0  -0.165858  -0.289671  0  3.93772  0
C  C202  1  0.89189482  0.38319917  0.33877280  1  -0.032592  0  -0.165882  -0.289719  0  3.937732  0
C  C203  1  0.60810575  0.11680306  0.83877196  1  -0.032712  0  -0.165859  -0.289663  0  3.937775  0
C  C204  1  0.11218047  0.68972025  0.60203242  1  0.020349  0  -0.160548  -0.097244  0  3.946434  0
C  C205  1  0.38781868  0.81028306  0.10203319  1  0.020037  0  -0.160502  -0.097237  0  3.946551  0
C  C206  1  0.88781951  0.31028190  0.39796627  1  0.020096  0  -0.160492  -0.097177  0  3.9464  0
C  C207  1  0.61218073  0.18971773  0.89796491  1  0.020101  0  -0.160498  -0.097266  0  3.946511  0
C  C208  1  0.19690697  0.70878898  0.54319854  1  -0.013292  0  -0.173606  -0.300096  0  3.935693  0
C  C209  1  0.30309149  0.79121286  0.04319746  1  -0.013692  0  -0.173687  -0.300257  0  3.935943  0
C  C210  1  0.80309233  0.29121316  0.45680132  1  -0.013281  0  -0.173677  -0.300285  0  3.935872  0
C  C211  1  0.69690684  0.20878860  0.95680123  1  -0.013289  0  -0.173611  -0.300136  0  3.935785  0
C  C212  1  0.19321666  0.77430694  0.47970546  1  1.55325  0  0.200894  0.627848  0  4.17473  0
C  C213  1  0.30678218  0.72569437  0.97970375  1  1.553363  0  0.200974  0.627973  0  4.174583  0
C  C214  1  0.80678219  0.22569250  0.52029381  1  1.553311  0  0.20095  0.628002  0  4.174756  0
C  C215  1  0.69321586  0.27430642  0.02029435  1  1.553201  0  0.200926  0.62794  0  4.174742  0
C  C216  1  0.83364526  0.86437166  0.68075208  1  1.494433  0  0.1943  0.61645  0  4.164729  0
C  C217  1  0.66635607  0.63563504  0.18075245  1  1.494359  0  0.19429  0.616353  0  4.164701  0
C  C218  1  0.16635695  0.13563254  0.31924778  1  1.494178  0  0.194397  0.61656  0  4.164534  0
C  C219  1  0.33364465  0.36437050  0.81924857  1  1.494175  0  0.19434  0.616551  0  4.164457  0
C  C220  1  0.91669090  0.88205815  0.62266768  1  -0.060915  0  -0.165142  -0.295767  0  3.923731  0
C  C221  1  0.58331145  0.61794303  0.12266620  1  -0.060978  0  -0.16516  -0.295745  0  3.923829  0
C  C222  1  0.08331114  0.11794401  0.37733335  1  -0.060918  0  -0.165148  -0.295751  0  3.923771  0
C  C223  1  0.41669110  0.38205711  0.87733307  1  -0.060802  0  -0.165061  -0.295639  0  3.92364  0
C  C224  1  0.87305231  0.82574120  0.54910026  1  0.024049  0  -0.161826  -0.09358  0  3.958423  0
C  C225  1  0.62694771  0.67426118  0.04909946  1  0.024121  0  -0.161743  -0.0935  0  3.958403  0
C  C226  1  0.12694944  0.17426028  0.45090077  1  0.023994  0  -0.161778  -0.093491  0  3.958389  0
C  C227  1  0.37305170  0.32573961  0.95089923  1  0.023928  0  -0.161833  -0.093631  0  3.958445  0
C  C228  1  0.95211029  0.83023200  0.48955482  1  -0.067085  0  -0.165743  -0.290459  0  3.916621  0
C  C229  1  0.54789080  0.66976986  0.98955455  1  -0.067127  0  -0.165691  -0.2903  0  3.916589  0
C  C230  1  0.04789226  0.16976813  0.51044679  1  -0.067125  0  -0.165758  -0.290502  0  3.91663  0
C  C231  1  0.45210912  0.33022891  0.01044414  1  -0.066776  0  -0.165712  -0.290369  0  3.916529  0
C  C232  1  0.90895949  0.77521973  0.41692309  1  1.544649  0  0.197473  0.63088  0  4.125944  0
C  C233  1  0.59104127  0.72477995  0.91692233  1  1.544653  0  0.197495  0.63094  0  4.125841  0
C  C234  1  0.09104415  0.22477973  0.58307910  1  1.544276  0  0.197459  0.630854  0  4.125899  0
C  C235  1  0.40896002  0.27521882  0.08307694  1  1.544365  0  0.197501  0.631033  0  4.125768  0
N  N236  1  0.47575462  0.63918542  0.72102022  1  -0.771629  0  -0.222043  -0.184257  0  3.367483  0
N  N237  1  0.02424531  0.86081609  0.22102009  1  -0.77164  0  -0.222039  -0.184253  0  3.367554  0
N  N238  1  0.52424628  0.36081403  0.27897847  1  -0.771744  0  -0.222099  -0.184277  0  3.367571  0
N  N239  1  0.97575427  0.13918673  0.77897977  1  -0.771741  0  -0.222072  -0.184257  0  3.367542  0
N  N240  1  0.57752371  0.67349637  0.71754838  1  -0.700073  0  -0.23021  -0.179818  0  3.433502  0
N  N241  1  0.92247640  0.82650565  0.21754979  1  -0.70021  0  -0.2302  -0.179794  0  3.433465  0
N  N242  1  0.42247719  0.32650308  0.28244856  1  -0.700181  0  -0.230177  -0.179763  0  3.433294  0
N  N243  1  0.07752318  0.17349718  0.78245007  1  -0.70009  0  -0.23019  -0.179828  0  3.433277  0
N  N244  1  0.52100170  0.54568570  0.65179855  1  -1.246536  0  -0.206872  -0.005343  0  3.76101  0
N  N245  1  0.97899866  0.95431552  0.15179897  1  -1.246491  0  -0.206887  -0.005267  0  3.760893  0
N  N246  1  0.47899960  0.45431307  0.34819897  1  -1.246492  0  -0.206814  -0.005295  0  3.760922  0
N  N247  1  0.02100063  0.04568662  0.84819971  1  -1.246525  0  -0.206822  -0.005308  0  3.760941  0
N  N248  1  0.45964708  0.83431942  0.73474393  1  -0.723595  0  -0.227259  -0.180431  0  3.419837  0
N  N249  1  0.04035573  0.66568078  0.23474479  1  -0.72398  0  -0.22733  -0.180546  0  3.419961  0
N  N250  1  0.54035542  0.16567733  0.26525710  1  -0.723882  0  -0.227332  -0.180463  0  3.419821  0
N  N251  1  0.95964391  0.33431731  0.76525624  1  -0.72396  0  -0.227307  -0.180462  0  3.419877  0
N  N252  1  0.56018325  0.87046198  0.72251176  1  -0.747223  0  -0.23517  -0.188752  0  3.439016  0
N  N253  1  0.93981932  0.62953939  0.22251124  1  -0.747187  0  -0.235157  -0.188757  0  3.438968  0
N  N254  1  0.43981902  0.12953748  0.27749102  1  -0.747058  0  -0.235113  -0.18876  0  3.438983  0
N  N255  1  0.06017992  0.37045937  0.77748803  1  -0.747203  0  -0.235194  -0.188781  0  3.438951  0
N  N256  1  0.49599480  0.95401816  0.65939515  1  -1.273205  0  -0.208064  -0.011315  0  3.772215  0
N  N257  1  0.00400825  0.54598122  0.15939527  1  -1.273203  0  -0.208115  -0.011339  0  3.772232  0
N  N258  1  0.50400525  0.04597925  0.34060704  1  -1.273287  0  -0.208045  -0.0111  0  3.772195  0
N  N259  1  0.99599276  0.45401687  0.84060634  1  -1.27301  0  -0.208008  -0.011212  0  3.772126  0
O  O260  1  0.24032367  0.58270219  0.71975867  1  -1.193714  0  -0.334227  -0.599706  0  2.259747  0
O  O261  1  0.25967472  0.91729727  0.21976059  1  -1.193739  0  -0.33418  -0.59966  0  2.259675  0
O  O262  1  0.75967506  0.41729860  0.28024060  1  -1.19376  0  -0.33419  -0.599681  0  2.259681  0
O  O263  1  0.74032635  0.08270420  0.78023985  1  -1.193633  0  -0.334192  -0.599657  0  2.259678  0
O  O264  1  0.24133132  0.72099873  0.73829214  1  -1.174258  0  -0.328466  -0.556961  0  2.173027  0
O  O265  1  0.25866973  0.77900214  0.23829450  1  -1.174252  0  -0.32848  -0.556939  0  2.173016  0
O  O266  1  0.75866906  0.27900275  0.26170655  1  -1.174184  0  -0.328447  -0.556932  0  2.173017  0
O  O267  1  0.74132968  0.22099865  0.76170536  1  -1.17418  0  -0.328474  -0.556918  0  2.173002  0
O  O268  1  0.20655127  0.85456058  0.50048910  1  -1.194741  0  -0.33423  -0.575416  0  2.153519  0
O  O269  1  0.29344955  0.64544052  0.00049137  1  -1.194696  0  -0.334232  -0.575404  0  2.15343  0
O  O270  1  0.79344688  0.14543885  0.49950784  1  -1.194698  0  -0.334232  -0.575445  0  2.153459  0
O  O271  1  0.70655055  0.35456028  0.99950907  1  -1.194665  0  -0.334228  -0.575408  0  2.153443  0
O  O272  1  0.17526110  0.74199377  0.41062329  1  -1.163354  0  -0.351672  -0.583283  0  2.232888  0
O  O273  1  0.32473758  0.75800741  0.91062164  1  -1.163396  0  -0.351732  -0.583345  0  2.232863  0
O  O274  1  0.82474271  0.25800772  0.58937539  1  -1.16347  0  -0.351715  -0.583354  0  2.232999  0
O  O275  1  0.67526114  0.24199338  0.08937647  1  -1.163387  0  -0.351699  -0.583333  0  2.232996  0
O  O276  1  0.81252553  0.79743077  0.72723815  1  -1.151692  0  -0.341561  -0.558523  0  2.144374  0
O  O277  1  0.68747414  0.70256856  0.22723687  1  -1.151541  0  -0.341553  -0.558438  0  2.144553  0
O  O278  1  0.18747514  0.20257139  0.27276170  1  -1.151323  0  -0.341602  -0.558531  0  2.144376  0
O  O279  1  0.31252578  0.29743021  0.77276182  1  -1.151285  0  -0.341577  -0.558555  0  2.144293  0
O  O280  1  0.78185705  0.91348393  0.67947200  1  -1.182065  0  -0.334023  -0.580427  0  2.219148  0
O  O281  1  0.71814862  0.58652008  0.17946946  1  -1.182122  0  -0.334035  -0.580443  0  2.218859  0
O  O282  1  0.21814721  0.08652028  0.32052844  1  -1.182182  0  -0.334082  -0.58053  0  2.219033  0
O  O283  1  0.28185479  0.41348209  0.82052923  1  -1.182215  0  -0.33408  -0.580542  0  2.219036  0
O  O284  1  0.82281709  0.76626707  0.39448754  1  -1.158115  0  -0.331312  -0.545881  0  2.159379  0
O  O285  1  0.67718129  0.73373189  0.89448688  1  -1.158122  0  -0.331334  -0.545928  0  2.159414  0
O  O286  1  0.17718609  0.23372969  0.60551582  1  -1.157885  0  -0.331327  -0.545882  0  2.159428  0
O  O287  1  0.32281767  0.26626619  0.10551239  1  -1.158079  0  -0.33135  -0.545982  0  2.159352  0
O  O288  1  0.95979399  0.73834535  0.37919788  1  -1.197743  0  -0.352055  -0.60941  0  2.263242  0
O  O289  1  0.54020840  0.76165833  0.87919886  1  -1.197745  0  -0.352043  -0.609461  0  2.263239  0
O  O290  1  0.04021176  0.26165750  0.62080255  1  -1.197684  0  -0.352002  -0.609358  0  2.263248  0
O  O291  1  0.45979209  0.23834179  0.12080099  1  -1.19782  0  -0.352049  -0.609501  0  2.263243  0
O  O292  1  0.35597418  0.57641180  0.88500134  1  -1.300079  0  -0.601043  -0.788872  0  2.139924  0
O  O293  1  0.14402256  0.92359135  0.38500256  1  -1.300117  0  -0.601063  -0.78889  0  2.139902  0
O  O294  1  0.64402277  0.42358965  0.11499910  1  -1.300128  0  -0.601052  -0.788867  0  2.139907  0
O  O295  1  0.85597634  0.07641147  0.61499729  1  -1.300148  0  -0.60108  -0.788932  0  2.139892  0
O  O296  1  0.71415166  0.94350429  0.86612509  1  -1.252415  0  -0.588711  -0.76408  0  2.06913  0
O  O297  1  0.78585110  0.55649870  0.36612609  1  -1.25238  0  -0.588783  -0.764115  0  2.069058  0
O  O298  1  0.28585009  0.05649719  0.13387477  1  -1.252406  0  -0.588736  -0.764094  0  2.069172  0
O  O299  1  0.21415145  0.44350143  0.63387610  1  -1.252403  0  -0.588696  -0.764077  0  2.069204  0
