# generated using pymatgen
data_NdH13C14N2O9
_symmetry_space_group_name_H-M   'P 1'
_cell_length_a   7.69501907
_cell_length_b   9.68381919
_cell_length_c   11.30642508
_cell_angle_alpha   100.93306512
_cell_angle_beta   93.40187378
_cell_angle_gamma   105.29760817
_symmetry_Int_Tables_number   1
_chemical_formula_structural   NdH13C14N2O9
_chemical_formula_sum   'Nd2 H26 C28 N4 O18'
_cell_volume   792.58111683
_cell_formula_units_Z   2
loop_
 _symmetry_equiv_pos_site_id
 _symmetry_equiv_pos_as_xyz
  1  'x, y, z'
loop_
 _atom_site_type_symbol
 _atom_site_label
 _atom_site_symmetry_multiplicity
 _atom_site_fract_x
 _atom_site_fract_y
 _atom_site_fract_z
 _atom_site_occupancy
 _atom_site_hle17_bader_spin_density
 _atom_site_hle17_ddec_charge
 _atom_site_hle17_ddec_spin_density
 _atom_site_hle17_ddec_sum_bond_order
 _atom_site_hle17_magmom
 _atom_site_hse06_10hf_bader_spin_density
 _atom_site_hse06_10hf_ddec_charge
 _atom_site_hse06_10hf_ddec_spin_density
 _atom_site_hse06_10hf_ddec_sum_bond_order
 _atom_site_hse06_10hf_magmom
 _atom_site_hse06_bader_spin_density
 _atom_site_hse06_ddec_charge
 _atom_site_hse06_ddec_spin_density
 _atom_site_hse06_ddec_sum_bond_order
 _atom_site_hse06_magmom
 _atom_site_pbe_bader_spin_density
 _atom_site_pbe_cm5_charge
 _atom_site_pbe_ddec_charge
 _atom_site_pbe_ddec_spin_density
 _atom_site_pbe_ddec_sum_bond_order
 _atom_site_pbe_magmom
Nd  Nd0  1  0.10172891  0.84093336  0.05717129  1  0  2.249258  0  1.660559  0  0  2.085765  0  2.131569  0  0  2.188432  0  1.976525  0  0  1.483712  2.052739  0  2.165356  0
Nd  Nd1  1  0.89826013  0.15906471  0.94282756  1  0  2.249311  0  1.660538  0  0  2.085892  0  2.131406  0  0  2.188492  0  1.976492  0  0  1.483715  2.052863  0  2.165191  0
H  H2  1  0.83862763  0.00217875  0.19628707  1  0  0.440338  0  0.849389  0  0  0.410523  0  0.909889  0  0  0.422017  0  0.893132  0  0  0.304057  0.402396  0  0.921892  0
H  H3  1  0.16138076  0.99783354  0.80371921  1  0  0.440366  0  0.849348  0  0  0.410513  0  0.909923  0  0  0.422009  0  0.893164  0  0  0.304068  0.402384  0  0.921934  0
H  H4  1  0.99166943  0.97765488  0.28974098  1  0  0.428571  0  0.846083  0  0  0.399995  0  0.911385  0  0  0.410862  0  0.895452  0  0  0.308011  0.391877  0  0.923567  0
H  H5  1  0.00832807  0.02235634  0.71026038  1  0  0.428515  0  0.846177  0  0  0.399912  0  0.911529  0  0  0.410781  0  0.895592  0  0  0.307968  0.391793  0  0.923712  0
H  H6  1  0.19794441  0.22934617  0.47231490  1  0  0.12346  0  0.951023  0  0  0.135116  0  1.007757  0  0  0.13862  0  1.005442  0  0  0.109226  0.132183  0  1.010167  0
H  H7  1  0.80206520  0.77064755  0.52768203  1  0  0.12351  0  0.950891  0  0  0.135111  0  1.007684  0  0  0.138615  0  1.005369  0  0  0.109219  0.132181  0  1.010091  0
H  H8  1  0.08750016  0.32990524  0.66548466  1  0  0.1131  0  0.962924  0  0  0.123015  0  1.020113  0  0  0.126189  0  1.019053  0  0  0.108842  0.120854  0  1.020742  0
H  H9  1  0.91251070  0.67008851  0.33450966  1  0  0.113051  0  0.962978  0  0  0.122967  0  1.02018  0  0  0.126141  0  1.019121  0  0  0.108813  0.120812  0  1.020804  0
H  H10  1  0.11810088  0.59382213  0.72944728  1  0  0.119587  0  0.9596  0  0  0.128923  0  1.020092  0  0  0.132462  0  1.017909  0  0  0.109604  0.126372  0  1.021736  0
H  H11  1  0.88188522  0.40616713  0.27055440  1  0  0.119563  0  0.959647  0  0  0.128872  0  1.020174  0  0  0.132427  0  1.017971  0  0  0.109574  0.12632  0  1.021827  0
H  H12  1  0.26078787  0.77054214  0.60571118  1  0  0.114958  0  0.932232  0  0  0.128996  0  0.983253  0  0  0.132061  0  0.981777  0  0  0.112724  0.126737  0  0.984431  0
H  H13  1  0.73919428  0.22944713  0.39428862  1  0  0.114949  0  0.932283  0  0  0.128966  0  0.983336  0  0  0.132044  0  0.981842  0  0  0.112702  0.126708  0  0.984512  0
H  H14  1  0.51128687  0.69580904  0.16602526  1  0  0.162857  0  0.929822  0  0  0.181524  0  0.984033  0  0  0.184411  0  0.982465  0  0  0.118745  0.1795  0  0.985171  0
H  H15  1  0.48871221  0.30418795  0.83397370  1  0  0.16284  0  0.929828  0  0  0.181501  0  0.984051  0  0  0.184388  0  0.982481  0  0  0.11875  0.179477  0  0.985182  0
H  H16  1  0.40646841  0.50950650  0.09849452  1  0  0.163233  0  0.927511  0  0  0.183684  0  0.979868  0  0  0.186452  0  0.978663  0  0  0.117013  0.181728  0  0.980611  0
H  H17  1  0.59352163  0.49049044  0.90150771  1  0  0.163174  0  0.927635  0  0  0.183692  0  0.979893  0  0  0.18646  0  0.978687  0  0  0.117005  0.181735  0  0.980639  0
H  H18  1  0.62848803  0.56235736  0.17661704  1  0  0.163192  0  0.947963  0  0  0.176798  0  1.014418  0  0  0.180697  0  1.011847  0  0  0.11174  0.174252  0  1.015893  0
H  H19  1  0.37150464  0.43763635  0.82337851  1  0  0.163141  0  0.947986  0  0  0.176764  0  1.014419  0  0  0.180661  0  1.011852  0  0  0.11173  0.174218  0  1.015894  0
H  H20  1  0.53808481  0.85183648  0.32752145  1  0  0.124454  0  0.909649  0  0  0.139419  0  0.965727  0  0  0.142367  0  0.962909  0  0  0.128919  0.137452  0  0.967623  0
H  H21  1  0.46191091  0.14815508  0.67246940  1  0  0.124422  0  0.909691  0  0  0.139428  0  0.965736  0  0  0.142379  0  0.962912  0  0  0.128907  0.137457  0  0.967629  0
H  H22  1  0.48639131  0.87802435  0.47876079  1  0  0.113639  0  0.950306  0  0  0.121075  0  1.019475  0  0  0.124362  0  1.016661  0  0  0.114366  0.119026  0  1.021191  0
H  H23  1  0.51360712  0.12197486  0.52123411  1  0  0.113652  0  0.950262  0  0  0.121052  0  1.019496  0  0  0.124339  0  1.016681  0  0  0.114342  0.118999  0  1.021211  0
H  H24  1  0.35790789  0.20877952  0.29957294  1  0  0.132909  0  0.921339  0  0  0.140581  0  0.989458  0  0  0.14362  0  0.987348  0  0  0.129992  0.138474  0  0.990968  0
H  H25  1  0.64209621  0.79122076  0.70042585  1  0  0.132912  0  0.921388  0  0  0.140609  0  0.989491  0  0  0.14365  0  0.987381  0  0  0.129985  0.138501  0  0.991002  0
H  H26  1  0.47210042  0.30062061  0.19326651  1  0  0.135101  0  0.896286  0  0  0.149468  0  0.949812  0  0  0.151589  0  0.948983  0  0  0.136086  0.148253  0  0.949997  0
H  H27  1  0.52790778  0.69937960  0.80674123  1  0  0.135081  0  0.896266  0  0  0.149506  0  0.949749  0  0  0.151632  0  0.948914  0  0  0.136104  0.148291  0  0.949934  0
C  C28  1  0.28815810  0.44614229  0.43138094  1  0  0.1125  0  3.793112  0  0  0.097773  0  4.052102  0  0  0.102008  0  4.073822  0  0  0.097902  0.094804  0  4.037329  0
C  C29  1  0.71184452  0.55385359  0.56861881  1  0  0.112173  0  3.793506  0  0  0.097454  0  4.052371  0  0  0.101686  0  4.07409  0  0  0.097897  0.094485  0  4.037597  0
C  C30  1  0.21124545  0.34606933  0.50072528  1  0  -0.147614  0  3.729759  0  0  -0.170226  0  3.989104  0  0  -0.173185  0  4.008517  0  0  -0.094184  -0.168027  0  3.976125  0
C  C31  1  0.78875654  0.65392109  0.49927175  1  0  -0.147477  0  3.729894  0  0  -0.170059  0  3.989235  0  0  -0.173018  0  4.008649  0  0  -0.094134  -0.167863  0  3.976262  0
C  C32  1  0.15162979  0.40325944  0.60853704  1  0  -0.061366  0  3.733957  0  0  -0.078623  0  3.994533  0  0  -0.080724  0  4.016145  0  0  -0.089875  -0.076957  0  3.979535  0
C  C33  1  0.84837802  0.59673646  0.39146199  1  0  -0.061423  0  3.734049  0  0  -0.078689  0  3.994618  0  0  -0.080792  0  4.016234  0  0  -0.089923  -0.077021  0  3.979627  0
C  C34  1  0.16926251  0.55409110  0.64575012  1  0  -0.05771  0  3.714013  0  0  -0.080826  0  3.979112  0  0  -0.082245  0  3.9996  0  0  -0.08831  -0.079901  0  3.965074  0
C  C35  1  0.83073441  0.44589926  0.35425295  1  0  -0.057549  0  3.714085  0  0  -0.080657  0  3.97919  0  0  -0.082086  0  3.999677  0  0  -0.088222  -0.079738  0  3.965158  0
C  C36  1  0.24779667  0.65400527  0.57673763  1  0  -0.135631  0  3.740405  0  0  -0.154473  0  4.0002  0  0  -0.157119  0  4.019995  0  0  -0.088175  -0.152307  0  3.986406  0
C  C37  1  0.75218621  0.34598621  0.42326079  1  0  -0.135693  0  3.740559  0  0  -0.154581  0  4.000279  0  0  -0.157242  0  4.020078  0  0  -0.088153  -0.152411  0  3.986484  0
C  C38  1  0.30669040  0.59693817  0.46880408  1  0  0.101775  0  3.793879  0  0  0.08575  0  4.050765  0  0  0.088909  0  4.0734  0  0  0.09554  0.08362  0  4.035402  0
C  C39  1  0.69330537  0.40305660  0.53119706  1  0  0.101738  0  3.794185  0  0  0.085919  0  4.050727  0  0  0.089085  0  4.073362  0  0  0.095479  0.083787  0  4.035363  0
C  C40  1  0.41588702  0.56064329  0.28979864  1  0  0.412908  0  3.57547  0  0  0.368274  0  3.86105  0  0  0.391493  0  3.867759  0  0  0.269873  0.35294  0  3.856115  0
C  C41  1  0.58411453  0.43935697  0.71020272  1  0  0.412876  0  3.57506  0  0  0.368162  0  3.860794  0  0  0.391385  0  3.867503  0  0  0.269896  0.35283  0  3.855851  0
C  C42  1  0.49512116  0.58374001  0.17752590  1  0  -0.41608  0  3.654839  0  0  -0.492079  0  3.893336  0  0  -0.497642  0  3.894657  0  0  -0.222825  -0.488081  0  3.891975  0
C  C43  1  0.50487036  0.41625365  0.82247668  1  0  -0.415926  0  3.654655  0  0  -0.491972  0  3.89316  0  0  -0.497535  0  3.894481  0  0  -0.222822  -0.487977  0  3.891801  0
C  C44  1  0.43079101  0.82102152  0.38539045  1  0  -0.148318  0  3.582209  0  0  -0.209411  0  3.831767  0  0  -0.209428  0  3.836002  0  0  -0.049514  -0.20927  0  3.828553  0
C  C45  1  0.56921227  0.17897659  0.61460529  1  0  -0.148312  0  3.582235  0  0  -0.209438  0  3.83184  0  0  -0.209457  0  3.836084  0  0  -0.049442  -0.209283  0  3.828596  0
C  C46  1  0.26872034  0.86872347  0.33740090  1  0  0.695499  0  3.895577  0  0  0.649651  0  4.204318  0  0  0.682321  0  4.199146  0  0  0.209412  0.627117  0  4.209537  0
C  C47  1  0.73128557  0.13127786  0.66260431  1  0  0.695493  0  3.895791  0  0  0.649634  0  4.204559  0  0  0.682304  0  4.19938  0  0  0.209348  0.627095  0  4.209776  0
C  C48  1  0.35290392  0.28904533  0.24328558  1  0  -0.147793  0  3.591378  0  0  -0.204123  0  3.834985  0  0  -0.204662  0  3.840825  0  0  -0.040064  -0.203471  0  3.830224  0
C  C49  1  0.64710339  0.71096043  0.75671512  1  0  -0.147777  0  3.591223  0  0  -0.204247  0  3.834965  0  0  -0.204792  0  3.84081  0  0  -0.040076  -0.203594  0  3.830201  0
C  C50  1  0.17991628  0.22973401  0.15407189  1  0  0.695118  0  3.883958  0  0  0.648544  0  4.188832  0  0  0.680825  0  4.187137  0  0  0.212825  0.626208  0  4.194783  0
C  C51  1  0.82009327  0.77027834  0.84592824  1  0  0.6951  0  3.884065  0  0  0.648588  0  4.188865  0  0  0.680869  0  4.187174  0  0  0.212903  0.626252  0  4.194816  0
C  C52  1  0.90427968  0.49640867  0.02111938  1  0  0.561608  0  3.915386  0  0  0.518801  0  4.212198  0  0  0.548809  0  4.208206  0  0  0.218226  0.498138  0  4.218179  0
C  C53  1  0.09572493  0.50360481  0.97887549  1  0  0.561676  0  3.915638  0  0  0.518841  0  4.212477  0  0  0.548848  0  4.208485  0  0  0.218267  0.498178  0  4.218457  0
C  C54  1  0.53777381  0.00333093  0.06649489  1  0  0.572543  0  3.906299  0  0  0.529094  0  4.203329  0  0  0.559199  0  4.198224  0  0  0.223942  0.508502  0  4.209503  0
C  C55  1  0.46221957  0.99668681  0.93351278  1  0  0.572349  0  3.906544  0  0  0.52898  0  4.203469  0  0  0.559089  0  4.198361  0  0  0.223842  0.508386  0  4.209642  0
N  N56  1  0.38806336  0.66396556  0.37932910  1  0  -0.119721  0  3.4989  0  0  -0.040837  0  3.724789  0  0  -0.056632  0  3.746656  0  0  -0.221791  -0.030325  0  3.709724  0
N  N57  1  0.61193686  0.33602702  0.62067178  1  0  -0.119671  0  3.498705  0  0  -0.040807  0  3.724575  0  0  -0.05661  0  3.746446  0  0  -0.221792  -0.030299  0  3.709502  0
N  N58  1  0.35978086  0.42865307  0.32088959  1  0  -0.135925  0  3.513979  0  0  -0.058947  0  3.739678  0  0  -0.075458  0  3.762674  0  0  -0.226879  -0.047916  0  3.723806  0
N  N59  1  0.64022710  0.57134276  0.67911651  1  0  -0.135704  0  3.513811  0  0  -0.058733  0  3.73957  0  0  -0.075244  0  3.762568  0  0  -0.226876  -0.047706  0  3.723696  0
O  O60  1  0.25482996  0.99385420  0.38340072  1  0  -0.653943  0  1.880986  0  0  -0.608195  0  2.099384  0  0  -0.632451  0  2.090392  0  0  -0.328706  -0.591405  0  2.106553  0
O  O61  1  0.74516749  0.00614167  0.61660065  1  0  -0.654007  0  1.880942  0  0  -0.608254  0  2.099355  0  0  -0.632511  0  2.090361  0  0  -0.32873  -0.591463  0  2.106518  0
O  O62  1  0.16490067  0.77662764  0.24879337  1  0  -0.729453  0  2.027279  0  0  -0.676585  0  2.278088  0  0  -0.709442  0  2.268667  0  0  -0.411638  -0.65856  0  2.283236  0
O  O63  1  0.83510288  0.22336715  0.75120622  1  0  -0.729442  0  2.027651  0  0  -0.676569  0  2.278461  0  0  -0.709413  0  2.269041  0  0  -0.411621  -0.65855  0  2.283608  0
O  O64  1  0.16746686  0.11378873  0.07261749  1  0  -0.828193  0  2.083951  0  0  -0.768195  0  2.34118  0  0  -0.807533  0  2.33092  0  0  -0.424092  -0.749767  0  2.347658  0
O  O65  1  0.83253476  0.88621919  0.92738607  1  0  -0.828237  0  2.08421  0  0  -0.768267  0  2.34142  0  0  -0.807604  0  2.331162  0  0  -0.424189  -0.749839  0  2.347898  0
O  O66  1  0.05936186  0.29506585  0.16004112  1  0  -0.633988  0  2.002502  0  0  -0.589225  0  2.238305  0  0  -0.617043  0  2.231415  0  0  -0.329065  -0.573182  0  2.242356  0
O  O67  1  0.94065624  0.70495639  0.83995743  1  0  -0.633959  0  2.002526  0  0  -0.589215  0  2.238304  0  0  -0.617038  0  2.231413  0  0  -0.329075  -0.573172  0  2.242349  0
O  O68  1  0.86991689  0.61676153  0.05974175  1  0  -0.652401  0  2.053894  0  0  -0.600248  0  2.29383  0  0  -0.6304  0  2.284038  0  0  -0.379613  -0.583758  0  2.298764  0
O  O69  1  0.13007979  0.38323662  0.94024937  1  0  -0.652472  0  2.053527  0  0  -0.600349  0  2.293512  0  0  -0.630495  0  2.283723  0  0  -0.379661  -0.583854  0  2.298437  0
O  O70  1  0.79500093  0.37112202  0.01337454  1  0  -0.660002  0  2.051402  0  0  -0.615789  0  2.300662  0  0  -0.645334  0  2.290161  0  0  -0.387501  -0.599874  0  2.305747  0
O  O71  1  0.20499410  0.62887055  0.98662707  1  0  -0.659896  0  2.051934  0  0  -0.61568  0  2.301233  0  0  -0.645226  0  2.290725  0  0  -0.387419  -0.599772  0  2.306324  0
O  O72  1  0.42933889  0.93899949  0.13110082  1  0  -0.655447  0  2.066467  0  0  -0.608355  0  2.313477  0  0  -0.638072  0  2.303385  0  0  -0.365946  -0.592244  0  2.318876  0
O  O73  1  0.57066738  0.06102153  0.86890956  1  0  -0.65541  0  2.066411  0  0  -0.608339  0  2.313376  0  0  -0.638047  0  2.303278  0  0  -0.365929  -0.592226  0  2.318771  0
O  O74  1  0.70316960  0.07379040  0.10026018  1  0  -0.664869  0  2.065828  0  0  -0.609414  0  2.302249  0  0  -0.639  0  2.28989  0  0  -0.354945  -0.592964  0  2.309211  0
O  O75  1  0.29683318  0.92622848  0.89974354  1  0  -0.664783  0  2.066038  0  0  -0.609319  0  2.302429  0  0  -0.638911  0  2.290064  0  0  -0.354893  -0.592868  0  2.309395  0
O  O76  1  0.90985732  0.93522889  0.21401052  1  0  -0.888148  0  1.831793  0  0  -0.837224  0  2.007483  0  0  -0.861316  0  1.969954  0  0  -0.617597  -0.825157  0  2.031574  0
O  O77  1  0.09014585  0.06478017  0.78598709  1  0  -0.888158  0  1.83176  0  0  -0.837184  0  2.007389  0  0  -0.861284  0  1.969896  0  0  -0.617594  -0.825118  0  2.03148  0
