# generated using pymatgen
data_ZnH8C12(IN2)2
_symmetry_space_group_name_H-M   'P 1'
_cell_length_a   8.09766688
_cell_length_b   17.87414980
_cell_length_c   20.10238167
_cell_angle_alpha   87.37992974
_cell_angle_beta   78.37507763
_cell_angle_gamma   76.88525361
_symmetry_Int_Tables_number   1
_chemical_formula_structural   ZnH8C12(IN2)2
_chemical_formula_sum   'Zn6 H48 C72 I12 N24'
_cell_volume   2775.58168279
_cell_formula_units_Z   6
loop_
 _symmetry_equiv_pos_site_id
 _symmetry_equiv_pos_as_xyz
  1  'x, y, z'
loop_
 _atom_site_type_symbol
 _atom_site_label
 _atom_site_symmetry_multiplicity
 _atom_site_fract_x
 _atom_site_fract_y
 _atom_site_fract_z
 _atom_site_occupancy
 _atom_site_pbe_bader_charge
 _atom_site_pbe_bader_spin_density
 _atom_site_pbe_cm5_charge
 _atom_site_pbe_ddec_charge
 _atom_site_pbe_ddec_spin_density
 _atom_site_pbe_ddec_sum_bond_order
 _atom_site_pbe_magmom
Zn  Zn0  1  0.05449603  0.99246427  0.63839241  1  0.908021  0  0.450974  0.468876  0  2.733685  0
Zn  Zn1  1  0.68508951  0.00742782  0.36159000  1  0.912505  0  0.450866  0.468461  0  2.734827  0
Zn  Zn2  1  0.44240281  0.49263887  0.86170747  1  0.913075  0  0.450159  0.468153  0  2.73417  0
Zn  Zn3  1  0.79674438  0.50751785  0.13835067  1  0.912886  0  0.450753  0.46952  0  2.735172  0
Zn  Zn4  1  0.97843397  0.50006173  0.49985732  1  0.891771  0  0.439349  0.454247  0  2.73585  0
Zn  Zn5  1  0.22889147  0.99991397  0.99991429  1  0.889988  0  0.439473  0.453824  0  2.735626  0
H  H6  1  0.90078458  0.34334056  0.51685730  1  0.120699  0  0.101273  0.076452  0  1.03786  0
H  H7  1  0.66791609  0.28117735  0.49261790  1  0.140787  0  0.113617  0.129069  0  0.997178  0
H  H8  1  0.53299392  0.47036206  0.35848422  1  0.127344  0  0.111493  0.125283  0  1.009817  0
H  H9  1  0.77114655  0.52469060  0.38759381  1  0.108724  0  0.114833  0.087102  0  0.992159  0
H  H10  1  0.37816681  0.05116478  0.59242094  1  0.113032  0  0.105191  0.085221  0  1.02098  0
H  H11  1  0.46923958  0.15741121  0.51915600  1  0.10735  0  0.106712  0.118804  0  1.021509  0
H  H12  1  0.99225651  0.19015919  0.44558318  1  0.133107  0  0.097385  0.111793  0  1.058189  0
H  H13  1  0.91393687  0.08598158  0.52505268  1  0.118108  0  0.099488  0.074561  0  1.047193  0
H  H14  1  0.80297006  0.35926370  0.22204089  1  0.102449  0  0.116811  0.09162  0  0.987697  0
H  H15  1  0.98040382  0.28569099  0.30312875  1  0.124626  0  0.110257  0.122515  0  1.010688  0
H  H16  1  0.22704932  0.47685181  0.29753641  1  0.148469  0  0.098486  0.117053  0  1.050291  0
H  H17  1  0.03931355  0.54285164  0.21757949  1  0.126691  0  0.096444  0.079742  0  1.053496  0
H  H18  1  0.76052759  0.65671506  0.48300185  1  0.120122  0  0.101917  0.078418  0  1.037725  0
H  H19  1  0.44113227  0.71887462  0.50748855  1  0.140697  0  0.113598  0.129228  0  0.997784  0
H  H20  1  0.36215682  0.52956179  0.64154993  1  0.11421  0  0.112398  0.126803  0  1.009379  0
H  H21  1  0.68382481  0.47527757  0.61221294  1  0.098357  0  0.115488  0.087876  0  0.991084  0
H  H22  1  0.02089351  0.94889277  0.40768726  1  0.110495  0  0.105036  0.084944  0  1.021726  0
H  H23  1  0.14526436  0.84276973  0.48102426  1  0.09922  0  0.107027  0.119488  0  1.020059  0
H  H24  1  0.62761893  0.80980369  0.55457530  1  0.122716  0  0.097533  0.111462  0  1.057602  0
H  H25  1  0.52438953  0.91378246  0.47493977  1  0.118659  0  0.099531  0.074212  0  1.046627  0
H  H26  1  0.38383629  0.64083231  0.77795781  1  0.122767  0  0.116766  0.09073  0  0.987499  0
H  H27  1  0.56879605  0.71435819  0.69680955  1  0.12801  0  0.110125  0.123668  0  1.011015  0
H  H28  1  0.00118253  0.52313114  0.70237881  1  0.143791  0  0.098089  0.116377  0  1.050836  0
H  H29  1  0.79954356  0.45714916  0.78233756  1  0.12431  0  0.096588  0.079697  0  1.055055  0
H  H30  1  0.16792549  0.84323343  0.98292920  1  0.129153  0  0.101847  0.076949  0  1.037906  0
H  H31  1  0.91067884  0.78116602  0.00731149  1  0.13895  0  0.113686  0.128612  0  0.997815  0
H  H32  1  0.64206674  0.97042278  0.14144627  1  0.149657  0  0.112225  0.125441  0  1.010206  0
H  H33  1  0.90946508  0.02462944  0.11218489  1  0.100433  0  0.115085  0.087209  0  0.992569  0
H  H34  1  0.72019177  0.55123855  0.90763108  1  0.104056  0  0.105537  0.086563  0  1.021056  0
H  H35  1  0.73816914  0.65754319  0.98077472  1  0.128522  0  0.107656  0.120556  0  1.019273  0
H  H36  1  0.18774063  0.69021141  0.05468974  1  0.125287  0  0.097354  0.110536  0  1.05808  0
H  H37  1  0.18870311  0.58600593  0.97527358  1  0.116524  0  0.099121  0.073743  0  1.047362  0
H  H38  1  0.77511480  0.85920816  0.27786364  1  0.115144  0  0.116393  0.090402  0  0.988281  0
H  H39  1  0.03400345  0.78560511  0.19691063  1  0.1218  0  0.110563  0.123351  0  1.011031  0
H  H40  1  0.27472540  0.97686439  0.20247515  1  0.140454  0  0.098299  0.117566  0  1.051358  0
H  H41  1  0.00677825  0.04286820  0.28232560  1  0.12608  0  0.096356  0.079266  0  1.05514  0
H  H42  1  0.99395918  0.15650412  0.01698993  1  0.126853  0  0.101769  0.077443  0  1.037816  0
H  H43  1  0.69898795  0.21868177  0.99260885  1  0.146898  0  0.113905  0.129025  0  0.997396  0
H  H44  1  0.75385530  0.02946633  0.85844395  1  0.134913  0  0.111528  0.125784  0  1.010255  0
H  H45  1  0.04639208  0.97526017  0.88758049  1  0.108405  0  0.114912  0.087613  0  0.991272  0
H  H46  1  0.17904160  0.44890839  0.09226673  1  0.113083  0  0.10544  0.085987  0  1.021062  0
H  H47  1  0.37647727  0.34254849  0.01914499  1  0.11995  0  0.107165  0.118374  0  1.021256  0
H  H48  1  0.93235463  0.30991768  0.94542363  1  0.130822  0  0.097009  0.110289  0  1.058165  0
H  H49  1  0.74973734  0.41414432  0.02484690  1  0.118676  0  0.099215  0.073824  0  1.046127  0
H  H50  1  0.91190511  0.14072735  0.72218526  1  0.110921  0  0.116868  0.090719  0  0.988363  0
H  H51  1  0.01602688  0.21437284  0.80311453  1  0.164847  0  0.11071  0.123081  0  1.009921  0
H  H52  1  0.45397645  0.02313898  0.79751018  1  0.134306  0  0.098128  0.116185  0  1.050253  0
H  H53  1  0.33195241  0.95705528  0.71775559  1  0.129015  0  0.096436  0.079574  0  1.055207  0
C  C54  1  0.44070673  0.33832550  0.41164540  1  1.126113  0  0.26115  0.374322  0  4.016057  0
C  C55  1  0.27787690  0.24937313  0.43666921  1  1.092821  0  0.26284  0.376361  0  4.002579  0
C  C56  1  0.22468733  0.33860423  0.35537746  1  1.105377  0  0.264169  0.380775  0  3.992014  0
C  C57  1  0.81691621  0.36873400  0.48162675  1  0.470779  0  0.044502  0.092104  0  3.932909  0
C  C58  1  0.68846874  0.33498964  0.46856443  1  -0.022495  0  -0.069494  -0.130167  0  3.905727  0
C  C59  1  0.58255344  0.37184348  0.42431553  1  0.004576  0  0.02093  0.059898  0  3.929697  0
C  C60  1  0.61282288  0.44066485  0.39338696  1  -0.024263  0  -0.067561  -0.133727  0  3.905856  0
C  C61  1  0.74370456  0.47072968  0.40944189  1  0.466619  0  0.047403  0.093969  0  3.923532  0
C  C62  1  0.29475818  0.08428751  0.56001194  1  0.432202  0  0.044256  0.092507  0  3.909495  0
C  C63  1  0.34552425  0.14308601  0.51928121  1  0.009042  0  -0.070565  -0.132976  0  3.915023  0
C  C64  1  0.23428721  0.18372279  0.47830981  1  0.042496  0  0.017843  0.057387  0  3.938037  0
C  C65  1  0.07917734  0.16177957  0.47843911  1  -0.001534  0  -0.075661  -0.136052  0  3.923593  0
C  C66  1  0.03632481  0.10329389  0.52159999  1  0.436167  0  0.042379  0.090954  0  3.925755  0
C  C67  1  0.89919284  0.38272114  0.24009317  1  0.479308  0  0.045903  0.084664  0  3.923891  0
C  C68  1  0.99761749  0.34227953  0.28479570  1  -0.023279  0  -0.070811  -0.134249  0  3.910115  0
C  C69  1  0.11868621  0.37599307  0.30609525  1  -0.006631  0  0.01523  0.051371  0  3.933784  0
C  C70  1  0.13525948  0.44896679  0.28171248  1  -0.003182  0  -0.07553  -0.131725  0  3.93685  0
C  C71  1  0.03097288  0.48577280  0.23775849  1  0.425605  0  0.042193  0.093242  0  3.916559  0
C  C72  1  0.19047989  0.66165861  0.58846145  1  1.113978  0  0.260937  0.370721  0  4.020811  0
C  C73  1  0.96370418  0.75076785  0.56353619  1  1.083691  0  0.262489  0.376835  0  4.001096  0
C  C74  1  0.91847534  0.66146818  0.64474161  1  1.098158  0  0.263899  0.382227  0  3.99064  0
C  C75  1  0.66697531  0.63131252  0.51830251  1  0.479909  0  0.043802  0.089344  0  3.934684  0
C  C76  1  0.49165694  0.66504724  0.53149931  1  -0.017893  0  -0.070025  -0.131698  0  3.906696  0
C  C77  1  0.37855152  0.62814042  0.57576794  1  0.004241  0  0.020725  0.061609  0  3.929216  0
C  C78  1  0.44701592  0.55930373  0.60663702  1  -0.03671  0  -0.068211  -0.133944  0  3.905869  0
C  C79  1  0.62405601  0.52926424  0.59045371  1  0.504566  0  0.045985  0.090915  0  3.920891  0
C  C80  1  0.93834273  0.91572845  0.44009397  1  0.443061  0  0.045496  0.09462  0  3.911696  0
C  C81  1  0.00733603  0.85701482  0.48086028  1  0.049325  0  -0.070286  -0.133596  0  3.916368  0
C  C82  1  0.89590559  0.81635712  0.52186209  1  -0.020311  0  0.016261  0.054128  0  3.940077  0
C  C83  1  0.71896243  0.83816002  0.52168156  1  0.015784  0  -0.075328  -0.133756  0  3.921479  0
C  C84  1  0.66063320  0.89654636  0.47843399  1  0.448282  0  0.042701  0.092126  0  3.923177  0
C  C85  1  0.52160001  0.61734377  0.75986509  1  0.472395  0  0.045842  0.086668  0  3.923057  0
C  C86  1  0.62428203  0.65776761  0.71513916  1  -0.056367  0  -0.069891  -0.136511  0  3.90972  0
C  C87  1  0.80043858  0.62403716  0.69388704  1  -0.03985  0  0.015223  0.051727  0  3.934268  0
C  C88  1  0.86562756  0.55102440  0.71821912  1  0.066136  0  -0.07615  -0.131942  0  3.936969  0
C  C89  1  0.75422223  0.51422600  0.76216013  1  0.439993  0  0.041121  0.09153  0  3.918157  0
C  C90  1  0.60259128  0.83840923  0.08830668  1  1.124258  0  0.260689  0.369859  0  4.019127  0
C  C91  1  0.46472420  0.74945142  0.06336579  1  1.109049  0  0.261366  0.373877  0  4.003725  0
C  C92  1  0.33045214  0.83859433  0.14473739  1  1.122133  0  0.262824  0.378861  0  3.990598  0
C  C93  1  0.04891330  0.86866633  0.01819804  1  0.451645  0  0.042953  0.089777  0  3.934811  0
C  C94  1  0.90729845  0.83498487  0.03132598  1  -0.06801  0  -0.069298  -0.129465  0  3.906296  0
C  C95  1  0.75720597  0.87187077  0.07559993  1  0.021039  0  0.020837  0.059804  0  3.93097  0
C  C96  1  0.75671255  0.94067925  0.10650825  1  -0.026131  0  -0.067585  -0.131567  0  3.906578  0
C  C97  1  0.90375139  0.97066750  0.09037892  1  0.500003  0  0.045805  0.090688  0  3.922423  0
C  C98  1  0.60441876  0.58438345  0.94005961  1  0.435719  0  0.043959  0.090751  0  3.915477  0
C  C99  1  0.61455413  0.64321570  0.98071159  1  -0.01484  0  -0.070837  -0.133569  0  3.917298  0
C  C100  1  0.46244544  0.68383628  0.02175366  1  0.052383  0  0.015972  0.053419  0  3.940448  0
C  C101  1  0.30743651  0.66186319  0.02176819  1  -0.031598  0  -0.073997  -0.131955  0  3.920631  0
C  C102  1  0.30761832  0.60335290  0.97864032  1  0.463761  0  0.042995  0.0925  0  3.925929  0
C  C103  1  0.88942142  0.88266713  0.25983771  1  0.454561  0  0.045492  0.085998  0  3.923661  0
C  C104  1  0.03275416  0.84221569  0.21521624  1  -0.005831  0  -0.070481  -0.136923  0  3.91312  0
C  C105  1  0.17509806  0.87594867  0.19398250  1  -0.040017  0  0.015099  0.052707  0  3.936845  0
C  C106  1  0.16710758  0.94896058  0.21831289  1  0.003204  0  -0.075597  -0.133494  0  3.939321  0
C  C107  1  0.01873030  0.98576650  0.26218343  1  0.450173  0  0.04127  0.092135  0  3.91961  0
C  C108  1  0.52912020  0.16151719  0.91163176  1  1.127681  0  0.260542  0.369923  0  4.022942  0
C  C109  1  0.27732044  0.25060760  0.93660093  1  1.083012  0  0.26298  0.377881  0  4.001906  0
C  C110  1  0.31352228  0.16142481  0.85524932  1  1.115046  0  0.263647  0.381405  0  3.990778  0
C  C111  1  0.93566139  0.13112186  0.98168992  1  0.464861  0  0.043305  0.08989  0  3.933295  0
C  C112  1  0.77345026  0.16485299  0.96857720  1  -0.002606  0  -0.069169  -0.130279  0  3.903236  0
C  C113  1  0.70454015  0.12799683  0.92429630  1  -0.039274  0  0.020428  0.06267  0  3.926842  0
C  C114  1  0.80381191  0.05919371  0.89335556  1  -0.012266  0  -0.067376  -0.134726  0  3.905267  0
C  C115  1  0.96483015  0.02919632  0.90942870  1  0.470049  0  0.046989  0.092047  0  3.919623  0
C  C116  1  0.12883329  0.41579126  0.05984693  1  0.419282  0  0.044674  0.091675  0  3.913755  0
C  C117  1  0.23843000  0.35693144  0.01919700  1  0.059317  0  -0.070825  -0.131185  0  3.915384  0
C  C118  1  0.16790313  0.31628463  0.97822272  1  0.02482  0  0.017536  0.05479  0  3.93762  0
C  C119  1  0.99087028  0.33826804  0.97828960  1  0.001104  0  -0.075652  -0.134111  0  3.922329  0
C  C120  1  0.88943604  0.39680824  0.02142990  1  0.42815  0  0.043669  0.094084  0  3.922791  0
C  C121  1  0.03165272  0.11726987  0.74020377  1  0.4362  0  0.045083  0.085003  0  3.923024  0
C  C122  1  0.08980157  0.15774588  0.78481919  1  -0.027712  0  -0.070168  -0.133471  0  3.90788  0
C  C123  1  0.24477212  0.12405586  0.80603064  1  0.026222  0  0.015536  0.04911  0  3.937245  0
C  C124  1  0.33421731  0.05102963  0.78171764  1  -0.041404  0  -0.076678  -0.130826  0  3.937178  0
C  C125  1  0.26655710  0.01417103  0.73788693  1  0.436267  0  0.041629  0.090661  0  3.917287  0
I  I126  1  0.72892627  0.01196634  0.64785363  1  -0.520172  0  -0.264313  -0.423926  0  1.301135  0
I  I127  1  0.26083280  0.85941214  0.62806665  1  -0.514685  0  -0.237438  -0.408381  0  1.392761  0
I  I128  1  0.12214505  0.58958152  0.41747105  1  -0.499816  0  -0.246288  -0.389232  0  1.297211  0
I  I129  1  0.38873565  0.98788611  0.35196470  1  -0.524719  0  -0.264123  -0.423507  0  1.301406  0
I  I130  1  0.74830160  0.14032496  0.37219236  1  -0.513685  0  -0.237719  -0.408531  0  1.392342  0
I  I131  1  0.12950394  0.41068595  0.58232433  1  -0.498527  0  -0.246145  -0.389425  0  1.298255  0
I  I132  1  0.12619787  0.51221516  0.85233857  1  -0.5244  0  -0.26399  -0.423669  0  1.300884  0
I  I133  1  0.63820902  0.35952944  0.87198955  1  -0.513095  0  -0.237712  -0.408393  0  1.390931  0
I  I134  1  0.28955971  0.08932709  0.08257202  1  -0.498913  0  -0.24614  -0.389226  0  1.29819  0
I  I135  1  0.49096635  0.48769670  0.14794743  1  -0.523719  0  -0.264213  -0.423927  0  1.301316  0
I  I136  1  0.86943296  0.64061486  0.12816063  1  -0.514459  0  -0.237654  -0.408414  0  1.391766  0
I  I137  1  0.46269020  0.91070400  0.91744585  1  -0.496837  0  -0.245793  -0.388709  0  1.298668  0
N  N138  1  0.40714791  0.27805559  0.44985460  1  -1.163417  0  -0.296303  -0.382328  0  3.278414  0
N  N139  1  0.18240644  0.27741216  0.38989297  1  -1.199998  0  -0.294678  -0.382057  0  3.194936  0
N  N140  1  0.35394372  0.37079029  0.36377797  1  -1.186985  0  -0.294494  -0.383285  0  3.21701  0
N  N141  1  0.84291477  0.43590763  0.45331350  1  -1.258648  0  -0.330961  -0.204989  0  3.572962  0
N  N142  1  0.14092614  0.06590379  0.56247833  1  -1.24862  0  -0.328041  -0.191939  0  3.572058  0
N  N143  1  0.91555699  0.45334429  0.21687924  1  -1.24358  0  -0.329226  -0.198199  0  3.56652  0
N  N144  1  0.13483772  0.72198664  0.55027882  1  -1.158852  0  -0.296032  -0.381044  0  3.277925  0
N  N145  1  0.84953201  0.72278700  0.61036168  1  -1.168005  0  -0.29427  -0.382784  0  3.194471  0
N  N146  1  0.08831371  0.62917888  0.63629746  1  -1.193789  0  -0.294236  -0.382294  0  3.218935  0
N  N147  1  0.73211259  0.56410933  0.54653282  1  -1.269201  0  -0.329926  -0.202256  0  3.571139  0
N  N148  1  0.76863129  0.93397222  0.43756028  1  -1.262547  0  -0.328902  -0.193833  0  3.57182  0
N  N149  1  0.58547151  0.54671101  0.78308121  1  -1.260813  0  -0.327714  -0.195915  0  3.565734  0
N  N150  1  0.60707963  0.77819981  0.05004722  1  -1.192237  0  -0.295285  -0.378175  0  3.275969  0
N  N151  1  0.32264398  0.77741109  0.11024028  1  -1.175153  0  -0.293526  -0.379796  0  3.194787  0
N  N152  1  0.46810546  0.87079812  0.13628661  1  -1.190702  0  -0.294027  -0.381028  0  3.21594  0
N  N153  1  0.04676483  0.93582704  0.04648919  1  -1.265014  0  -0.329585  -0.201596  0  3.569915  0
N  N154  1  0.45301533  0.56599396  0.93767959  1  -1.240752  0  -0.328239  -0.192452  0  3.573437  0
N  N155  1  0.88244122  0.95332730  0.28302799  1  -1.254676  0  -0.327622  -0.194611  0  3.566249  0
N  N156  1  0.43514573  0.22176234  0.94989641  1  -1.171194  0  -0.297221  -0.382967  0  3.279858  0
N  N157  1  0.21007302  0.22266473  0.88972486  1  -1.181411  0  -0.293219  -0.380626  0  3.19346  0
N  N158  1  0.47494689  0.12914435  0.86368904  1  -1.189444  0  -0.294785  -0.382533  0  3.219531  0
N  N159  1  0.02906880  0.06398888  0.95334294  1  -1.266428  0  -0.330099  -0.202447  0  3.569615  0
N  N160  1  0.95659096  0.43419891  0.06230747  1  -1.269863  0  -0.328776  -0.193879  0  3.572256  0
N  N161  1  0.11863237  0.04660930  0.71703415  1  -1.251746  0  -0.327553  -0.194523  0  3.563885  0
