# generated using pymatgen
data_TbH15C15NO8
_symmetry_space_group_name_H-M   'P 1'
_cell_length_a   8.33636263
_cell_length_b   10.29266477
_cell_length_c   11.08593258
_cell_angle_alpha   65.81967055
_cell_angle_beta   70.82618506
_cell_angle_gamma   79.60110497
_symmetry_Int_Tables_number   1
_chemical_formula_structural   TbH15C15NO8
_chemical_formula_sum   'Tb2 H30 C30 N2 O16'
_cell_volume   818.44763930
_cell_formula_units_Z   2
loop_
 _symmetry_equiv_pos_site_id
 _symmetry_equiv_pos_as_xyz
  1  'x, y, z'
loop_
 _atom_site_type_symbol
 _atom_site_label
 _atom_site_symmetry_multiplicity
 _atom_site_fract_x
 _atom_site_fract_y
 _atom_site_fract_z
 _atom_site_occupancy
 _atom_site_hle17_bader_spin_density
 _atom_site_hle17_ddec_charge
 _atom_site_hle17_ddec_spin_density
 _atom_site_hle17_ddec_sum_bond_order
 _atom_site_hle17_magmom
 _atom_site_hse06_10hf_bader_spin_density
 _atom_site_hse06_10hf_ddec_charge
 _atom_site_hse06_10hf_ddec_spin_density
 _atom_site_hse06_10hf_ddec_sum_bond_order
 _atom_site_hse06_10hf_magmom
 _atom_site_hse06_bader_spin_density
 _atom_site_hse06_ddec_charge
 _atom_site_hse06_ddec_spin_density
 _atom_site_hse06_ddec_sum_bond_order
 _atom_site_hse06_magmom
 _atom_site_pbe_bader_spin_density
 _atom_site_pbe_cm5_charge
 _atom_site_pbe_ddec_charge
 _atom_site_pbe_ddec_spin_density
 _atom_site_pbe_ddec_sum_bond_order
 _atom_site_pbe_magmom
Tb  Tb0  1  0.14646579  0.93950214  0.15055263  1  0  2.219595  0  1.628353  0  0  2.074663  0  2.096995  0  0  2.124836  0  2.053891  0  0  1.495138  2.036905  0  2.131491  0
Tb  Tb1  1  0.85353217  0.06049666  0.84944676  1  0  2.219586  0  1.628386  0  0  2.074676  0  2.096993  0  0  2.124853  0  2.053887  0  0  1.495116  2.036901  0  2.131514  0
H  H2  1  0.40213387  0.09457234  0.88101784  1  0  0.450543  0  0.833288  0  0  0.424966  0  0.88884  0  0  0.435369  0  0.873494  0  0  0.312944  0.417548  0  0.8998  0
H  H3  1  0.59786393  0.90542861  0.11898346  1  0  0.450546  0  0.83328  0  0  0.42494  0  0.888881  0  0  0.435344  0  0.873534  0  0  0.312918  0.417519  0  0.899845  0
H  H4  1  0.46187366  0.93677015  0.92084794  1  0  0.43398  0  0.861316  0  0  0.404568  0  0.926388  0  0  0.415267  0  0.910608  0  0  0.30818  0.396991  0  0.937557  0
H  H5  1  0.53812789  0.06323188  0.07915113  1  0  0.433962  0  0.861373  0  0  0.404558  0  0.926403  0  0  0.415257  0  0.910624  0  0  0.308181  0.396981  0  0.93757  0
H  H6  1  0.19914533  0.57803278  0.58431951  1  0  0.101272  0  0.960183  0  0  0.111118  0  1.020224  0  0  0.114737  0  1.017649  0  0  0.105672  0.108346  0  1.022462  0
H  H7  1  0.80085532  0.42196388  0.41567733  1  0  0.101261  0  0.960146  0  0  0.111111  0  1.020181  0  0  0.11473  0  1.017606  0  0  0.105661  0.108332  0  1.022428  0
H  H8  1  0.66030019  0.62378072  0.25408364  1  0  0.105934  0  0.939935  0  0  0.115286  0  1.000084  0  0  0.11892  0  0.997895  0  0  0.107777  0.112624  0  1.001851  0
H  H9  1  0.33970038  0.37621701  0.74591461  1  0  0.105947  0  0.939969  0  0  0.115297  0  1.000123  0  0  0.118931  0  0.997932  0  0  0.107794  0.112637  0  1.001891  0
H  H10  1  0.05529816  0.73548870  0.80474286  1  0  0.110177  0  0.985288  0  0  0.116531  0  1.052145  0  0  0.120434  0  1.049569  0  0  0.107325  0.113413  0  1.054566  0
H  H11  1  0.94470213  0.26451330  0.19525382  1  0  0.110216  0  0.985264  0  0  0.116572  0  1.052117  0  0  0.120475  0  1.049542  0  0  0.10734  0.113453  0  1.054534  0
H  H12  1  0.99547245  0.47716677  0.23276603  1  0  0.093903  0  0.96371  0  0  0.106125  0  1.023078  0  0  0.10901  0  1.02167  0  0  0.106973  0.104145  0  1.023995  0
H  H13  1  0.00453179  0.52283309  0.76722960  1  0  0.093815  0  0.963756  0  0  0.106066  0  1.023098  0  0  0.108952  0  1.021689  0  0  0.10697  0.104085  0  1.024018  0
H  H14  1  0.55815524  0.83512138  0.37664074  1  0  0.096824  0  0.983984  0  0  0.104375  0  1.051292  0  0  0.107109  0  1.050228  0  0  0.102842  0.102317  0  1.052326  0
H  H15  1  0.44184264  0.16487851  0.62336096  1  0  0.096832  0  0.983957  0  0  0.104368  0  1.051289  0  0  0.107101  0  1.050225  0  0  0.102834  0.102309  0  1.052322  0
H  H16  1  0.73923615  0.13026276  0.47853796  1  0  0.111817  0  0.950663  0  0  0.119738  0  1.014318  0  0  0.123402  0  1.012222  0  0  0.106991  0.117054  0  1.016163  0
H  H17  1  0.26076286  0.86973926  0.52146264  1  0  0.111822  0  0.950682  0  0  0.119746  0  1.014332  0  0  0.123411  0  1.012235  0  0  0.10698  0.117062  0  1.01618  0
H  H18  1  0.14492493  0.15496935  0.32194907  1  0  0.066845  0  0.929003  0  0  0.07608  0  0.995161  0  0  0.077982  0  0.990299  0  0  0.13839  0.074529  0  0.998616  0
H  H19  1  0.85507316  0.84502734  0.67805381  1  0  0.066786  0  0.92916  0  0  0.076084  0  0.995253  0  0  0.077946  0  0.990431  0  0  0.138396  0.074532  0  0.998704  0
H  H20  1  0.51260881  0.31745711  0.02565112  1  0  0.119349  0  0.926586  0  0  0.138368  0  0.988034  0  0  0.140005  0  0.98653  0  0  0.115536  0.137078  0  0.989249  0
H  H21  1  0.48738771  0.68254386  0.97435229  1  0  0.119362  0  0.926566  0  0  0.1384  0  0.988008  0  0  0.140037  0  0.986506  0  0  0.11555  0.137116  0  0.989216  0
H  H22  1  0.61682810  0.22407521  0.15671253  1  0  0.109901  0  0.933683  0  0  0.131459  0  0.993942  0  0  0.130694  0  0.995909  0  0  0.111997  0.131858  0  0.99268  0
H  H23  1  0.38317373  0.77592255  0.84328812  1  0  0.109917  0  0.933687  0  0  0.131515  0  0.993906  0  0  0.130753  0  0.995876  0  0  0.11202  0.131914  0  0.99265  0
H  H24  1  0.55845602  0.40939150  0.11639696  1  0  0.106409  0  0.929948  0  0  0.130815  0  0.986399  0  0  0.130974  0  0.987291  0  0  0.113147  0.130632  0  0.98577  0
H  H25  1  0.44154341  0.59060413  0.88360600  1  0  0.106392  0  0.929841  0  0  0.130821  0  0.986282  0  0  0.130981  0  0.987172  0  0  0.113143  0.130644  0  0.98565  0
H  H26  1  0.17526872  0.31194975  0.39766335  1  0  0.118521  0  0.923096  0  0  0.141082  0  0.979514  0  0  0.141969  0  0.979022  0  0  0.117494  0.140321  0  0.980006  0
H  H27  1  0.82472646  0.68805228  0.60233908  1  0  0.118534  0  0.923045  0  0  0.141092  0  0.979474  0  0  0.141979  0  0.978977  0  0  0.117494  0.140331  0  0.979963  0
H  H28  1  0.27313282  0.46793193  0.26018857  1  0  0.116664  0  0.93668  0  0  0.133368  0  1.002458  0  0  0.134776  0  1.001496  0  0  0.108096  0.132295  0  1.003331  0
H  H29  1  0.72686766  0.53206690  0.73981379  1  0  0.116637  0  0.936541  0  0  0.133334  0  1.002359  0  0  0.134741  0  1.001395  0  0  0.108064  0.132263  0  1.00323  0
H  H30  1  0.38873918  0.34286260  0.37453348  1  0  0.10331  0  0.955748  0  0  0.122095  0  1.021111  0  0  0.121493  0  1.024332  0  0  0.103045  0.122442  0  1.019032  0
H  H31  1  0.61125728  0.65713942  0.62546774  1  0  0.103292  0  0.95577  0  0  0.122064  0  1.02115  0  0  0.121461  0  1.02437  0  0  0.103047  0.122413  0  1.01907  0
C  C32  1  0.42095870  0.61167192  0.41112001  1  0  -0.056097  0  3.752806  0  0  -0.032605  0  3.981378  0  0  -0.038834  0  4.003285  0  0  -0.010767  -0.028689  0  3.967024  0
C  C33  1  0.57904432  0.38832691  0.58888083  1  0  -0.056184  0  3.752899  0  0  -0.032717  0  3.981505  0  0  -0.038944  0  4.003408  0  0  -0.010781  -0.028804  0  3.967154  0
C  C34  1  0.33095814  0.54231820  0.54947310  1  0  -0.064872  0  3.716952  0  0  -0.087135  0  3.963249  0  0  -0.088187  0  3.983224  0  0  -0.077598  -0.08645  0  3.950083  0
C  C35  1  0.66904094  0.45768274  0.45052519  1  0  -0.064814  0  3.717101  0  0  -0.087065  0  3.963384  0  0  -0.088116  0  3.983358  0  0  -0.077577  -0.086382  0  3.950225  0
C  C36  1  0.59092586  0.56878186  0.36161454  1  0  -0.067118  0  3.720059  0  0  -0.091734  0  3.973669  0  0  -0.091703  0  3.991927  0  0  -0.07871  -0.091483  0  3.961427  0
C  C37  1  0.40907483  0.43121378  0.63838991  1  0  -0.067061  0  3.719905  0  0  -0.091679  0  3.973542  0  0  -0.091647  0  3.9918  0  0  -0.078708  -0.091427  0  3.961303  0
C  C38  1  0.33451279  0.73265867  0.31908113  1  0  0.639209  0  3.933048  0  0  0.594001  0  4.223915  0  0  0.627593  0  4.216101  0  0  0.194991  0.570968  0  4.228865  0
C  C39  1  0.66548620  0.26734338  0.68092306  1  0  0.639303  0  3.932752  0  0  0.594105  0  4.223622  0  0  0.627695  0  4.215807  0  0  0.195034  0.571081  0  4.228563  0
C  C40  1  0.02582179  0.61796970  0.02170051  1  0  -0.050653  0  3.747201  0  0  -0.028139  0  3.976748  0  0  -0.033213  0  3.99678  0  0  -0.010043  -0.024538  0  3.962634  0
C  C41  1  0.97418372  0.38203018  0.97829571  1  0  -0.050604  0  3.74716  0  0  -0.028077  0  3.976743  0  0  -0.03315  0  3.996774  0  0  -0.010049  -0.024478  0  3.962626  0
C  C42  1  0.02950330  0.63228824  0.88962968  1  0  -0.090556  0  3.737704  0  0  -0.11294  0  3.98782  0  0  -0.114255  0  4.007525  0  0  -0.085324  -0.111849  0  3.974412  0
C  C43  1  0.97050342  0.36771269  0.11036313  1  0  -0.090589  0  3.737885  0  0  -0.112988  0  3.987998  0  0  -0.114302  0  4.007703  0  0  -0.085353  -0.111895  0  3.974584  0
C  C44  1  0.99710608  0.48556524  0.13123318  1  0  -0.077474  0  3.74729  0  0  -0.101062  0  3.996978  0  0  -0.102204  0  4.017453  0  0  -0.084286  -0.099968  0  3.982551  0
C  C45  1  0.00290064  0.51443569  0.86876053  1  0  -0.077378  0  3.747161  0  0  -0.101004  0  3.996876  0  0  -0.10215  0  4.017357  0  0  -0.084298  -0.099911  0  3.982452  0
C  C46  1  0.05560194  0.74240360  0.04639467  1  0  0.700227  0  3.880206  0  0  0.655111  0  4.167839  0  0  0.690455  0  4.155891  0  0  0.225408  0.631323  0  4.174745  0
C  C47  1  0.94439582  0.25759839  0.95360084  1  0  0.700249  0  3.880162  0  0  0.655089  0  4.16788  0  0  0.690431  0  4.155933  0  0  0.225438  0.63131  0  4.17477  0
C  C48  1  0.66321224  0.98062295  0.41943052  1  0  -0.051345  0  3.752567  0  0  -0.028063  0  3.981934  0  0  -0.034156  0  4.002932  0  0  -0.014714  -0.02404  0  3.967574  0
C  C49  1  0.33678798  0.01938012  0.58056577  1  0  -0.051393  0  3.752656  0  0  -0.028097  0  3.981987  0  0  -0.034188  0  4.002982  0  0  -0.014699  -0.024071  0  3.967628  0
C  C50  1  0.52951237  0.90687221  0.43150375  1  0  -0.069368  0  3.73008  0  0  -0.094011  0  3.982203  0  0  -0.093837  0  4.001612  0  0  -0.083314  -0.093999  0  3.969108  0
C  C51  1  0.47048666  0.09312979  0.56849234  1  0  -0.069353  0  3.730209  0  0  -0.093979  0  3.982306  0  0  -0.093806  0  4.001715  0  0  -0.083312  -0.093967  0  3.96921  0
C  C52  1  0.63361269  0.07448701  0.48798780  1  0  -0.082515  0  3.720267  0  0  -0.106149  0  3.972283  0  0  -0.107351  0  3.991855  0  0  -0.084973  -0.105358  0  3.959307  0
C  C53  1  0.36638624  0.92551607  0.51201150  1  0  -0.08249  0  3.720263  0  0  -0.106131  0  3.972278  0  0  -0.107331  0  3.991845  0  0  -0.084961  -0.105342  0  3.959305  0
C  C54  1  0.83671648  0.95846356  0.33267962  1  0  0.632809  0  3.934491  0  0  0.589253  0  4.223285  0  0  0.62362  0  4.21439  0  0  0.187673  0.566128  0  4.228235  0
C  C55  1  0.16328267  0.04153632  0.66731996  1  0  0.63276  0  3.934548  0  0  0.5892  0  4.223357  0  0  0.623565  0  4.214459  0  0  0.187636  0.566078  0  4.2283  0
C  C56  1  0.26616459  0.17503986  0.23993694  1  0  0.412993  0  3.779055  0  0  0.332928  0  4.075112  0  0  0.360598  0  4.07591  0  0  0.188368  0.314536  0  4.073535  0
C  C57  1  0.73383476  0.82495684  0.76006652  1  0  0.413061  0  3.779218  0  0  0.33293  0  4.075275  0  0  0.360632  0  4.076084  0  0  0.188365  0.314549  0  4.073687  0
C  C58  1  0.52041803  0.30861020  0.12563671  1  0  -0.169844  0  3.61857  0  0  -0.271239  0  3.862431  0  0  -0.267068  0  3.872334  0  0  -0.129315  -0.273792  0  3.855571  0
C  C59  1  0.47958230  0.69139077  0.87436487  1  0  -0.169882  0  3.618499  0  0  -0.271361  0  3.862371  0  0  -0.267195  0  3.872279  0  0  -0.129327  -0.273919  0  3.855513  0
C  C60  1  0.29461820  0.35432305  0.32058369  1  0  -0.186804  0  3.642296  0  0  -0.290426  0  3.892993  0  0  -0.287868  0  3.905058  0  0  -0.13014  -0.291839  0  3.884788  0
C  C61  1  0.70537826  0.64567898  0.67941842  1  0  -0.186764  0  3.642181  0  0  -0.290379  0  3.892904  0  0  -0.287821  0  3.904975  0  0  -0.130108  -0.291789  0  3.884696  0
N  N62  1  0.35590960  0.27525905  0.22942826  1  0  -0.078335  0  3.499431  0  0  0.028275  0  3.731672  0  0  0.007715  0  3.758276  0  0  -0.271297  0.042091  0  3.71316  0
N  N63  1  0.64408834  0.72473978  0.77057472  1  0  -0.07829  0  3.499456  0  0  0.028341  0  3.73171  0  0  0.007783  0  3.758301  0  0  -0.2713  0.042152  0  3.7132  0
O  O64  1  0.41497801  0.79685935  0.19186903  1  0  -0.720415  0  2.008108  0  0  -0.665728  0  2.244191  0  0  -0.690193  0  2.233522  0  0  -0.367825  -0.648344  0  2.251621  0
O  O65  1  0.58502076  0.20314591  0.80813489  1  0  -0.720423  0  2.00799  0  0  -0.66574  0  2.244054  0  0  -0.690216  0  2.233408  0  0  -0.367842  -0.648373  0  2.251514  0
O  O66  1  0.18131574  0.77138235  0.36817323  1  0  -0.679977  0  1.959789  0  0  -0.634541  0  2.192128  0  0  -0.658866  0  2.183954  0  0  -0.378892  -0.61721  0  2.197354  0
O  O67  1  0.81868473  0.22861651  0.63183184  1  0  -0.680048  0  1.959631  0  0  -0.634612  0  2.191958  0  0  -0.658935  0  2.183785  0  0  -0.37892  -0.61728  0  2.197181  0
O  O68  1  0.14482901  0.72041339  0.12722864  1  0  -0.690487  0  1.97935  0  0  -0.642007  0  2.218124  0  0  -0.66704  0  2.209678  0  0  -0.380287  -0.624983  0  2.223376  0
O  O69  1  0.85516880  0.27958756  0.87277176  1  0  -0.690523  0  1.979405  0  0  -0.642037  0  2.218215  0  0  -0.66707  0  2.20978  0  0  -0.380312  -0.625014  0  2.223466  0
O  O70  1  0.99309265  0.86619146  0.98634089  1  0  -0.784927  0  2.081513  0  0  -0.729264  0  2.340418  0  0  -0.755557  0  2.33013  0  0  -0.399515  -0.710598  0  2.346996  0
O  O71  1  0.00690770  0.13380948  0.01365708  1  0  -0.78496  0  2.081505  0  0  -0.729263  0  2.340411  0  0  -0.755562  0  2.330134  0  0  -0.399519  -0.710601  0  2.346978  0
O  O72  1  0.95596328  0.03487839  0.31260519  1  0  -0.714027  0  2.023536  0  0  -0.664812  0  2.265297  0  0  -0.690331  0  2.255919  0  0  -0.391798  -0.646715  0  2.271119  0
O  O73  1  0.04403721  0.96512042  0.68739448  1  0  -0.714009  0  2.023545  0  0  -0.664798  0  2.265293  0  0  -0.690326  0  2.255942  0  0  -0.391778  -0.646702  0  2.271113  0
O  O74  1  0.86425127  0.86629097  0.27778249  1  0  -0.669828  0  1.963784  0  0  -0.625263  0  2.197311  0  0  -0.649123  0  2.189727  0  0  -0.382277  -0.608529  0  2.201911  0
O  O75  1  0.13575042  0.13370893  0.72221827  1  0  -0.669772  0  1.963788  0  0  -0.625207  0  2.197306  0  0  -0.649064  0  2.189724  0  0  -0.382244  -0.608469  0  2.201902  0
O  O76  1  0.31275718  0.10528079  0.16162804  1  0  -0.645452  0  2.106593  0  0  -0.586027  0  2.368454  0  0  -0.610089  0  2.360835  0  0  -0.355574  -0.56886  0  2.37306  0
O  O77  1  0.68723964  0.89471590  0.83837515  1  0  -0.645494  0  2.106634  0  0  -0.586062  0  2.368523  0  0  -0.61012  0  2.360884  0  0  -0.355572  -0.568896  0  2.373132  0
O  O78  1  0.35686823  0.99834510  0.93244951  1  0  -0.900226  0  1.86867  0  0  -0.8591  0  2.067252  0  0  -0.877115  0  2.036149  0  0  -0.641338  -0.846337  0  2.089249  0
O  O79  1  0.64313093  0.00165477  0.06754917  1  0  -0.900212  0  1.868751  0  0  -0.859071  0  2.06734  0  0  -0.877087  0  2.036236  0  0  -0.64132  -0.846306  0  2.089338  0
