# generated using pymatgen
data_CdH11C11NO5
_symmetry_space_group_name_H-M   'P 1'
_cell_length_a   7.44090841
_cell_length_b   9.78201543
_cell_length_c   9.92504132
_cell_angle_alpha   118.29966939
_cell_angle_beta   102.92451605
_cell_angle_gamma   91.47373595
_symmetry_Int_Tables_number   1
_chemical_formula_structural   CdH11C11NO5
_chemical_formula_sum   'Cd2 H22 C22 N2 O10'
_cell_volume   612.60708388
_cell_formula_units_Z   2
loop_
 _symmetry_equiv_pos_site_id
 _symmetry_equiv_pos_as_xyz
  1  'x, y, z'
loop_
 _atom_site_type_symbol
 _atom_site_label
 _atom_site_symmetry_multiplicity
 _atom_site_fract_x
 _atom_site_fract_y
 _atom_site_fract_z
 _atom_site_occupancy
 _atom_site_hle17_bader_spin_density
 _atom_site_hle17_ddec_charge
 _atom_site_hle17_ddec_spin_density
 _atom_site_hle17_ddec_sum_bond_order
 _atom_site_hle17_magmom
 _atom_site_hse06_10hf_bader_spin_density
 _atom_site_hse06_10hf_ddec_charge
 _atom_site_hse06_10hf_ddec_spin_density
 _atom_site_hse06_10hf_ddec_sum_bond_order
 _atom_site_hse06_10hf_magmom
 _atom_site_hse06_bader_spin_density
 _atom_site_hse06_ddec_charge
 _atom_site_hse06_ddec_spin_density
 _atom_site_hse06_ddec_sum_bond_order
 _atom_site_hse06_magmom
 _atom_site_pbe_bader_spin_density
 _atom_site_pbe_cm5_charge
 _atom_site_pbe_ddec_charge
 _atom_site_pbe_ddec_spin_density
 _atom_site_pbe_ddec_sum_bond_order
 _atom_site_pbe_magmom
Cd  Cd0  1  0.73612490  0.97283367  0.48136097  1  0  1.238792  0  1.582806  0  0  1.068163  0  2.016846  0  0  1.130203  0  1.957836  0  0  0.781089  1.02502  0  2.05605  0
Cd  Cd1  1  0.26387623  0.02716686  0.51863896  1  0  1.238778  0  1.582791  0  0  1.068147  0  2.016827  0  0  1.130185  0  1.957818  0  0  0.781072  1.025002  0  2.056035  0
H  H2  1  0.43705044  0.18514097  0.89561498  1  0  0.102553  0  0.972781  0  0  0.109152  0  1.039922  0  0  0.11226  0  1.038492  0  0  0.102009  0.106655  0  1.041436  0
H  H3  1  0.56294771  0.81485838  0.10438291  1  0  0.102571  0  0.972732  0  0  0.109159  0  1.039893  0  0  0.112267  0  1.038461  0  0  0.101997  0.106662  0  1.041409  0
H  H4  1  0.31671400  0.21346843  0.12298686  1  0  0.097554  0  0.951332  0  0  0.108726  0  1.010327  0  0  0.112008  0  1.008908  0  0  0.105318  0.106296  0  1.011479  0
H  H5  1  0.68328532  0.78652975  0.87701067  1  0  0.097546  0  0.951307  0  0  0.108722  0  1.010301  0  0  0.112005  0  1.008881  0  0  0.105316  0.106293  0  1.011453  0
H  H6  1  0.76407152  0.28661723  0.76796241  1  0  0.114056  0  0.972795  0  0  0.122309  0  1.03527  0  0  0.126043  0  1.032602  0  0  0.104022  0.119373  0  1.037759  0
H  H7  1  0.23592846  0.71338447  0.23204091  1  0  0.114098  0  0.972801  0  0  0.122328  0  1.035306  0  0  0.126063  0  1.032635  0  0  0.10403  0.119392  0  1.037796  0
H  H8  1  0.33841511  0.49357576  0.02026016  1  0  0.100944  0  0.945275  0  0  0.111095  0  1.006314  0  0  0.11466  0  1.003709  0  0  0.105291  0.108284  0  1.008544  0
H  H9  1  0.66158464  0.50642477  0.97974157  1  0  0.100922  0  0.945277  0  0  0.111068  0  1.006325  0  0  0.114633  0  1.003721  0  0  0.105287  0.108257  0  1.008556  0
H  H10  1  0.93913870  0.14022142  0.32973535  1  0  0.059093  0  0.955891  0  0  0.066462  0  1.027492  0  0  0.06848  0  1.0226  0  0  0.123161  0.064896  0  1.031048  0
H  H11  1  0.06086337  0.85977677  0.67026163  1  0  0.059049  0  0.955988  0  0  0.066466  0  1.02753  0  0  0.068484  0  1.022638  0  0  0.123184  0.064898  0  1.03109  0
H  H12  1  0.61360196  0.41083692  0.45400100  1  0  0.115738  0  0.942422  0  0  0.135726  0  1.001946  0  0  0.137298  0  1.000981  0  0  0.111625  0.134454  0  1.00287  0
H  H13  1  0.38639875  0.58916126  0.54599676  1  0  0.115731  0  0.942423  0  0  0.135718  0  1.001942  0  0  0.137291  0  1.000977  0  0  0.111617  0.134444  0  1.00287  0
H  H14  1  0.60437438  0.44450098  0.28982601  1  0  0.104259  0  0.929173  0  0  0.126358  0  0.989584  0  0  0.126633  0  0.989631  0  0  0.106547  0.126047  0  0.989657  0
H  H15  1  0.39562537  0.55549955  0.71017370  1  0  0.104272  0  0.929168  0  0  0.126368  0  0.989574  0  0  0.126644  0  0.98962  0  0  0.106552  0.126059  0  0.989646  0
H  H16  1  0.77168555  0.56486183  0.47352722  1  0  0.107977  0  0.943553  0  0  0.12785  0  1.008988  0  0  0.128096  0  1.009454  0  0  0.104968  0.127639  0  1.008643  0
H  H17  1  0.22831558  0.43513870  0.52647372  1  0  0.107967  0  0.943579  0  0  0.127816  0  1.009028  0  0  0.128058  0  1.009493  0  0  0.104966  0.127607  0  1.008681  0
H  H18  1  0.02898558  0.25754828  0.21867272  1  0  0.114055  0  0.954297  0  0  0.131965  0  1.019773  0  0  0.133675  0  1.018091  0  0  0.108935  0.130568  0  1.02108  0
H  H19  1  0.97101395  0.74245107  0.78132540  1  0  0.114032  0  0.954349  0  0  0.131946  0  1.019825  0  0  0.133656  0  1.018143  0  0  0.108918  0.130551  0  1.02113  0
H  H20  1  0.01095072  0.46157815  0.29615602  1  0  0.101182  0  0.94309  0  0  0.120155  0  1.006383  0  0  0.12026  0  1.007949  0  0  0.101924  0.119665  0  1.005977  0
H  H21  1  0.98905041  0.53842238  0.70384392  1  0  0.101185  0  0.943101  0  0  0.12016  0  1.006387  0  0  0.120266  0  1.007952  0  0  0.101932  0.119671  0  1.005981  0
H  H22  1  0.83712238  0.31911703  0.12601049  1  0  0.096854  0  0.956697  0  0  0.115238  0  1.02204  0  0  0.11451  0  1.025009  0  0  0.098633  0.115437  0  1.020448  0
H  H23  1  0.16287715  0.68088232  0.87398662  1  0  0.096866  0  0.956716  0  0  0.115265  0  1.022037  0  0  0.114536  0  1.02501  0  0  0.098656  0.115464  0  1.020448  0
C  C24  1  0.63312356  0.96290023  0.73283846  1  0  0.652101  0  3.895239  0  0  0.599698  0  4.187353  0  0  0.635097  0  4.180496  0  0  0.202975  0.575892  0  4.190939  0
C  C25  1  0.36687874  0.03709913  0.26716213  1  0  0.652105  0  3.895339  0  0  0.599715  0  4.187427  0  0  0.635115  0  4.180569  0  0  0.202968  0.575909  0  4.191015  0
C  C26  1  0.56709759  0.98389100  0.87247882  1  0  -0.053652  0  3.741298  0  0  -0.029419  0  3.970622  0  0  -0.036043  0  3.992888  0  0  -0.014369  -0.025231  0  3.955862  0
C  C27  1  0.43290015  0.01610600  0.12751991  1  0  -0.053703  0  3.741401  0  0  -0.029458  0  3.970704  0  0  -0.036086  0  3.992976  0  0  -0.014375  -0.025272  0  3.955948  0
C  C28  1  0.46395273  0.10460053  0.94221380  1  0  -0.078896  0  3.720256  0  0  -0.101531  0  3.971878  0  0  -0.102745  0  3.992506  0  0  -0.086005  -0.100739  0  3.958546  0
C  C29  1  0.53604522  0.89539764  0.05778451  1  0  -0.078907  0  3.72024  0  0  -0.101541  0  3.97187  0  0  -0.102754  0  3.992497  0  0  -0.086009  -0.10075  0  3.958541  0
C  C30  1  0.39672519  0.12003564  0.06807918  1  0  -0.067379  0  3.726391  0  0  -0.089891  0  3.973123  0  0  -0.090675  0  3.993392  0  0  -0.081113  -0.089207  0  3.959556  0
C  C31  1  0.60327256  0.87996136  0.93191956  1  0  -0.067403  0  3.726347  0  0  -0.089912  0  3.973077  0  0  -0.090698  0  3.993345  0  0  -0.081124  -0.089228  0  3.959512  0
C  C32  1  0.12242304  0.24721320  0.75217207  1  0  0.643761  0  3.911416  0  0  0.591676  0  4.204098  0  0  0.62711  0  4.1977  0  0  0.200311  0.568548  0  4.206549  0
C  C33  1  0.87757712  0.75278968  0.24782881  1  0  0.643764  0  3.911287  0  0  0.591675  0  4.203979  0  0  0.62711  0  4.19758  0  0  0.200312  0.568547  0  4.20643  0
C  C34  1  0.05808722  0.37554839  0.88085023  1  0  -0.050549  0  3.754124  0  0  -0.026691  0  3.984926  0  0  -0.033111  0  4.006664  0  0  -0.012903  -0.022848  0  3.970456  0
C  C35  1  0.94191295  0.62445449  0.11915065  1  0  -0.05064  0  3.754213  0  0  -0.026773  0  3.985018  0  0  -0.0332  0  4.006767  0  0  -0.01292  -0.02293  0  3.970549  0
C  C36  1  0.86728551  0.37965025  0.86944040  1  0  -0.069523  0  3.711009  0  0  -0.093505  0  3.958347  0  0  -0.093641  0  3.976784  0  0  -0.08284  -0.093585  0  3.946628  0
C  C37  1  0.13271369  0.62035497  0.13056243  1  0  -0.069466  0  3.711105  0  0  -0.093438  0  3.958448  0  0  -0.093572  0  3.97689  0  0  -0.08279  -0.093519  0  3.94673  0
C  C38  1  0.19015522  0.49648252  0.01208957  1  0  -0.081622  0  3.734597  0  0  -0.102822  0  3.981878  0  0  -0.103575  0  4.001235  0  0  -0.08311  -0.101887  0  3.968907  0
C  C39  1  0.80984336  0.50351918  0.98791049  1  0  -0.081515  0  3.734494  0  0  -0.102717  0  3.981773  0  0  -0.103469  0  4.001132  0  0  -0.083068  -0.101781  0  3.968801  0
C  C40  1  0.84029895  0.21927947  0.37974722  1  0  0.378884  0  3.802242  0  0  0.303015  0  4.091319  0  0  0.33118  0  4.09337  0  0  0.168483  0.283847  0  4.089316  0
C  C41  1  0.15970155  0.78071754  0.62025096  1  0  0.378916  0  3.802376  0  0  0.303021  0  4.09144  0  0  0.331187  0  4.093489  0  0  0.168469  0.283853  0  4.089434  0
C  C42  1  0.69617919  0.44500682  0.39338043  1  0  -0.173014  0  3.631153  0  0  -0.275129  0  3.87724  0  0  -0.270959  0  3.886497  0  0  -0.134328  -0.277823  0  3.870957  0
C  C43  1  0.30382193  0.55499372  0.60661951  1  0  -0.173019  0  3.631181  0  0  -0.275106  0  3.87729  0  0  -0.270929  0  3.886541  0  0  -0.134329  -0.277802  0  3.871009  0
C  C44  1  0.93167594  0.34311998  0.23949859  1  0  -0.182666  0  3.655168  0  0  -0.283456  0  3.903263  0  0  -0.280867  0  3.915482  0  0  -0.135102  -0.284893  0  3.895467  0
C  C45  1  0.06832359  0.65687937  0.76049952  1  0  -0.182633  0  3.655233  0  0  -0.283438  0  3.903326  0  0  -0.280849  0  3.915544  0  0  -0.135094  -0.284875  0  3.895528  0
N  N46  1  0.82536582  0.33326145  0.34193731  1  0  -0.080391  0  3.508522  0  0  0.023911  0  3.743544  0  0  0.003846  0  3.769457  0  0  -0.279638  0.037747  0  3.725325  0
N  N47  1  0.17463510  0.66673791  0.65806204  1  0  -0.080407  0  3.508545  0  0  0.023877  0  3.743592  0  0  0.003811  0  3.769506  0  0  -0.279665  0.037713  0  3.72537  0
O  O48  1  0.73818649  0.86374062  0.67750295  1  0  -0.613734  0  1.927871  0  0  -0.563322  0  2.16073  0  0  -0.588633  0  2.150388  0  0  -0.311916  -0.545264  0  2.167004  0
O  O49  1  0.26181740  0.13625992  0.32249947  1  0  -0.613726  0  1.927904  0  0  -0.563311  0  2.160739  0  0  -0.588621  0  2.150391  0  0  -0.311903  -0.545253  0  2.167015  0
O  O50  1  0.57832364  0.05277326  0.67291825  1  0  -0.703368  0  2.08876  0  0  -0.618848  0  2.34629  0  0  -0.653808  0  2.334664  0  0  -0.338288  -0.594624  0  2.353593  0
O  O51  1  0.42167886  0.94722728  0.32708192  1  0  -0.703352  0  2.088776  0  0  -0.618854  0  2.346318  0  0  -0.653813  0  2.334689  0  0  -0.338281  -0.594629  0  2.353622  0
O  O52  1  0.03020360  0.10765969  0.67479313  1  0  -0.694483  0  2.073045  0  0  -0.620998  0  2.332088  0  0  -0.65454  0  2.321716  0  0  -0.334189  -0.599018  0  2.337633  0
O  O53  1  0.96979699  0.89234554  0.32520992  1  0  -0.694514  0  2.07297  0  0  -0.621007  0  2.33199  0  0  -0.65455  0  2.321617  0  0  -0.33419  -0.599027  0  2.337535  0
O  O54  1  0.27209233  0.27919487  0.72369180  1  0  -0.619922  0  1.939696  0  0  -0.55905  0  2.176594  0  0  -0.58761  0  2.166189  0  0  -0.316079  -0.537961  0  2.182188  0
O  O55  1  0.72790741  0.72080566  0.27630690  1  0  -0.619892  0  1.939681  0  0  -0.559024  0  2.176591  0  0  -0.587586  0  2.166186  0  0  -0.316071  -0.537935  0  2.182179  0
O  O56  1  0.75043026  0.20166933  0.46551008  1  0  -0.55861  0  2.095381  0  0  -0.496852  0  2.355685  0  0  -0.525166  0  2.3495  0  0  -0.315437  -0.477304  0  2.359961  0
O  O57  1  0.24957045  0.79832885  0.53448868  1  0  -0.558619  0  2.095422  0  0  -0.496858  0  2.355727  0  0  -0.525172  0  2.349541  0  0  -0.315432  -0.477309  0  2.36  0
