# generated using pymatgen
data_Tb2Cu3H42C42(NO6)6
_symmetry_space_group_name_H-M   'P 1'
_cell_length_a   7.37697918
_cell_length_b   13.26423320
_cell_length_c   15.07009098
_cell_angle_alpha   73.62251358
_cell_angle_beta   76.34171846
_cell_angle_gamma   81.03399566
_symmetry_Int_Tables_number   1
_chemical_formula_structural   Tb2Cu3H42C42(NO6)6
_chemical_formula_sum   'Tb2 Cu3 H42 C42 N6 O36'
_cell_volume   1368.45092654
_cell_formula_units_Z   1
loop_
 _symmetry_equiv_pos_site_id
 _symmetry_equiv_pos_as_xyz
  1  'x, y, z'
loop_
 _atom_site_type_symbol
 _atom_site_label
 _atom_site_symmetry_multiplicity
 _atom_site_fract_x
 _atom_site_fract_y
 _atom_site_fract_z
 _atom_site_occupancy
 _atom_site_pbe_bader_charge
 _atom_site_pbe_bader_spin_density
 _atom_site_pbe_cm5_charge
 _atom_site_pbe_ddec_charge
 _atom_site_pbe_ddec_spin_density
 _atom_site_pbe_ddec_sum_bond_order
 _atom_site_pbe_magmom
Tb  Tb0  1  0.46794133  0.05103053  0.19056580  1  2.201255  9.6e-05  1.47058  2.122995  8.7e-05  2.061374  0.0
Tb  Tb1  1  0.53205936  0.94896810  0.80943574  1  2.201261  9.6e-05  1.470574  2.122964  8.7e-05  2.061369  0.0
Cu  Cu2  1  0.44366578  0.60970443  0.15609543  1  1.043942  0.560928  0.747646  0.740492  0.741915  2.321647  0.56
Cu  Cu3  1  0.55633853  0.39029735  0.84390356  1  1.044141  0.560943  0.747635  0.740502  0.741932  2.321584  0.56
Cu  Cu4  1  0.50000104  0.49999932  0.50000135  1  1.062973  -0.568743  0.763275  0.758426  -0.776313  2.316708  -0.567
H  H5  1  0.95440964  0.60903460  0.44198610  1  0.163486  0.001781  0.115292  0.142296  0.001113  1.013663  0.001
H  H6  1  0.04559466  0.39096715  0.55801025  1  0.163415  0.001782  0.115282  0.142265  0.001113  1.013573  0.001
H  H7  1  0.79095757  0.78918041  0.37930866  1  0.140058  5.4e-05  0.126007  0.131847  2.6e-05  0.957725  0.0
H  H8  1  0.20904952  0.21082139  0.62069066  1  0.140101  5.3e-05  0.126029  0.131861  2.5e-05  0.957746  0.0
H  H9  1  0.21854740  0.82412711  0.12650818  1  0.148093  0.002427  0.125506  0.097593  0.001164  1.043953  0.002
H  H10  1  0.78146373  0.17587551  0.87349179  1  0.148156  0.002427  0.125399  0.097488  0.001164  1.043899  0.002
H  H11  1  0.19528303  0.41522262  0.15888529  1  0.16635  0.00122  0.120688  0.14032  0.000634  0.984804  0.001
H  H12  1  0.80471848  0.58477916  0.84111402  1  0.166329  0.00122  0.120701  0.140331  0.000634  0.98479  0.001
H  H13  1  0.02964142  0.59432637  0.10789101  1  0.162511  -5.7e-05  0.115799  0.120383  -5.8e-05  1.025182  0.0
H  H14  1  0.97035899  0.40567383  0.89210950  1  0.162515  -5.7e-05  0.115778  0.120322  -5.8e-05  1.025268  0.0
H  H15  1  0.30994386  0.60048019  0.82044273  1  0.149589  0.001918  0.127402  0.107129  0.00091  0.997321  0.002
H  H16  1  0.69006058  0.39952081  0.17955711  1  0.149598  0.001919  0.127417  0.10716  0.00091  0.997305  0.002
H  H17  1  0.45288399  0.72955617  0.38600871  1  0.151485  -0.002161  0.130665  0.116713  -0.001072  0.982796  -0.002
H  H18  1  0.54711516  0.27044326  0.61399414  1  0.151404  -0.002162  0.130655  0.116726  -0.001072  0.982732  -0.002
H  H19  1  0.97940499  0.85980800  0.56203943  1  0.166544  8e-06  0.121104  0.1302  1.4e-05  0.998502  0.0
H  H20  1  0.02058762  0.14018901  0.43796281  1  0.166456  8e-06  0.121111  0.130254  1.4e-05  0.998424  0.0
H  H21  1  0.98935089  0.68490691  0.68615194  1  0.125012  -0.001536  0.116098  0.127981  -0.000861  0.994392  -0.001
H  H22  1  0.01064186  0.31508929  0.31384916  1  0.125069  -0.001536  0.116135  0.128042  -0.000861  0.994366  -0.001
H  H23  1  0.75892959  0.64315065  0.20770411  1  0.639995  -2.1e-05  0.284246  0.373892  -0.000201  0.973036  0.0
H  H24  1  0.24106985  0.35684716  0.79229646  1  0.640025  -2.1e-05  0.284259  0.373938  -0.000201  0.972974  0.0
H  H25  1  0.78547776  0.71191809  0.10187300  1  0.635689  -4.2e-05  0.288184  0.37645  1.4e-05  0.965339  0.0
H  H26  1  0.21452557  0.28808134  0.89812803  1  0.635686  -4.2e-05  0.288172  0.376452  1.4e-05  0.965339  0.0
H  H27  1  0.83832818  0.06204958  0.07066837  1  0.670284  1.8e-05  0.298305  0.404178  1.7e-05  0.932244  0.0
H  H28  1  0.16167054  0.93795220  0.92933259  1  0.670266  1.8e-05  0.298293  0.404167  1.7e-05  0.932259  0.0
H  H29  1  0.70392837  0.16499367  0.01722864  1  0.649712  0.000282  0.302121  0.400975  0.000405  0.931112  0.0
H  H30  1  0.29606953  0.83500492  0.98277124  1  0.649677  0.000283  0.3021  0.400959  0.000405  0.931141  0.0
H  H31  1  0.20657932  0.02224172  0.08208100  1  0.652937  -1e-06  0.304414  0.399427  4e-06  0.935568  0.0
H  H32  1  0.79341537  0.97775925  0.91792064  1  0.652937  -1e-06  0.304402  0.399427  4e-06  0.935579  0.0
H  H33  1  0.21205551  0.14475858  0.05146890  1  0.650212  2.5e-05  0.294466  0.382584  2.2e-05  0.964561  0.0
H  H34  1  0.78794894  0.85524241  0.94853028  1  0.650207  2.5e-05  0.294481  0.382599  2.2e-05  0.964548  0.0
H  H35  1  0.57393388  0.91456797  0.05729447  1  0.658248  -2e-06  0.305729  0.409049  -4e-06  0.911381  0.0
H  H36  1  0.42606527  0.08543143  0.94270639  1  0.658231  -2e-06  0.305727  0.40901  -4e-06  0.911436  0.0
H  H37  1  0.57823244  0.83070798  0.15503649  1  0.661822  -5e-06  0.304796  0.417877  1.2e-05  0.89942  0.0
H  H38  1  0.42177243  0.16929066  0.84496457  1  0.661553  -5e-06  0.304817  0.417911  1.2e-05  0.899369  0.0
H  H39  1  0.49356976  0.21757458  0.27609751  1  0.616897  -5e-06  0.333091  0.422962  3e-06  0.858889  0.0
H  H40  1  0.50642507  0.78242558  0.72390233  1  0.616917  -5e-06  0.33308  0.42293  3e-06  0.858909  0.0
H  H41  1  0.70317049  0.18393714  0.23641813  1  0.652543  1e-06  0.304748  0.405801  1e-06  0.920418  0.0
H  H42  1  0.29682838  0.81606385  0.76358302  1  0.652552  1e-06  0.304747  0.405795  1e-06  0.92042  0.0
H  H43  1  0.08170559  0.16516043  0.21923593  1  0.651055  1e-06  0.293591  0.400211  8e-06  0.934101  0.0
H  H44  1  0.91829260  0.83483657  0.78076367  1  0.650908  1e-06  0.293586  0.400187  8e-06  0.934139  0.0
H  H45  1  0.10729362  0.06697644  0.31114128  1  0.649202  -2e-05  0.288716  0.383161  -3.2e-05  0.968211  0.0
H  H46  1  0.89270443  0.93302138  0.68886012  1  0.649216  -2e-05  0.288749  0.383187  -3.2e-05  0.968178  0.0
C  C47  1  0.26929394  0.51321780  0.33789206  1  1.600944  -0.001506  0.199608  0.528751  0.000513  4.246854  -0.002
C  C48  1  0.73070786  0.48678237  0.66210630  1  1.600942  -0.001507  0.199673  0.528837  0.000511  4.246797  -0.002
C  C49  1  0.16433471  0.62132798  0.31385875  1  0.415849  -0.000863  0.109351  0.097262  -0.000449  3.956731  -0.001
C  C50  1  0.83567085  0.37867457  0.68613790  1  0.415928  -0.000863  0.1094  0.097294  -0.000449  3.956759  -0.001
C  C51  1  0.00753518  0.65857156  0.37205053  1  0.052223  0.003753  -0.067926  -0.11786  0.002752  3.893736  0.003
C  C52  1  0.99246802  0.34142861  0.62794701  1  0.051811  0.003752  -0.067977  -0.1179  0.002752  3.893612  0.003
C  C53  1  0.91787718  0.75816589  0.33762639  1  -0.013963  -0.00367  -0.040871  -0.009286  -0.002579  3.847691  -0.002
C  C54  1  0.08212366  0.24183188  0.66237005  1  -0.01374  -0.003671  -0.040861  -0.009231  -0.00258  3.847593  -0.002
C  C55  1  0.99162675  0.81925234  0.24777758  1  0.03062  0.007106  -2e-05  -0.067168  0.005044  3.920652  0.006
C  C56  1  0.00836990  0.18074543  0.75222068  1  0.03057  0.007105  -2.8e-05  -0.067273  0.005044  3.920823  0.006
C  C57  1  0.15377005  0.77813390  0.19535370  1  0.453679  -0.000228  0.063119  0.093846  0.000837  3.895053  0.0
C  C58  1  0.84623440  0.22186705  0.80464217  1  0.453635  -0.000228  0.063249  0.093947  0.000837  3.895189  0.0
C  C59  1  0.89936494  0.92433588  0.20184021  1  1.614585  0.000901  0.231788  0.613793  0.00062  4.18557  0.001
C  C60  1  0.10063547  0.07566432  0.79816030  1  1.614726  0.000901  0.231883  0.613986  0.00062  4.185709  0.001
C  C61  1  0.44391145  0.30757500  0.03870177  1  1.624021  -0.0005  0.217464  0.555487  0.000697  4.20065  0.0
C  C62  1  0.55608728  0.69242674  0.96129655  1  1.62403  -0.000499  0.217469  0.555537  0.000698  4.200751  0.0
C  C63  1  0.33852428  0.41507087  0.01685114  1  0.434632  -0.000927  0.109127  0.094776  -0.000182  3.960023  -0.001
C  C64  1  0.66147334  0.58492930  0.98314837  1  0.434427  -0.000927  0.109091  0.094669  -0.000182  3.960017  -0.001
C  C65  1  0.21707877  0.45883268  0.08491631  1  -0.009292  0.002628  -0.069377  -0.127286  0.001744  3.940027  0.002
C  C66  1  0.78292149  0.54116829  0.91508269  1  -0.009112  0.002628  -0.069361  -0.127221  0.001744  3.939856  0.002
C  C67  1  0.12561863  0.55887998  0.05584057  1  -0.126945  -0.003445  -0.058953  -0.051008  -0.002513  3.931454  -0.002
C  C68  1  0.87438024  0.44112098  0.94415859  1  -0.126983  -0.003445  -0.058952  -0.050986  -0.002513  3.931463  -0.002
C  C69  1  0.15510327  0.61166181  0.95997332  1  0.068672  0.004715  -0.007495  -0.073665  0.003356  3.935678  0.004
C  C70  1  0.84489685  0.38833995  0.04002550  1  0.068718  0.004715  -0.007481  -0.073613  0.003356  3.935641  0.004
C  C71  1  0.28138673  0.56307696  0.89584935  1  0.509593  -0.001712  0.065046  0.10214  -0.000573  3.866654  -0.001
C  C72  1  0.71861353  0.43692401  0.10414965  1  0.509596  -0.001712  0.065022  0.102065  -0.000573  3.866744  -0.001
C  C73  1  0.04876839  0.71636188  0.92442690  1  1.60933  0.000627  0.220527  0.583292  0.000456  4.207547  0.0
C  C74  1  0.95123340  0.28363832  0.07557279  1  1.609329  0.000627  0.220537  0.583358  0.000456  4.207562  0.0
C  C75  1  0.34719195  0.72298663  0.45099971  1  0.49053  0.000993  0.066406  0.092811  -0.000291  3.880297  0.001
C  C76  1  0.65280456  0.27701199  0.54900298  1  0.490439  0.000992  0.066484  0.092902  -0.000291  3.880262  0.001
C  C77  1  0.21392672  0.80703851  0.46548580  1  -0.005706  -0.006095  0.002321  -0.058933  -0.004373  3.921101  -0.005
C  C78  1  0.78606854  0.19295929  0.53451593  1  -0.005701  -0.006095  0.002291  -0.059043  -0.004373  3.921031  -0.005
C  C79  1  0.08287529  0.79413044  0.55067440  1  -0.018137  0.003235  -0.042313  -0.015037  0.002182  3.850668  0.002
C  C80  1  0.91711886  0.20586578  0.44932720  1  -0.018031  0.003235  -0.042333  -0.015045  0.002182  3.85053  0.002
C  C81  1  0.08765481  0.69783351  0.61857382  1  0.016185  -0.002847  -0.062879  -0.100385  -0.002181  3.897949  -0.002
C  C82  1  0.91233795  0.30216269  0.38142728  1  0.015938  -0.002847  -0.062906  -0.100463  -0.002181  3.89784  -0.002
C  C83  1  0.21943072  0.61630119  0.59776145  1  0.424193  7.8e-05  0.114011  0.09898  -0.000308  3.952743  0.0
C  C84  1  0.78056482  0.38369504  0.40224064  1  0.424611  7.8e-05  0.114047  0.099129  -0.000308  3.952495  0.0
C  C85  1  0.23423014  0.50646868  0.66113631  1  1.614513  0.001185  0.211639  0.539001  -0.000667  4.211274  0.001
C  C86  1  0.76576665  0.49352837  0.33886676  1  1.614295  0.001186  0.21155  0.538776  -0.000667  4.211409  0.001
C  C87  1  0.20640150  0.90704305  0.38799850  1  1.611204  -0.00077  0.223231  0.600088  -0.000551  4.217371  -0.001
C  C88  1  0.79359612  0.09295715  0.61200300  1  1.611221  -0.00077  0.223292  0.600209  -0.000551  4.217216  -0.001
N  N89  1  0.34587499  0.62991873  0.51519639  1  -1.2046  -0.081643  -0.352521  -0.246618  -0.057347  3.664977  -0.07
N  N90  1  0.65412152  0.37007988  0.48480564  1  -1.204535  -0.081645  -0.352574  -0.246749  -0.057348  3.665052  -0.07
N  N91  1  0.23454350  0.68140662  0.22736845  1  -1.234059  0.090771  -0.359902  -0.246472  0.061809  3.667513  0.078
N  N92  1  0.76546234  0.31859438  0.77263122  1  -1.23389  0.090771  -0.359909  -0.246432  0.061809  3.667516  0.078
N  N93  1  0.37122153  0.46776728  0.92445166  1  -1.239558  0.071885  -0.353846  -0.252391  0.049397  3.650668  0.062
N  N94  1  0.62877608  0.53223289  0.07554785  1  -1.239443  0.071884  -0.353839  -0.252341  0.049396  3.650683  0.062
O  O95  1  0.09072724  0.76228243  0.83725421  1  -1.194235  0.000104  -0.299082  -0.554026  5.8e-05  2.210448  0.0
O  O96  1  0.90927052  0.23771694  0.16274549  1  -1.194221  0.000104  -0.299091  -0.554051  5.8e-05  2.210456  0.0
O  O97  1  0.91883340  0.74980886  0.98471999  1  -1.189782  0.000966  -0.301739  -0.5389  0.000616  2.231611  0.001
O  O98  1  0.08117076  0.25019373  0.01528014  1  -1.189804  0.000966  -0.301735  -0.538947  0.000616  2.231667  0.001
O  O99  1  0.56424208  0.28344897  0.96864472  1  -1.133646  0.077804  -0.309051  -0.529525  0.051695  2.382878  0.071
O  O100  1  0.43575804  0.71655280  0.03135475  1  -1.133588  0.077799  -0.309005  -0.52949  0.051691  2.382974  0.071
O  O101  1  0.41161734  0.24858117  0.12055390  1  -1.177847  0.01329  -0.333226  -0.584019  0.008706  2.297315  0.011
O  O102  1  0.58838195  0.75141744  0.87944648  1  -1.177901  0.013287  -0.333247  -0.584055  0.008704  2.297461  0.011
O  O103  1  0.98918787  0.97579898  0.12296950  1  -1.186201  0.000279  -0.301858  -0.556367  0.000141  2.21821  0.0
O  O104  1  0.01081643  0.02420285  0.87703346  1  -1.186192  0.000279  -0.301894  -0.55644  0.000141  2.218194  0.0
O  O105  1  0.73579618  0.95208914  0.24225656  1  -1.183249  0.001927  -0.386838  -0.637934  0.001244  2.271486  0.002
O  O106  1  0.26420115  0.04791266  0.75774589  1  -1.183383  0.001926  -0.386877  -0.637987  0.001244  2.271658  0.002
O  O107  1  0.39755885  0.49003300  0.26861966  1  -1.092604  0.130414  -0.335951  -0.53841  0.085244  2.294611  0.118
O  O108  1  0.60244435  0.50996718  0.73137854  1  -1.09255  0.130399  -0.336012  -0.53845  0.085235  2.294575  0.118
O  O109  1  0.23357383  0.45327273  0.41844286  1  -1.155082  0.0365  -0.302687  -0.518601  0.023731  2.160433  0.03
O  O110  1  0.76642336  0.54672976  0.58155278  1  -1.155159  0.036495  -0.30271  -0.518645  0.023728  2.160345  0.03
O  O111  1  0.34962283  0.91940905  0.31975050  1  -1.20154  -0.000135  -0.417869  -0.685402  -7.6e-05  2.267277  0.0
O  O112  1  0.65037911  0.08059041  0.68025334  1  -1.201602  -0.000136  -0.417903  -0.685477  -7.6e-05  2.26735  0.0
O  O113  1  0.05930186  0.96941212  0.39491839  1  -1.153936  -0.001753  -0.295989  -0.515239  -0.00115  2.152548  -0.001
O  O114  1  0.94069840  0.03058889  0.60508391  1  -1.15383  -0.001753  -0.296047  -0.515305  -0.00115  2.152425  -0.001
O  O115  1  0.35498618  0.43903577  0.62616970  1  -1.107048  -0.106911  -0.321124  -0.523747  -0.07254  2.347315  -0.097
O  O116  1  0.64501604  0.56096209  0.37383320  1  -1.10705  -0.106911  -0.321075  -0.523652  -0.072539  2.347372  -0.097
O  O117  1  0.13272194  0.48384914  0.74209115  1  -1.172071  -0.018883  -0.298555  -0.515548  -0.012639  2.182041  -0.016
O  O118  1  0.86727639  0.51614708  0.25790930  1  -1.171984  -0.018885  -0.298521  -0.51544  -0.01264  2.181971  -0.016
O  O119  1  0.69654401  0.70140453  0.16363955  1  -1.272117  0.001154  -0.582181  -0.779565  0.000914  2.109585  0.002
O  O120  1  0.30345933  0.29859489  0.83636149  1  -1.272122  0.001153  -0.582183  -0.779616  0.000914  2.109538  0.002
O  O121  1  0.70992886  0.09306008  0.05856642  1  -1.315726  0.000972  -0.669149  -0.892005  0.000647  2.145955  0.001
O  O122  1  0.29007015  0.90694012  0.94143492  1  -1.315696  0.000973  -0.66912  -0.891991  0.000648  2.145939  0.001
O  O123  1  0.29719941  0.07669798  0.06465572  1  -1.287543  9.6e-05  -0.626053  -0.838592  5.4e-05  2.123047  0.0
O  O124  1  0.70280114  0.92330142  0.93534431  1  -1.287549  9.6e-05  -0.626053  -0.838594  5.4e-05  2.123035  0.0
O  O125  1  0.51825826  0.90061321  0.12588953  1  -1.298406  3.2e-05  -0.644456  -0.838447  2.6e-05  2.068137  0.0
O  O126  1  0.48174243  0.09938540  0.87411136  1  -1.298129  3.2e-05  -0.644487  -0.838445  2.5e-05  2.068156  0.0
O  O127  1  0.58216236  0.15553112  0.27194402  1  -1.228609  -5.3e-05  -0.618872  -0.821289  -3.9e-05  1.979624  0.0
O  O128  1  0.41783651  0.84446984  0.72805448  1  -1.228637  -5.2e-05  -0.61886  -0.821246  -3.9e-05  1.979581  0.0
O  O129  1  0.17409692  0.12370032  0.25762191  1  -1.307447  -2e-06  -0.67368  -0.900247  1.5e-05  2.093974  0.0
O  O130  1  0.82589944  0.87629906  0.74237862  1  -1.30732  -1e-06  -0.67372  -0.90025  1.5e-05  2.094013  0.0
