# generated using pymatgen
data_InH9(C7O3)2
_symmetry_space_group_name_H-M   'P 1'
_cell_length_a   13.96864678
_cell_length_b   13.96867155
_cell_length_c   25.04114272
_cell_angle_alpha   105.03503920
_cell_angle_beta   105.03493798
_cell_angle_gamma   94.02160338
_symmetry_Int_Tables_number   1
_chemical_formula_structural   InH9(C7O3)2
_chemical_formula_sum   'In8 H72 C112 O48'
_cell_volume   4507.57352848
_cell_formula_units_Z   8
loop_
 _symmetry_equiv_pos_site_id
 _symmetry_equiv_pos_as_xyz
  1  'x, y, z'
loop_
 _atom_site_type_symbol
 _atom_site_label
 _atom_site_symmetry_multiplicity
 _atom_site_fract_x
 _atom_site_fract_y
 _atom_site_fract_z
 _atom_site_occupancy
 _atom_site_pbe_bader_charge
 _atom_site_pbe_bader_spin_density
 _atom_site_pbe_cm5_charge
 _atom_site_pbe_ddec_charge
 _atom_site_pbe_ddec_spin_density
 _atom_site_pbe_ddec_sum_bond_order
 _atom_site_pbe_magmom
In  In0  1  0.62500151  0.37500163  0.25000126  1  1.951211  0  0.762558  1.52335  0  2.807913  0
In  In1  1  0.62500064  0.87500054  0.24999926  1  1.948368  0  0.761992  1.522301  0  2.811297  0
In  In2  1  0.62500100  0.37499822  0.75000039  1  1.951078  0  0.762561  1.523341  0  2.807967  0
In  In3  1  0.12499773  0.37499781  0.75000021  1  1.948315  0  0.762012  1.522333  0  2.811238  0
In  In4  1  0.63820665  0.13819776  0.27632484  1  1.946941  0  0.764501  1.523435  0  2.80861  0
In  In5  1  0.86180123  0.36178446  0.72367199  1  1.946935  0  0.764468  1.523417  0  2.808637  0
In  In6  1  0.61178498  0.61180092  0.22367083  1  1.946919  0  0.764468  1.523424  0  2.808624  0
In  In7  1  0.38820287  0.38821527  0.77632711  1  1.946928  0  0.764458  1.523411  0  2.808648  0
H  H8  1  0.63515071  0.25528370  0.06673914  1  0.092637  0  0.107813  0.110231  0  0.992558  0
H  H9  1  0.71099430  0.00591869  0.13171010  1  0.119704  0  0.111996  0.117724  0  0.993536  0
H  H10  1  0.64558024  0.15798863  0.96893835  1  0.071401  0  0.10905  0.123766  0  0.988087  0
H  H11  1  0.71907748  0.90790155  0.03456662  1  0.063911  0  0.107406  0.121578  0  1.003524  0
H  H12  1  0.52711442  0.87549296  0.95085830  1  0.085101  0  0.103518  0.116671  0  1.018672  0
H  H13  1  0.78195458  0.86184236  0.88370897  1  0.108695  0  0.113346  0.129263  0  0.978735  0
H  H14  1  0.46985551  0.69307325  0.90067778  1  0.088135  0  0.105723  0.107017  0  0.995946  0
H  H15  1  0.72300477  0.67821096  0.83303989  1  0.120219  0  0.112364  0.119007  0  0.990998  0
H  H16  1  0.47911329  0.72684955  0.19034801  1  0.610275  0  0.322858  0.402279  0  0.892919  0
H  H17  1  0.43149547  0.81146003  0.06673600  1  0.087574  0  0.107672  0.110358  0  0.991669  0
H  H18  1  0.42048117  0.12574921  0.13176712  1  0.134816  0  0.112991  0.119221  0  0.994099  0
H  H19  1  0.32324763  0.81095091  0.96895629  1  0.095547  0  0.10939  0.124451  0  0.986725  0
H  H20  1  0.31541904  0.12665788  0.03460843  1  0.065516  0  0.107056  0.120709  0  1.004161  0
H  H21  1  0.42370462  0.07553128  0.95082372  1  0.095831  0  0.103992  0.117726  0  1.016545  0
H  H22  1  0.10170274  0.02196495  0.88372046  1  0.126877  0  0.113143  0.128863  0  0.979713  0
H  H23  1  0.43070371  0.20786929  0.90069007  1  0.095205  0  0.10592  0.107427  0  0.994638  0
H  H24  1  0.10987614  0.15481472  0.83298828  1  0.118167  0  0.11296  0.119709  0  0.989706  0
H  H25  1  0.71125597  0.46344072  0.19038367  1  0.594455  0  0.321712  0.399741  0  0.89614  0
H  H26  1  0.74471819  0.36485243  0.93326026  1  0.092731  0  0.107817  0.110274  0  0.992514  0
H  H27  1  0.99408356  0.28900602  0.86829091  1  0.119757  0  0.111984  0.11767  0  0.993582  0
H  H28  1  0.84201060  0.35442431  0.03106186  1  0.071393  0  0.109031  0.123716  0  0.988106  0
H  H29  1  0.09209739  0.28092365  0.96543441  1  0.063917  0  0.107405  0.121544  0  1.003608  0
H  H30  1  0.12450650  0.47288723  0.04914365  1  0.085131  0  0.103544  0.116727  0  1.018655  0
H  H31  1  0.13815669  0.21804336  0.11628987  1  0.108704  0  0.113319  0.129224  0  0.978729  0
H  H32  1  0.30692660  0.53014484  0.09932153  1  0.087732  0  0.105723  0.107007  0  0.995941  0
H  H33  1  0.32178888  0.27699512  0.16695837  1  0.120248  0  0.112367  0.118982  0  0.991041  0
H  H34  1  0.27315185  0.52088663  0.80965277  1  0.610274  0  0.322845  0.402256  0  0.892945  0
H  H35  1  0.18853906  0.56850272  0.93326336  1  0.087587  0  0.107697  0.1104  0  0.991622  0
H  H36  1  0.87424897  0.57952025  0.86823171  1  0.134623  0  0.112993  0.119191  0  0.994098  0
H  H37  1  0.18904613  0.67675135  0.03104277  1  0.09566  0  0.109387  0.12445  0  0.98681  0
H  H38  1  0.87334082  0.68458311  0.96539015  1  0.065492  0  0.107071  0.120729  0  1.00409  0
H  H39  1  0.92446600  0.57629565  0.04917497  1  0.095828  0  0.103967  0.117694  0  1.016662  0
H  H40  1  0.97803483  0.89829590  0.11627919  1  0.126901  0  0.113146  0.128877  0  0.979703  0
H  H41  1  0.79212931  0.56929657  0.09930948  1  0.095209  0  0.10593  0.107429  0  0.994725  0
H  H42  1  0.84518590  0.89012386  0.16701206  1  0.118184  0  0.112964  0.119719  0  0.989705  0
H  H43  1  0.53655976  0.28874468  0.80961711  1  0.594446  0  0.321737  0.39984  0  0.896023  0
H  H44  1  0.61485063  0.49471649  0.43326099  1  0.092648  0  0.107823  0.110279  0  0.992493  0
H  H45  1  0.53900526  0.74408093  0.36829051  1  0.119726  0  0.11199  0.117742  0  0.993531  0
H  H46  1  0.60442237  0.59201071  0.53106226  1  0.071378  0  0.109038  0.12376  0  0.988095  0
H  H47  1  0.53092530  0.84209800  0.46543417  1  0.063928  0  0.10741  0.121586  0  1.003561  0
H  H48  1  0.72288494  0.87450693  0.54914426  1  0.085413  0  0.103517  0.116667  0  1.018689  0
H  H49  1  0.46804279  0.88815636  0.61629086  1  0.108808  0  0.113324  0.129242  0  0.978714  0
H  H50  1  0.78014412  0.05692725  0.59932208  1  0.088095  0  0.105703  0.107018  0  0.995881  0
H  H51  1  0.52699341  0.07178791  0.66696004  1  0.120202  0  0.112391  0.119052  0  0.990957  0
H  H52  1  0.77088607  0.02315512  0.30965160  1  0.610315  0  0.32282  0.402152  0  0.893084  0
H  H53  1  0.81850274  0.93854177  0.43326470  1  0.087542  0  0.107678  0.110368  0  0.991623  0
H  H54  1  0.82951735  0.62425296  0.36823317  1  0.13481  0  0.112987  0.119225  0  0.994134  0
H  H55  1  0.92675367  0.93904852  0.53104371  1  0.095612  0  0.109374  0.124438  0  0.986735  0
H  H56  1  0.93458305  0.62334335  0.46539019  1  0.065533  0  0.107034  0.120735  0  1.004152  0
H  H57  1  0.82629603  0.67446960  0.54917641  1  0.095838  0  0.103979  0.117693  0  1.016554  0
H  H58  1  0.14829729  0.72803597  0.61627848  1  0.126848  0  0.113128  0.128865  0  0.97975  0
H  H59  1  0.81929857  0.54213404  0.59931091  1  0.095263  0  0.105935  0.107437  0  0.994744  0
H  H60  1  0.14012554  0.59518656  0.66701081  1  0.118215  0  0.112953  0.119723  0  0.989752  0
H  H61  1  0.53874521  0.28656135  0.30961779  1  0.594408  0  0.321728  0.39984  0  0.896018  0
H  H62  1  0.50528619  0.38514749  0.56673987  1  0.092643  0  0.107804  0.11024  0  0.992462  0
H  H63  1  0.25591765  0.46099045  0.63170833  1  0.119805  0  0.112003  0.117698  0  0.993627  0
H  H64  1  0.40799259  0.39557498  0.46893863  1  0.071366  0  0.109025  0.123729  0  0.988043  0
H  H65  1  0.15790349  0.46907305  0.53456466  1  0.06398  0  0.10741  0.121566  0  1.003533  0
H  H66  1  0.12549345  0.27711197  0.45085678  1  0.085207  0  0.10353  0.116716  0  1.018708  0
H  H67  1  0.11184523  0.53195430  0.38371104  1  0.108368  0  0.113348  0.129234  0  0.978802  0
H  H68  1  0.94307320  0.21985520  0.40067781  1  0.08784  0  0.105707  0.106993  0  0.995931  0
H  H69  1  0.92821345  0.47300754  0.33304273  1  0.120265  0  0.112386  0.119036  0  0.990976  0
H  H70  1  0.97684819  0.22911134  0.69034753  1  0.610261  0  0.32285  0.402257  0  0.892956  0
H  H71  1  0.06145666  0.18149417  0.56673504  1  0.087708  0  0.107666  0.110327  0  0.991659  0
H  H72  1  0.37574948  0.17048552  0.63176844  1  0.134315  0  0.11298  0.119224  0  0.99408  0
H  H73  1  0.06095078  0.07324461  0.46895613  1  0.095611  0  0.109383  0.124446  0  0.986705  0
H  H74  1  0.37665816  0.06542034  0.53460980  1  0.065525  0  0.107056  0.120709  0  1.004151  0
H  H75  1  0.32552946  0.17370245  0.45082455  1  0.0958  0  0.103987  0.117692  0  1.016663  0
H  H76  1  0.27196549  0.85170248  0.38372064  1  0.126865  0  0.113157  0.128873  0  0.979736  0
H  H77  1  0.45786623  0.18070298  0.40069085  1  0.095229  0  0.105931  0.107401  0  0.994778  0
H  H78  1  0.40481490  0.85987638  0.33298899  1  0.118148  0  0.112965  0.11971  0  0.989704  0
H  H79  1  0.71343925  0.46125584  0.69038288  1  0.594445  0  0.321738  0.399859  0  0.895998  0
C  C80  1  0.66638455  0.19220866  0.16295519  1  1.558595  0  0.236819  0.61408  0  4.175296  0
C  C81  1  0.67296840  0.13650570  0.10502619  1  0.013408  0  -0.026845  -0.06946  0  3.996353  0
C  C82  1  0.65424658  0.17955609  0.05926098  1  -0.025327  0  -0.080396  -0.067518  0  3.995068  0
C  C83  1  0.69642219  0.03852568  0.09578252  1  -0.006815  0  -0.07348  -0.052897  0  3.960808  0
C  C84  1  0.65898969  0.12590310  0.00505565  1  -0.070738  0  -0.101045  -0.204359  0  4.002719  0
C  C85  1  0.70074823  0.98392297  0.04176093  1  -0.015383  0  -0.101449  -0.211639  0  3.999731  0
C  C86  1  0.68174346  0.02813698  0.99656649  1  0.426705  0  0.090687  0.269472  0  4.045653  0
C  C87  1  0.65787799  0.87802911  0.91968017  1  0.388532  0  0.08871  0.266986  0  4.04849  0
C  C88  1  0.57016677  0.83190504  0.92533049  1  -0.053739  0  -0.103581  -0.214337  0  4.007773  0
C  C89  1  0.71399116  0.82359670  0.88705193  1  0.021098  0  -0.097435  -0.200039  0  3.994888  0
C  C90  1  0.53850714  0.73026412  0.89744061  1  -0.004145  0  -0.078896  -0.059287  0  3.980963  0
C  C91  1  0.68130228  0.72222759  0.85924201  1  -0.097577  0  -0.076501  -0.062217  0  3.973205  0
C  C92  1  0.59325346  0.67460375  0.86397156  1  0.015955  0  -0.025943  -0.062913  0  3.980166  0
C  C93  1  0.55816900  0.56676785  0.83180804  1  1.548785  0  0.236525  0.613049  0  4.172713  0
C  C94  1  0.49654802  0.97077913  0.16298753  1  1.537093  0  0.234613  0.608213  0  4.179021  0
C  C95  1  0.43196116  0.96851639  0.10506266  1  -0.005967  0  -0.026556  -0.068014  0  3.994325  0
C  C96  1  0.40491482  0.87971691  0.05927574  1  -0.033936  0  -0.080014  -0.066869  0  3.992567  0
C  C97  1  0.39919348  0.05723011  0.09584094  1  -0.081133  0  -0.07431  -0.055163  0  3.962153  0
C  C98  1  0.34593101  0.87916645  0.00507147  1  -0.024565  0  -0.101748  -0.206045  0  4.001461  0
C  C99  1  0.34090967  0.05781065  0.04179475  1  0.051853  0  -0.101508  -0.211042  0  4.002792  0
C  C100  1  0.31473324  0.96847484  0.99656585  1  0.396283  0  0.09107  0.270631  0  4.048162  0
C  C101  1  0.26175636  0.04179705  0.91967299  1  0.440808  0  0.090495  0.270809  0  4.045686  0
C  C102  1  0.35510776  0.09357053  0.92529270  1  -0.073341  0  -0.104788  -0.217211  0  4.003655  0
C  C103  1  0.17298319  0.06360151  0.88706527  1  -0.059658  0  -0.099016  -0.202689  0  3.997919  0
C  C104  1  0.35884449  0.16734796  0.89742962  1  0.00114  0  -0.07827  -0.057068  0  3.980336  0
C  C105  1  0.17781626  0.13710415  0.85922020  1  -0.04274  0  -0.075743  -0.059684  0  3.974153  0
C  C106  1  0.27058683  0.18949015  0.86395980  1  -0.034478  0  -0.026291  -0.066711  0  3.98755  0
C  C107  1  0.27353183  0.26512905  0.83178028  1  1.56028  0  0.236836  0.61474  0  4.173777  0
C  C108  1  0.80779481  0.33361696  0.83704477  1  1.558493  0  0.236816  0.614033  0  4.175103  0
C  C109  1  0.86349747  0.32703595  0.89497493  1  0.013504  0  -0.026796  -0.069474  0  3.99645  0
C  C110  1  0.82044554  0.34575806  0.94073815  1  -0.025531  0  -0.080374  -0.067527  0  3.995081  0
C  C111  1  0.96147601  0.30358066  0.90421752  1  -0.006877  0  -0.073522  -0.052847  0  3.960763  0
C  C112  1  0.87409864  0.34101429  0.99494529  1  -0.070631  0  -0.101034  -0.204267  0  4.00258  0
C  C113  1  0.01607921  0.29925356  0.95824042  1  -0.015388  0  -0.101395  -0.211532  0  3.999703  0
C  C114  1  0.97186311  0.31825854  0.00343349  1  0.426685  0  0.090621  0.269351  0  4.045616  0
C  C115  1  0.12197011  0.34212360  0.08032070  1  0.388624  0  0.088743  0.267076  0  4.048374  0
C  C116  1  0.16809440  0.42983587  0.07467069  1  -0.05381  0  -0.103586  -0.214359  0  4.007677  0
C  C117  1  0.17640399  0.28601056  0.11294748  1  0.021064  0  -0.097505  -0.200176  0  3.995051  0
C  C118  1  0.26973533  0.46149296  0.10255939  1  -0.003734  0  -0.07889  -0.059322  0  3.980959  0
C  C119  1  0.27777276  0.31869800  0.14075776  1  -0.097632  0  -0.076472  -0.062106  0  3.973177  0
C  C120  1  0.32539588  0.40674555  0.13602806  1  0.015952  0  -0.025933  -0.06286  0  3.980144  0
C  C121  1  0.43323144  0.44182934  0.16819009  1  1.548699  0  0.236484  0.612965  0  4.172724  0
C  C122  1  0.02921884  0.50345017  0.83701093  1  1.537013  0  0.234658  0.608279  0  4.179058  0
C  C123  1  0.03148311  0.56803786  0.89493645  1  -0.005886  0  -0.026578  -0.068127  0  3.994314  0
C  C124  1  0.12028038  0.59508365  0.94072338  1  -0.034004  0  -0.080047  -0.066923  0  3.992652  0
C  C125  1  0.94276824  0.60080928  0.90415871  1  -0.080985  0  -0.074284  -0.055063  0  3.96203  0
C  C126  1  0.12083400  0.65406760  0.99492753  1  -0.024609  0  -0.10175  -0.206032  0  4.001469  0
C  C127  1  0.94218907  0.65909145  0.95820383  1  0.051958  0  -0.10154  -0.211086  0  4.002854  0
C  C128  1  0.03152308  0.68526633  0.00343179  1  0.396174  0  0.091151  0.270776  0  4.047946  0
C  C129  1  0.95820201  0.73824116  0.08032534  1  0.440668  0  0.090511  0.270844  0  4.045614  0
C  C130  1  0.90642823  0.64489173  0.07470641  1  -0.073598  0  -0.104782  -0.217196  0  4.003801  0
C  C131  1  0.93639617  0.82701694  0.11293451  1  -0.059637  0  -0.099043  -0.202742  0  3.997928  0
C  C132  1  0.83265043  0.64115566  0.10256888  1  0.001093  0  -0.078277  -0.057096  0  3.980444  0
C  C133  1  0.86289550  0.82218259  0.14077888  1  -0.042813  0  -0.075702  -0.059648  0  3.974213  0
C  C134  1  0.81050943  0.72941194  0.13603987  1  -0.03438  0  -0.026314  -0.066686  0  3.987499  0
C  C135  1  0.73487080  0.72646837  0.16821961  1  1.560159  0  0.23687  0.614774  0  4.173744  0
C  C136  1  0.58361573  0.55779324  0.33704536  1  1.558476  0  0.236882  0.614216  0  4.175116  0
C  C137  1  0.57703334  0.61349489  0.39497433  1  0.013401  0  -0.026874  -0.069536  0  3.996411  0
C  C138  1  0.59575475  0.57044410  0.44073914  1  -0.025348  0  -0.08044  -0.067584  0  3.995008  0
C  C139  1  0.55357830  0.71147495  0.40421825  1  -0.006798  0  -0.073449  -0.052901  0  3.960726  0
C  C140  1  0.59101113  0.62409649  0.49494471  1  -0.070728  0  -0.101009  -0.204327  0  4.002651  0
C  C141  1  0.54925338  0.76607807  0.45824091  1  -0.015371  0  -0.101415  -0.211571  0  3.999679  0
C  C142  1  0.56825718  0.72186306  0.50343438  1  0.426696  0  0.090637  0.269413  0  4.045586  0
C  C143  1  0.59212263  0.87197158  0.58032139  1  0.388369  0  0.088662  0.266911  0  4.048411  0
C  C144  1  0.67983480  0.91809458  0.57467054  1  -0.054135  0  -0.103532  -0.214202  0  4.007742  0
C  C145  1  0.53600980  0.92640293  0.61294923  1  0.021205  0  -0.097449  -0.200064  0  3.994963  0
C  C146  1  0.71149103  0.01973391  0.60256006  1  -0.004009  0  -0.078894  -0.059348  0  3.981115  0
C  C147  1  0.56869601  0.02777066  0.64075803  1  -0.097613  0  -0.076484  -0.062171  0  3.97313  0
C  C148  1  0.65674447  0.07539763  0.63602960  1  0.015961  0  -0.025933  -0.06296  0  3.980423  0
C  C149  1  0.69182857  0.18323189  0.66819128  1  1.548713  0  0.236457  0.612898  0  4.173027  0
C  C150  1  0.75344931  0.77921956  0.33701230  1  1.537022  0  0.234652  0.608276  0  4.178886  0
C  C151  1  0.81803841  0.78148473  0.39493789  1  -0.005893  0  -0.026552  -0.067993  0  3.994296  0
C  C152  1  0.84508314  0.87028261  0.44072322  1  -0.034017  0  -0.079993  -0.066859  0  3.992511  0
C  C153  1  0.85080620  0.69276972  0.40415904  1  -0.081151  0  -0.074326  -0.055152  0  3.962301  0
C  C154  1  0.90406918  0.87083465  0.49492896  1  -0.024597  0  -0.101758  -0.206062  0  4.001347  0
C  C155  1  0.90909180  0.69219060  0.45820400  1  0.051855  0  -0.101497  -0.211149  0  4.002971  0
C  C156  1  0.93526881  0.78152562  0.50343265  1  0.396305  0  0.091139  0.27074  0  4.048063  0
C  C157  1  0.98824135  0.70820375  0.58032495  1  0.440794  0  0.090514  0.270849  0  4.045746  0
C  C158  1  0.89489456  0.65643156  0.57470684  1  -0.07348  0  -0.104789  -0.217206  0  4.003792  0
C  C159  1  0.07701880  0.68639787  0.61293414  1  -0.059649  0  -0.099012  -0.20268  0  3.99791  0
C  C160  1  0.89115730  0.58265352  0.60257016  1  0.00088  0  -0.078299  -0.057076  0  3.980463  0
C  C161  1  0.07218542  0.61289713  0.64077888  1  -0.042866  0  -0.075713  -0.059723  0  3.974227  0
C  C162  1  0.97941396  0.56051179  0.63603896  1  -0.034029  0  -0.026309  -0.066701  0  3.987472  0
C  C163  1  0.97646986  0.48487306  0.66821939  1  1.559847  0  0.236863  0.614676  0  4.173771  0
C  C164  1  0.44220605  0.41638265  0.66295558  1  1.55861  0  0.236826  0.614071  0  4.175113  0
C  C165  1  0.38650554  0.42296379  0.60502608  1  0.013249  0  -0.026825  -0.069525  0  3.996429  0
C  C166  1  0.42955719  0.40424150  0.55926183  1  -0.025408  0  -0.080365  -0.067454  0  3.994871  0
C  C167  1  0.28852500  0.44641708  0.59578150  1  -0.006769  0  -0.073537  -0.052923  0  3.960911  0
C  C168  1  0.37590390  0.40898360  0.50505451  1  -0.070599  0  -0.101111  -0.204412  0  4.002516  0
C  C169  1  0.23392292  0.45074311  0.54175840  1  -0.015447  0  -0.101422  -0.211574  0  3.999582  0
C  C170  1  0.27814025  0.43173678  0.49656496  1  0.426608  0  0.090777  0.269566  0  4.045612  0
C  C171  1  0.12802892  0.40787458  0.41967956  1  0.388604  0  0.08873  0.26704  0  4.048301  0
C  C172  1  0.08190554  0.32016248  0.42533047  1  -0.053955  0  -0.10354  -0.214297  0  4.007786  0
C  C173  1  0.07359894  0.46399042  0.38705366  1  0.021351  0  -0.097513  -0.200162  0  3.995183  0
C  C174  1  0.98026571  0.28850620  0.39744044  1  -0.003803  0  -0.078935  -0.059361  0  3.981167  0
C  C175  1  0.97223110  0.43130481  0.35924412  1  -0.097584  0  -0.076439  -0.062059  0  3.973126  0
C  C176  1  0.92460358  0.34325470  0.36397244  1  0.015961  0  -0.025931  -0.062945  0  3.980201  0
C  C177  1  0.81676744  0.30816969  0.33180908  1  1.548785  0  0.236459  0.612924  0  4.17297  0
C  C178  1  0.22077881  0.24655104  0.66298787  1  1.537045  0  0.234531  0.607949  0  4.179189  0
C  C179  1  0.21851608  0.18196350  0.60506313  1  -0.005943  0  -0.026571  -0.067949  0  3.994335  0
C  C180  1  0.12971627  0.15491425  0.55927519  1  -0.034087  0  -0.080004  -0.066843  0  3.992541  0
C  C181  1  0.30722781  0.14919409  0.59583904  1  -0.080629  0  -0.074306  -0.055201  0  3.962384  0
C  C182  1  0.12916757  0.09593054  0.50507223  1  -0.024671  0  -0.101762  -0.206097  0  4.001492  0
C  C183  1  0.30781105  0.09091175  0.54179650  1  0.051836  0  -0.101484  -0.211012  0  4.002923  0
C  C184  1  0.21847454  0.06473192  0.49656706  1  0.396299  0  0.091156  0.270796  0  4.048043  0
C  C185  1  0.29179686  0.01175702  0.41967458  1  0.440659  0  0.090481  0.27073  0  4.045843  0
C  C186  1  0.34356876  0.10510652  0.42529388  1  -0.073229  0  -0.104803  -0.217188  0  4.003878  0
C  C187  1  0.31360363  0.92298083  0.38706557  1  -0.05963  0  -0.099023  -0.202658  0  3.99788  0
C  C188  1  0.41734800  0.10884421  0.39743135  1  0.000915  0  -0.078251  -0.057009  0  3.980421  0
C  C189  1  0.38710647  0.92781615  0.35922111  1  -0.042772  0  -0.075762  -0.059705  0  3.974142  0
C  C190  1  0.43948972  0.02058643  0.36396108  1  -0.034512  0  -0.02629  -0.066714  0  3.987485  0
C  C191  1  0.51512939  0.02353123  0.33178087  1  1.560202  0  0.23693  0.614842  0  4.173562  0
O  O192  1  0.63331012  0.27652475  0.16797728  1  -1.174709  0  -0.293438  -0.584979  0  2.27146  0
O  O193  1  0.69382368  0.15236675  0.20364403  1  -1.179121  0  -0.290867  -0.583737  0  2.327059  0
O  O194  1  0.68980800  0.97997672  0.94268587  1  -1.102866  0  -0.152798  -0.215004  0  2.551115  0
O  O195  1  0.48034367  0.52399941  0.83941774  1  -1.169354  0  -0.297993  -0.590687  0  2.25417  0
O  O196  1  0.60796840  0.52564162  0.79850684  1  -1.185083  0  -0.288242  -0.588259  0  2.339235  0
O  O197  1  0.55371167  0.25878543  0.27332915  1  -1.180216  0  -0.519987  -0.864622  0  2.054574  0
O  O198  1  0.53463798  0.89148080  0.16800134  1  -1.17086  0  -0.292883  -0.582723  0  2.272228  0
O  O199  1  0.50985666  0.05136561  0.20366896  1  -1.185739  0  -0.29056  -0.581068  0  2.327901  0
O  O200  1  0.25287413  0.96279332  0.94266446  1  -1.094438  0  -0.153254  -0.216613  0  2.551395  0
O  O201  1  0.35891659  0.31564517  0.83944110  1  -1.170731  0  -0.298456  -0.591966  0  2.253616  0
O  O202  1  0.19042401  0.27275556  0.79840794  1  -1.192806  0  -0.288155  -0.587852  0  2.338831  0
O  O203  1  0.71961523  0.01456606  0.27335912  1  -1.195875  0  -0.520957  -0.867256  0  2.052623  0
O  O204  1  0.72347793  0.36669063  0.83202302  1  -1.174672  0  -0.293479  -0.584994  0  2.271436  0
O  O205  1  0.84763375  0.30617825  0.79635476  1  -1.179041  0  -0.290823  -0.583669  0  2.326978  0
O  O206  1  0.02002224  0.31019333  0.05731456  1  -1.102881  0  -0.152769  -0.214996  0  2.550981  0
O  O207  1  0.47600035  0.51965691  0.16058322  1  -1.169311  0  -0.297995  -0.590656  0  2.254145  0
O  O208  1  0.47435904  0.39202749  0.20149095  1  -1.185101  0  -0.288218  -0.588228  0  2.339141  0
O  O209  1  0.74121564  0.44628578  0.72666990  1  -1.180188  0  -0.51999  -0.864652  0  2.054581  0
O  O210  1  0.10851898  0.46536233  0.83199857  1  -1.170809  0  -0.292898  -0.582762  0  2.272251  0
O  O211  1  0.94863363  0.49014109  0.79632984  1  -1.185735  0  -0.290573  -0.58105  0  2.327889  0
O  O212  1  0.03720735  0.74712541  0.05733488  1  -1.093991  0  -0.153342  -0.216762  0  2.551294  0
O  O213  1  0.68435527  0.64108451  0.16055904  1  -1.170742  0  -0.298414  -0.591936  0  2.253662  0
O  O214  1  0.72724462  0.80957728  0.20159279  1  -1.192703  0  -0.288175  -0.58788  0  2.338791  0
O  O215  1  0.98543399  0.28038267  0.72664002  1  -1.19582  0  -0.520991  -0.867416  0  2.052503  0
O  O216  1  0.61669066  0.47347692  0.33202379  1  -1.17471  0  -0.293443  -0.585017  0  2.271413  0
O  O217  1  0.55617714  0.59763368  0.29635559  1  -1.178992  0  -0.290897  -0.583796  0  2.326973  0
O  O218  1  0.56019295  0.77002292  0.55731529  1  -1.102924  0  -0.152804  -0.215016  0  2.550955  0
O  O219  1  0.76965508  0.22599984  0.66058426  1  -1.169244  0  -0.297931  -0.590546  0  2.254232  0
O  O220  1  0.64202815  0.22435774  0.70149220  1  -1.185112  0  -0.288248  -0.588215  0  2.339263  0
O  O221  1  0.69628697  0.49121695  0.22667051  1  -1.180225  0  -0.519985  -0.864545  0  2.054797  0
O  O222  1  0.71536181  0.85851990  0.33199869  1  -1.170842  0  -0.292916  -0.58281  0  2.272275  0
O  O223  1  0.74014015  0.69863559  0.29632963  1  -1.185675  0  -0.290577  -0.581075  0  2.327782  0
O  O224  1  0.99712675  0.78720864  0.55733510  1  -1.094079  0  -0.153278  -0.216652  0  2.551387  0
O  O225  1  0.89108430  0.43435613  0.66055777  1  -1.170701  0  -0.298448  -0.591946  0  2.253542  0
O  O226  1  0.05957784  0.47724570  0.70159281  1  -1.19276  0  -0.288174  -0.587816  0  2.338807  0
O  O227  1  0.53038322  0.73543465  0.22664036  1  -1.19585  0  -0.521  -0.86741  0  2.052388  0
O  O228  1  0.52652418  0.38330895  0.66797709  1  -1.174678  0  -0.293499  -0.585049  0  2.271378  0
O  O229  1  0.40236610  0.44382182  0.70364457  1  -1.179052  0  -0.290788  -0.583612  0  2.327007  0
O  O230  1  0.22998033  0.43980222  0.44268552  1  -1.102845  0  -0.152894  -0.2151  0  2.551031  0
O  O231  1  0.77399833  0.23034423  0.33941500  1  -1.169337  0  -0.297983  -0.590596  0  2.254253  0
O  O232  1  0.77564333  0.35797393  0.29850871  1  -1.185078  0  -0.288197  -0.588221  0  2.339204  0
O  O233  1  0.50878522  0.30371384  0.77333045  1  -1.180226  0  -0.520001  -0.864661  0  2.054663  0
O  O234  1  0.14147845  0.28463930  0.66800076  1  -1.170871  0  -0.292844  -0.582657  0  2.272234  0
O  O235  1  0.30136332  0.25985867  0.70366960  1  -1.185709  0  -0.290559  -0.580957  0  2.327855  0
O  O236  1  0.21279445  0.00287204  0.44266666  1  -1.094039  0  -0.15329  -0.216661  0  2.55148  0
O  O237  1  0.56564524  0.10891781  0.33944024  1  -1.170661  0  -0.298503  -0.592023  0  2.253525  0
O  O238  1  0.52275505  0.94042321  0.29840787  1  -1.19281  0  -0.288175  -0.587883  0  2.338794  0
O  O239  1  0.26456595  0.46961593  0.77336017  1  -1.195816  0  -0.520971  -0.867367  0  2.052342  0
