# generated using pymatgen
data_Zn2H5C10O7
_symmetry_space_group_name_H-M   'P 1'
_cell_length_a   13.29940597
_cell_length_b   13.30888030
_cell_length_c   15.90870480
_cell_angle_alpha   80.90723702
_cell_angle_beta   79.88452162
_cell_angle_gamma   89.09189545
_symmetry_Int_Tables_number   1
_chemical_formula_structural   Zn2H5C10O7
_chemical_formula_sum   'Zn4 H10 C20 O14'
_cell_volume   2737.03398257
_cell_formula_units_Z   2
loop_
 _symmetry_equiv_pos_site_id
 _symmetry_equiv_pos_as_xyz
  1  'x, y, z'
loop_
 _atom_site_type_symbol
 _atom_site_label
 _atom_site_symmetry_multiplicity
 _atom_site_fract_x
 _atom_site_fract_y
 _atom_site_fract_z
 _atom_site_occupancy
 _atom_site_pbe_bader_charge
 _atom_site_pbe_bader_spin_density
 _atom_site_pbe_cm5_charge
 _atom_site_pbe_ddec_charge
 _atom_site_pbe_ddec_spin_density
 _atom_site_pbe_ddec_sum_bond_order
 _atom_site_pbe_magmom
Zn  Zn0  1  0.59913013  0.57027666  0.55208113  1  1.315353  0  0.670129  0.960231  0  2.389515  0
Zn  Zn1  1  0.58574090  0.40788851  0.43156962  1  1.313748  0  0.671344  0.964812  0  2.36756  0
Zn  Zn2  1  0.43121241  0.60879736  0.43589956  1  1.310684  0  0.670923  0.963239  0  2.36022  0
Zn  Zn3  1  0.39730909  0.41679346  0.58343160  1  1.316095  0  0.671605  0.968157  0  2.34598  0
H  H4  1  0.39639125  0.44117859  0.02644465  1  0.102677  0  0.120663  0.143676  0  0.970433  0
H  H5  1  0.91061752  0.34942236  0.47120436  1  0.103125  0  0.113582  0.135032  0  0.978479  0
H  H6  1  0.08892510  0.62487637  0.52032183  1  0.089024  0  0.116208  0.134196  0  0.973317  0
H  H7  1  0.58466132  0.08817030  0.45728794  1  0.10037  0  0.113052  0.113096  0  0.972614  0
H  H8  1  0.41370298  0.92007269  0.49783203  1  0.085366  0  0.11405  0.113651  0  0.968338  0
H  H9  1  0.36061761  0.09041093  0.55019381  1  0.095339  0  0.113904  0.134353  0  0.977458  0
H  H10  1  0.64906465  0.90953624  0.45685213  1  0.10308  0  0.115095  0.135217  0  0.973625  0
H  H11  1  0.91487767  0.55926858  0.52997782  1  0.093374  0  0.114043  0.112517  0  0.975257  0
H  H12  1  0.08403320  0.39380140  0.51564480  1  0.082579  0  0.113542  0.113614  0  0.967117  0
H  H13  1  0.64317964  0.62194111  0.00074530  1  0.63835  0  0.349009  0.374917  0  0.857742  0
C  C14  1  0.45867794  0.22706402  0.51732757  1  1.545494  0  0.218688  0.641811  0  4.187195  0
C  C15  1  0.05332617  0.47019649  0.51826124  1  0.017163  0  -0.070387  -0.03472  0  4.005306  0
C  C16  1  0.88398371  0.42131437  0.49141494  1  0.00879  0  -0.091881  -0.240928  0  3.885029  0
C  C17  1  0.55152980  0.77425282  0.47156635  1  1.528066  0  0.220069  0.641193  0  4.188712  0
C  C18  1  0.94686620  0.48687077  0.51438286  1  -0.104381  0  -0.066663  -0.016766  0  4.008277  0
C  C19  1  0.77601968  0.44693056  0.48833528  1  1.527294  0  0.21781  0.641959  0  4.189306  0
C  C20  1  0.22770945  0.53436256  0.52000590  1  1.531061  0  0.219915  0.641887  0  4.186558  0
C  C21  1  0.51578623  0.52335174  0.27638024  1  1.691618  0  0.239985  0.677316  0  4.230906  0
C  C22  1  0.47694208  0.49470760  0.72414917  1  1.628045  0  0.226818  0.679865  0  4.239154  0
C  C23  1  0.51742312  0.52876174  0.18435050  1  0.269801  0  -0.020065  -0.122568  0  3.914882  0
C  C24  1  0.52470198  0.53576864  0.01713357  1  0.557741  0  0.10449  0.339694  0  4.156255  0
C  C25  1  0.46331792  0.48962862  0.89311989  1  -0.529572  0  -0.025842  0.06006  0  4.164369  0
C  C26  1  0.45705756  0.48595565  0.98198355  1  0.220413  0  -0.095431  -0.225589  0  4.058863  0
C  C27  1  0.51852969  0.53070154  0.10734665  1  -0.477996  0  -0.027809  -0.118116  0  4.097711  0
C  C28  1  0.46797547  0.49210340  0.81542141  1  0.235997  0  -0.047219  -0.21706  0  3.95392  0
C  C29  1  0.56947192  0.88449185  0.46688664  1  -0.055603  0  -0.08238  -0.221462  0  3.87541  0
C  C30  1  0.49215354  0.94961935  0.48324847  1  -0.001302  0  -0.069042  -0.029438  0  4.006981  0
C  C31  1  0.43667601  0.11830844  0.51823908  1  -0.042073  0  -0.087664  -0.232614  0  3.879457  0
C  C32  1  0.50860847  0.05597535  0.48456504  1  -0.047054  0  -0.069439  -0.024003  0  4.006946  0
C  C33  1  0.11662616  0.54697045  0.52237466  1  -0.024933  0  -0.081251  -0.21556  0  3.873625  0
O  O34  1  0.50272431  0.50005264  0.49934748  1  -1.233866  0  -0.571705  -1.034574  0  2.52766  0
O  O35  1  0.57232770  0.45557333  0.30910223  1  -1.152809  0  -0.301894  -0.526849  0  2.265954  0
O  O36  1  0.41361801  0.43912546  0.69920722  1  -1.157377  0  -0.317966  -0.550755  0  2.273989  0
O  O37  1  0.45828571  0.58690112  0.31315386  1  -1.148075  0  -0.304606  -0.532064  0  2.263179  0
O  O38  1  0.54778031  0.55254908  0.67654542  1  -1.143817  0  -0.315685  -0.546077  0  2.28102  0
O  O39  1  0.60264131  0.59278214  0.96492453  1  -1.105368  0  -0.321739  -0.407546  0  2.215316  0
O  O40  1  0.73794325  0.51821066  0.52867690  1  -1.170791  0  -0.318226  -0.552472  0  2.338685  0
O  O41  1  0.25900710  0.45126000  0.55807379  1  -1.168144  0  -0.313844  -0.546915  0  2.297811  0
O  O42  1  0.53580686  0.26700431  0.46334224  1  -1.173117  0  -0.320824  -0.557533  0  2.327916  0
O  O43  1  0.47076553  0.74678186  0.44753892  1  -1.155012  0  -0.316084  -0.54668  0  2.304801  0
O  O44  1  0.39809533  0.27207771  0.57081104  1  -1.151649  0  -0.318781  -0.545223  0  2.285209  0
O  O45  1  0.61868834  0.71519740  0.50057694  1  -1.158806  0  -0.318484  -0.548217  0  2.282032  0
O  O46  1  0.72940599  0.39529490  0.44503816  1  -1.149288  0  -0.320127  -0.548442  0  2.281616  0
O  O47  1  0.28338414  0.60997773  0.47825104  1  -1.159615  0  -0.319888  -0.548325  0  2.281766  0
