# generated using pymatgen
data_V2CuH10C15(NO2)3
_symmetry_space_group_name_H-M   'P 1'
_cell_length_a   7.91099645
_cell_length_b   8.41704703
_cell_length_c   12.59780008
_cell_angle_alpha   83.71312723
_cell_angle_beta   77.50284669
_cell_angle_gamma   83.00566788
_symmetry_Int_Tables_number   1
_chemical_formula_structural   V2CuH10C15(NO2)3
_chemical_formula_sum   'V4 Cu2 H20 C30 N6 O12'
_cell_volume   809.88428450
_cell_formula_units_Z   2
loop_
 _symmetry_equiv_pos_site_id
 _symmetry_equiv_pos_as_xyz
  1  'x, y, z'
loop_
 _atom_site_type_symbol
 _atom_site_label
 _atom_site_symmetry_multiplicity
 _atom_site_fract_x
 _atom_site_fract_y
 _atom_site_fract_z
 _atom_site_occupancy
 _atom_site_hle17_ddec_charge
 _atom_site_hle17_ddec_spin_density
 _atom_site_hle17_ddec_sum_bond_order
 _atom_site_hle17_magmom
 _atom_site_hse06_10hf_ddec_charge
 _atom_site_hse06_10hf_ddec_spin_density
 _atom_site_hse06_10hf_ddec_sum_bond_order
 _atom_site_hse06_10hf_magmom
 _atom_site_hse06_ddec_charge
 _atom_site_hse06_ddec_spin_density
 _atom_site_hse06_ddec_sum_bond_order
 _atom_site_hse06_magmom
 _atom_site_pbe_cm5_charge
 _atom_site_pbe_ddec_charge
 _atom_site_pbe_ddec_spin_density
 _atom_site_pbe_ddec_sum_bond_order
 _atom_site_pbe_magmom
V  V0  1  0.08138173  0.14621179  0.61578146  1  1.960881  -0.026439  3.056772  -0.033  2.03019  0.001445  3.455411  0.002  2.130519  -0.000179  3.423021  0.0  1.428781  1.94583  0.003048  3.50567  0.004
V  V1  1  0.91856999  0.85379699  0.38421829  1  1.961162  0.026407  3.056445  0.033  2.030307  -0.001435  3.455322  -0.002  2.130774  0.000182  3.422697  0.0  1.428883  1.945971  -0.003051  3.505543  -0.004
V  V2  1  0.81062806  0.85323195  0.66042254  1  1.968949  -0.006563  3.062541  -0.008  2.038138  -0.00286  3.457001  -0.004  2.134976  -0.00263  3.426507  -0.004  1.410248  1.95643  -0.002868  3.507103  -0.004
V  V3  1  0.18935033  0.14679354  0.33958987  1  1.969216  0.006566  3.061935  0.008  2.03841  0.002877  3.456394  0.004  2.135248  0.002621  3.425894  0.004  1.410363  1.956678  0.002869  3.506551  0.004
Cu  Cu4  1  0.40239295  0.08094560  0.72528439  1  0.863601  0.750553  2.04661  0.513  0.850944  0.814655  2.459358  0.616  0.928343  0.892343  2.391239  0.702  0.794152  0.809014  0.756562  2.501361  0.557
Cu  Cu5  1  0.59763321  0.91904498  0.27471850  1  0.863533  -0.750578  2.046835  -0.513  0.850949  -0.814667  2.459486  -0.616  0.928208  -0.892339  2.391563  -0.702  0.794189  0.809004  -0.756576  2.501519  -0.557
H  H6  1  0.19293931  0.79282119  0.80546150  1  0.101556  0.001536  0.924778  0.002  0.110076  0.001262  0.985041  0.002  0.112521  0.0009  0.982015  0.001  0.128788  0.107955  0.001564  0.987717  0.002
H  H7  1  0.80707496  0.20719587  0.19453316  1  0.101699  -0.001532  0.924549  -0.002  0.11012  -0.00126  0.984923  -0.002  0.112566  -0.000899  0.981898  -0.001  0.128818  0.108001  -0.001562  0.987598  -0.002
H  H8  1  0.06781721  0.66143073  0.99004348  1  0.110757  0.000525  0.925923  0.001  0.126164  0.000495  0.972719  0.0  0.128752  0.000347  0.97277  0.0  0.115474  0.124224  0.000618  0.972988  0.001
H  H9  1  0.93218891  0.33858996  0.00994727  1  0.110719  -0.000526  0.925797  -0.001  0.126082  -0.000495  0.97265  0.0  0.128666  -0.000347  0.972709  0.0  0.115421  0.124142  -0.000618  0.972916  -0.001
H  H10  1  0.08468434  0.79203141  0.15738840  1  0.115671  0.000169  0.972405  0.0  0.12568  -3.4e-05  1.033311  0.0  0.129058  -3.9e-05  1.030412  0.0  0.11075  0.123022  -2e-05  1.035487  0.0
H  H11  1  0.91532410  0.20796766  0.84259961  1  0.115591  -0.00017  0.972301  0.0  0.125582  3.4e-05  1.033253  0.0  0.129018  3.9e-05  1.030279  0.0  0.110671  0.122924  2e-05  1.035426  0.0
H  H12  1  0.22694965  0.04735528  0.13326101  1  0.111002  0.000891  0.979348  0.001  0.113581  0.000724  1.053162  0.001  0.116258  0.000511  1.052491  0.001  0.111996  0.11184  0.000906  1.053294  0.001
H  H13  1  0.77306770  0.95263292  0.86674483  1  0.111019  -0.00089  0.979507  -0.001  0.113593  -0.000723  1.053292  -0.001  0.116266  -0.00051  1.052619  -0.001  0.112022  0.111852  -0.000905  1.053424  -0.001
H  H14  1  0.32893331  0.28983363  0.08898916  1  0.13396  0.00068  0.975594  0.001  0.141766  0.000613  1.038612  0.001  0.146034  0.000439  1.035467  0.001  0.113872  0.138503  0.000753  1.041127  0.001
H  H15  1  0.67107473  0.71015700  0.91101142  1  0.133811  -0.000681  0.975728  -0.001  0.141701  -0.000613  1.038656  -0.001  0.145967  -0.000439  1.035515  -0.001  0.113831  0.138433  -0.000753  1.041184  -0.001
H  H16  1  0.63975076  0.55883569  0.81522229  1  0.132774  0.000628  0.967094  0.001  0.140555  0.000562  1.029566  0.001  0.144547  0.000397  1.026954  0.001  0.117328  0.137524  0.000694  1.031638  0.001
H  H17  1  0.36027773  0.44114528  0.18478336  1  0.132721  -0.000628  0.967078  -0.001  0.140518  -0.000563  1.029557  -0.001  0.144508  -0.000397  1.02695  -0.001  0.117321  0.13749  -0.000695  1.031619  -0.001
H  H18  1  0.78075834  0.52853417  0.64110706  1  0.116956  0.001116  0.966647  0.001  0.122665  0.000815  1.033672  0.001  0.125216  0.000546  1.032912  0.001  0.114732  0.121123  0.001052  1.033841  0.001
H  H19  1  0.21923988  0.47147574  0.35888156  1  0.116987  -0.001114  0.96685  -0.001  0.122723  -0.000815  1.033829  -0.001  0.125276  -0.000546  1.033064  -0.001  0.114777  0.12118  -0.001052  1.033999  -0.001
H  H20  1  0.85622431  0.51672807  0.43774794  1  0.118147  0.00021  0.965693  0.0  0.130443  -3.2e-05  1.020277  0.0  0.133357  -4.6e-05  1.017891  0.0  0.113908  0.128225  2e-06  1.02212  0.0
H  H21  1  0.14374594  0.48327711  0.56223766  1  0.118186  -0.000211  0.965758  0.0  0.130511  3.2e-05  1.020257  0.0  0.133429  4.6e-05  1.017863  0.0  0.113912  0.128287  -2e-06  1.022106  0.0
H  H22  1  0.71533363  0.32520062  0.35452620  1  0.111884  0.000653  0.933773  0.001  0.124569  0.000501  0.986309  0.001  0.127189  0.000339  0.985633  0.0  0.114769  0.122632  0.000633  0.987198  0.001
H  H23  1  0.28463374  0.67479489  0.64548191  1  0.111885  -0.000651  0.933521  -0.001  0.124493  -0.000501  0.986158  -0.001  0.127113  -0.000339  0.985486  0.0  0.114761  0.122554  -0.000633  0.987049  -0.001
H  H24  1  0.50606147  0.15107581  0.47526694  1  0.104902  0.001902  0.944022  0.003  0.112125  0.001444  1.00568  0.002  0.114258  0.000986  1.002664  0.002  0.125016  0.11023  0.00183  1.008311  0.003
H  H25  1  0.49393413  0.84891003  0.52474202  1  0.10494  -0.001902  0.944068  -0.003  0.112227  -0.001442  1.005647  -0.002  0.114363  -0.000985  1.002627  -0.002  0.125049  0.110332  -0.001829  1.008278  -0.003
C  C26  1  0.20168357  0.84178329  0.88051367  1  0.1507  -0.007248  3.665198  -0.008  0.120709  -0.001442  3.921592  -0.003  0.130477  -0.002376  3.938657  -0.004  0.063029  0.11427  -0.000692  3.910909  -0.002
C  C27  1  0.79833755  0.15821812  0.11948595  1  0.15049  0.00724  3.664441  0.008  0.120578  0.001445  3.92088  0.003  0.130338  0.002372  3.937939  0.004  0.062949  0.114143  0.000692  3.910193  0.002
C  C28  1  0.13117109  0.77107177  0.98339840  1  -0.111175  0.008096  3.710871  0.008  -0.123699  0.003673  3.96206  0.004  -0.131115  0.003218  3.983223  0.004  -0.075089  -0.118798  0.004088  3.947723  0.005
C  C29  1  0.86884252  0.22892725  0.01660161  1  -0.111224  -0.008085  3.710488  -0.008  -0.123688  -0.003676  3.961615  -0.004  -0.131106  -0.003213  3.982796  -0.004  -0.074988  -0.118789  -0.004086  3.947278  -0.005
C  C30  1  0.14062293  0.84404951  0.07587970  1  0.00358  -0.006981  3.671316  -0.006  -0.016556  -0.002433  3.919006  -0.002  -0.012639  -0.00256  3.936876  -0.002  -0.061069  -0.01903  -0.002335  3.907126  -0.002
C  C31  1  0.85938835  0.15592313  0.92411299  1  0.003738  0.006978  3.671258  0.006  -0.016367  0.002435  3.918906  0.002  -0.012484  0.00256  3.936749  0.002  -0.060988  -0.018845  0.002336  3.907032  0.002
C  C32  1  0.22060367  0.98596653  0.06277619  1  -0.116294  0.004622  3.671445  0.004  -0.134241  0.002026  3.918488  0.002  -0.140672  0.001873  3.939759  0.002  -0.07104  -0.130087  0.002201  3.904213  0.002
C  C33  1  0.77942950  0.01401927  0.93721578  1  -0.116298  -0.004623  3.671659  -0.004  -0.134354  -0.002024  3.918812  -0.002  -0.140777  -0.001875  3.940073  -0.002  -0.071088  -0.130196  -0.002203  3.904537  -0.002
C  C34  1  0.29026577  0.04973071  0.95784435  1  0.157871  -0.001065  3.755197  -0.001  0.155954  0.001709  3.99853  0.001  0.161996  0.00055  4.02057  0.0  0.117642  0.152175  0.002581  3.984073  0.002
C  C35  1  0.70976608  0.95024303  0.04216295  1  0.157748  0.001067  3.755199  0.001  0.155988  -0.001711  3.998388  -0.001  0.162041  -0.000548  4.020414  0.0  0.117578  0.152203  -0.00258  3.983936  -0.002
C  C36  1  0.38144694  0.19657765  0.93173504  1  0.200083  -0.004699  3.76304  -0.006  0.195723  -0.000205  4.012703  -0.002  0.205921  -0.001275  4.030797  -0.003  0.125751  0.188621  0.000629  4.001455  -0.001
C  C37  1  0.61858571  0.80342494  0.06826690  1  0.200235  0.00471  3.763559  0.006  0.195733  0.000206  4.01337  0.002  0.205922  0.001278  4.031462  0.003  0.125862  0.188635  -0.000627  4.002122  0.001
C  C38  1  0.39492390  0.30716625  0.00360155  1  -0.165385  0.008581  3.595304  0.008  -0.191  0.00416  3.838033  0.004  -0.197671  0.003954  3.855415  0.004  -0.069345  -0.186765  0.004315  3.827072  0.004
C  C39  1  0.60509968  0.69283634  0.99640480  1  -0.165126  -0.00859  3.595177  -0.008  -0.190736  -0.004161  3.837915  -0.004  -0.1974  -0.003956  3.855302  -0.004  -0.069175  -0.186504  -0.004316  3.82695  -0.004
C  C40  1  0.49008310  0.44026253  0.96303663  1  0.098947  -0.008646  3.726122  -0.008  0.109123  -0.003497  3.964756  -0.004  0.114035  -0.003622  3.985345  -0.004  0.016021  0.105526  -0.003399  3.9513  -0.003
C  C41  1  0.50993063  0.55972329  0.03696114  1  0.099047  0.008657  3.725302  0.008  0.109116  0.003494  3.964103  0.004  0.114023  0.003629  3.984688  0.004  0.016015  0.105525  0.003399  3.950642  0.003
C  C42  1  0.56527827  0.45826262  0.85089611  1  -0.153731  0.008628  3.584271  0.008  -0.176672  0.004071  3.820856  0.004  -0.183375  0.00392  3.837653  0.004  -0.060161  -0.172614  0.004181  3.810633  0.004
C  C43  1  0.43474608  0.54174476  0.14911375  1  -0.153835  -0.008639  3.583807  -0.008  -0.176809  -0.004067  3.820497  -0.004  -0.183506  -0.003928  3.837298  -0.004  -0.06026  -0.172751  -0.004184  3.810271  -0.004
C  C44  1  0.54287646  0.34522182  0.78302819  1  0.222438  -0.005602  3.732867  -0.007  0.220345  -0.000955  3.974261  -0.002  0.232128  -0.001922  3.989968  -0.003  0.137083  0.211884  -0.000184  3.965077  -0.002
C  C45  1  0.45713456  0.65478921  0.21697528  1  0.22244  0.005605  3.733167  0.007  0.220418  0.000952  3.974529  0.002  0.232194  0.001924  3.990233  0.003  0.137007  0.21196  0.000183  3.965346  0.002
C  C46  1  0.60091044  0.34928143  0.66391693  1  0.165182  -0.000116  3.753227  0.0  0.164636  0.002423  3.994851  0.002  0.1704  0.001089  4.01681  0.001  0.118389  0.161216  0.003448  3.980443  0.003
C  C47  1  0.39909631  0.65072123  0.33608138  1  0.165348  0.000126  3.753087  0.0  0.164743  -0.002426  3.994786  -0.002  0.170514  -0.00109  4.016737  -0.001  0.118511  0.161318  -0.003451  3.980381  -0.003
C  C48  1  0.71926309  0.44933643  0.60174830  1  -0.116872  0.004696  3.670126  0.005  -0.138321  0.002052  3.921079  0.002  -0.144484  0.001737  3.941252  0.002  -0.064137  -0.134411  0.002378  3.907274  0.002
C  C49  1  0.28072360  0.55066030  0.39824044  1  -0.117021  -0.004718  3.670177  -0.005  -0.138526  -0.002052  3.921149  -0.002  -0.144698  -0.00174  3.941331  -0.002  -0.064254  -0.134612  -0.002378  3.907345  -0.002
C  C50  1  0.76264505  0.44133359  0.48884273  1  0.022266  -0.007231  3.651475  -0.007  0.002122  -0.002352  3.897649  -0.002  0.006968  -0.002487  3.913459  -0.002  -0.052529  -0.001229  -0.002191  3.887634  -0.002
C  C51  1  0.23732403  0.55867038  0.51114470  1  0.02214  0.007259  3.651518  0.007  0.002079  0.00235  3.897475  0.002  0.006924  0.002493  3.91329  0.002  -0.052647  -0.001271  0.002192  3.887463  0.002
C  C52  1  0.68445673  0.33537491  0.44204759  1  -0.081117  0.009268  3.655546  0.01  -0.095072  0.004105  3.903931  0.005  -0.101894  0.003411  3.923261  0.004  -0.062847  -0.09097  0.004701  3.89148  0.006
C  C53  1  0.31552815  0.66462661  0.55794661  1  -0.081012  -0.009297  3.655234  -0.01  -0.094894  -0.004098  3.903532  -0.005  -0.10172  -0.003417  3.922875  -0.004  -0.062726  -0.090787  -0.004699  3.891067  -0.006
C  C54  1  0.56797241  0.23670834  0.50908527  1  0.157963  -0.007613  3.648363  -0.008  0.129715  -0.001264  3.905463  -0.003  0.140625  -0.002354  3.922071  -0.004  0.067179  0.122427  -0.000329  3.895374  -0.002
C  C55  1  0.43201518  0.76329196  0.49091262  1  0.157885  0.00764  3.648107  0.008  0.129583  0.001263  3.905184  0.003  0.140489  0.00236  3.921787  0.004  0.067084  0.1223  0.000331  3.895089  0.002
N  N56  1  0.27966174  0.97677875  0.86873362  1  -0.316854  0.082287  3.306859  0.099  -0.273699  0.058207  3.591877  0.075  -0.302039  0.047656  3.611925  0.065  -0.335355  -0.257198  0.064599  3.580193  0.08
N  N57  1  0.72035030  0.02319865  0.13127054  1  -0.31674  -0.082281  3.30615  -0.099  -0.273661  -0.058199  3.591184  -0.075  -0.301975  -0.04765  3.611222  -0.065  -0.335384  -0.257158  -0.064591  3.579504  -0.08
N  N58  1  0.45475424  0.21847010  0.82522959  1  -0.354758  0.092486  3.370682  0.112  -0.32234  0.067053  3.667964  0.087  -0.349912  0.055644  3.682106  0.076  -0.351375  -0.307283  0.073451  3.661117  0.092
N  N59  1  0.54526480  0.78150251  0.17476444  1  -0.354913  -0.09253  3.370996  -0.112  -0.322522  -0.067074  3.668345  -0.087  -0.350068  -0.055659  3.682492  -0.076  -0.351396  -0.307458  -0.073481  3.661493  -0.092
N  N60  1  0.52892395  0.24291230  0.61721444  1  -0.331229  0.095883  3.320843  0.115  -0.296259  0.064246  3.616918  0.083  -0.328018  0.051638  3.64006  0.07  -0.33683  -0.277533  0.071735  3.60297  0.089
N  N61  1  0.47107374  0.75709040  0.38277476  1  -0.331186  -0.095868  3.320691  -0.115  -0.296229  -0.064227  3.616807  -0.083  -0.327951  -0.051628  3.639935  -0.07  -0.336786  -0.2775  -0.071713  3.602859  -0.089
O  O62  1  0.59343422  0.87586427  0.69357702  1  -0.87747  0.002024  1.425023  0.004  -0.893107  0.000681  1.718702  0.002  -0.930367  0.000444  1.703226  0.002  -0.644047  -0.864554  0.000844  1.733033  0.002
O  O63  1  0.40654921  0.12412640  0.30642927  1  -0.87742  -0.002023  1.424628  -0.004  -0.893107  -0.000685  1.71834  -0.002  -0.93031  -0.00044  1.702826  -0.002  -0.644016  -0.864547  -0.000843  1.732688  -0.002
O  O64  1  0.25596236  0.01677617  0.63667268  1  -0.869928  0.090572  1.605788  0.112  -0.90308  0.044906  1.949437  0.059  -0.954327  0.033226  1.940272  0.045  -0.624966  -0.86453  0.053747  1.957229  0.068
O  O65  1  0.74400102  0.98324458  0.36333178  1  -0.869982  -0.09056  1.606217  -0.112  -0.903038  -0.044916  1.949814  -0.059  -0.954289  -0.033238  1.940628  -0.046  -0.625025  -0.864504  -0.053748  1.957626  -0.068
O  O66  1  0.88676223  0.04699005  0.66007465  1  -1.015771  0.000178  1.620669  0.001  -1.042033  -0.000288  1.935116  0.0  -1.090148  -0.000283  1.931589  0.0  -0.700435  -1.00017  -0.000212  1.941465  0.0
O  O67  1  0.11321720  0.95302585  0.33993116  1  -1.01584  -0.000181  1.619948  -0.001  -1.042093  0.000286  1.934429  0.0  -1.090248  0.000281  1.930876  0.0  -0.70042  -1.000231  0.000211  1.940784  0.0
O  O68  1  0.11237224  0.21747095  0.47412623  1  -1.018339  -0.000624  1.62134  0.0  -1.040913  -0.000582  1.933102  -0.001  -1.089546  -0.000452  1.929225  -0.001  -0.695278  -0.99889  -0.000652  1.939896  -0.001
O  O69  1  0.88759111  0.78253775  0.52588942  1  -1.018312  0.000623  1.620886  0.0  -1.040871  0.00058  1.932678  0.001  -1.089544  0.000451  1.928785  0.001  -0.695145  -0.998859  0.000651  1.939463  0.001
O  O70  1  0.06416354  0.29821801  0.68953281  1  -0.773897  0.030659  1.272882  0.038  -0.789811  0.01075  1.511633  0.015  -0.820819  0.006895  1.501405  0.01  -0.607956  -0.76406  0.015165  1.522398  0.019
O  O71  1  0.93582444  0.70181469  0.31046905  1  -0.773995  -0.030612  1.273249  -0.038  -0.789812  -0.01075  1.512016  -0.015  -0.820826  -0.006894  1.501735  -0.01  -0.608064  -0.764079  -0.015154  1.522777  -0.019
O  O72  1  0.88150155  0.72382904  0.75330006  1  -0.827354  0.0009  1.224958  0.001  -0.828505  0.000155  1.450747  0.0  -0.856652  0.000194  1.439237  0.0  -0.632527  -0.804616  0.000132  1.462485  0.0
O  O73  1  0.11847698  0.27619528  0.24670289  1  -0.827532  -0.000902  1.224913  -0.001  -0.828668  -0.000163  1.450671  0.0  -0.856843  -0.000189  1.439202  0.0  -0.632579  -0.804772  -0.000132  1.462419  0.0
