# generated using pymatgen
data_Cd3H46C62(N3O8)2
_symmetry_space_group_name_H-M   'P 1'
_cell_length_a   8.24127371
_cell_length_b   12.64721261
_cell_length_c   14.29900000
_cell_angle_alpha   98.71073019
_cell_angle_beta   97.47256124
_cell_angle_gamma   93.32706314
_symmetry_Int_Tables_number   1
_chemical_formula_structural   Cd3H46C62(N3O8)2
_chemical_formula_sum   'Cd3 H46 C62 N6 O16'
_cell_volume   1456.06915116
_cell_formula_units_Z   1
loop_
 _symmetry_equiv_pos_site_id
 _symmetry_equiv_pos_as_xyz
  1  'x, y, z'
loop_
 _atom_site_type_symbol
 _atom_site_label
 _atom_site_symmetry_multiplicity
 _atom_site_fract_x
 _atom_site_fract_y
 _atom_site_fract_z
 _atom_site_occupancy
 _atom_site_hle17_bader_spin_density
 _atom_site_hle17_ddec_charge
 _atom_site_hle17_ddec_spin_density
 _atom_site_hle17_ddec_sum_bond_order
 _atom_site_hle17_magmom
 _atom_site_hse06_10hf_bader_spin_density
 _atom_site_hse06_10hf_ddec_charge
 _atom_site_hse06_10hf_ddec_spin_density
 _atom_site_hse06_10hf_ddec_sum_bond_order
 _atom_site_hse06_10hf_magmom
 _atom_site_hse06_bader_spin_density
 _atom_site_hse06_ddec_charge
 _atom_site_hse06_ddec_spin_density
 _atom_site_hse06_ddec_sum_bond_order
 _atom_site_hse06_magmom
 _atom_site_pbe_bader_charge
 _atom_site_pbe_bader_spin_density
 _atom_site_pbe_cm5_charge
 _atom_site_pbe_ddec_charge
 _atom_site_pbe_ddec_spin_density
 _atom_site_pbe_ddec_sum_bond_order
 _atom_site_pbe_magmom
Cd  Cd0  1  0.50000116  0.00000080  0.99999981  1  0  1.054772  0  1.701057  0  0  0.867943  0  2.129423  0  0  0.929177  0  2.076242  0  1.229628  0  0.761303  0.824787  0  2.165504  0
Cd  Cd1  1  0.50245028  0.68882463  0.44410546  1  0  1.102838  0  1.659084  0  0  0.907523  0  2.096756  0  0  0.967555  0  2.044652  0  1.272155  0  0.755015  0.864958  0  2.132196  0
Cd  Cd2  1  0.49755124  0.31117515  0.55589448  1  0  1.10283  0  1.65906  0  0  0.907507  0  2.096735  0  0  0.967539  0  2.044631  0  1.272159  0  0.755001  0.864942  0  2.132174  0
H  H3  1  0.49993870  0.34532389  0.20793772  1  0  0.117203  0  0.935133  0  0  0.125702  0  0.997355  0  0  0.130089  0  0.993737  0  0.120793  0  0.108242  0.12253  0  1.000028  0
H  H4  1  0.50006036  0.65467589  0.79206204  1  0  0.117208  0  0.93513  0  0  0.125716  0  0.997356  0  0  0.130103  0  0.993739  0  0.120778  0  0.108238  0.122543  0  1.000028  0
H  H5  1  0.26282128  0.61197552  0.11382599  1  0  0.101762  0  0.991904  0  0  0.108171  0  1.064993  0  0  0.111774  0  1.062266  0  0.061998  0  0.100715  0.105592  0  1.066963  0
H  H6  1  0.73717779  0.38802426  0.88617447  1  0  0.101758  0  0.991905  0  0  0.108173  0  1.064987  0  0  0.111775  0  1.062263  0  0.061998  0  0.100719  0.105595  0  1.066957  0
H  H7  1  0.26437143  0.31743019  0.91691421  1  0  0.115224  0  0.952517  0  0  0.12302  0  1.018732  0  0  0.126846  0  1.016301  0  0.090236  0  0.102889  0.120287  0  1.020495  0
H  H8  1  0.73562896  0.68257040  0.08308575  1  0  0.115209  0  0.952537  0  0  0.12301  0  1.018744  0  0  0.126835  0  1.016313  0  0.090267  0  0.102891  0.120265  0  1.020521  0
H  H9  1  0.27565960  0.66782552  0.95846082  1  0  0.063082  0  0.939933  0  0  0.075664  0  1.008969  0  0  0.075088  0  1.00997  0  0.0999  0  0.101377  0.076036  0  1.008334  0
H  H10  1  0.72434069  0.33217427  0.04153834  1  0  0.063074  0  0.939909  0  0  0.07565  0  1.008957  0  0  0.075087  0  1.009942  0  0.099952  0  0.101383  0.076023  0  1.00832  0
H  H11  1  0.08323545  0.64348663  0.00001785  1  0  0.057956  0  0.928008  0  0  0.070717  0  0.995345  0  0  0.071094  0  0.99486  0  0.049332  0  0.100047  0.070453  0  0.995735  0
H  H12  1  0.91676474  0.35651235  0.99998189  1  0  0.057929  0  0.928021  0  0  0.070703  0  0.995356  0  0  0.071078  0  0.994873  0  0.049313  0  0.100041  0.070436  0  0.995754  0
H  H13  1  0.96222456  0.78326248  0.92061881  1  0  0.084482  0  0.959091  0  0  0.095402  0  1.022244  0  0  0.097922  0  1.022165  0  0.053174  0  0.094426  0.093612  0  1.022424  0
H  H14  1  0.03777705  0.21673810  0.07938195  1  0  0.08449  0  0.959077  0  0  0.09542  0  1.022223  0  0  0.097942  0  1.022142  0  0.053184  0  0.094427  0.09363  0  1.022405  0
H  H15  1  0.79371646  0.81814144  0.77111402  1  0  0.094813  0  0.957502  0  0  0.103303  0  1.021132  0  0  0.106756  0  1.01888  0  0.081174  0  0.097981  0.100798  0  1.022791  0
H  H16  1  0.20628393  0.18185914  0.22888595  1  0  0.094875  0  0.957533  0  0  0.103371  0  1.021143  0  0  0.106822  0  1.018893  0  0.081192  0  0.098013  0.100866  0  1.022801  0
H  H17  1  0.97519068  0.54538162  0.61183130  1  0  0.097104  0  0.942906  0  0  0.10928  0  0.999775  0  0  0.112885  0  0.996874  0  0.078573  0  0.103153  0.106602  0  1.002037  0
H  H18  1  0.02480838  0.45461816  0.38816916  1  0  0.097111  0  0.9429  0  0  0.109295  0  0.999754  0  0  0.112896  0  0.99686  0  0.078571  0  0.103158  0.106617  0  1.002016  0
H  H19  1  0.14851727  0.51297418  0.75987510  1  0  0.099259  0  0.964996  0  0  0.104307  0  1.035081  0  0  0.107921  0  1.033028  0  0.080928  0  0.101183  0.101735  0  1.036641  0
H  H20  1  0.85148170  0.48702480  0.24012455  1  0  0.099244  0  0.96501  0  0  0.104329  0  1.035063  0  0  0.107946  0  1.033005  0  0.080935  0  0.101184  0.101757  0  1.036624  0
H  H21  1  0.14518092  0.05263140  0.04909517  1  0  0.075248  0  0.967159  0  0  0.081883  0  1.036555  0  0  0.08395  0  1.035481  0  0.11803  0  0.112975  0.080334  0  1.037363  0
H  H22  1  0.85482069  0.94736919  0.95090419  1  0  0.075281  0  0.967094  0  0  0.081898  0  1.036511  0  0  0.083964  0  1.035437  0  0.118058  0  0.11297  0.080348  0  1.03732  0
H  H23  1  0.92172384  0.99123631  0.13424832  1  0  0.112608  0  0.947888  0  0  0.124302  0  1.004903  0  0  0.127474  0  1.003517  0  0.090954  0  0.113323  0.122031  0  1.006068  0
H  H24  1  0.07827890  0.00876347  0.86575101  1  0  0.112605  0  0.947882  0  0  0.124293  0  1.004896  0  0  0.127465  0  1.00351  0  0.090935  0  0.113324  0.122021  0  1.006065  0
H  H25  1  0.24006479  0.75332656  0.22652683  1  0  0.130143  0  0.999951  0  0  0.135245  0  1.065928  0  0  0.140102  0  1.062632  0  0.178098  0  0.109189  0.131721  0  1.068475  0
H  H26  1  0.75993682  0.24667402  0.77347323  1  0  0.130155  0  0.999954  0  0  0.135259  0  1.065932  0  0  0.140115  0  1.062635  0  0.178072  0  0.109187  0.131735  0  1.068478  0
H  H27  1  0.44192229  0.82107678  0.13150028  1  0  0.08513  0  0.944731  0  0  0.092978  0  1.007902  0  0  0.095539  0  1.006396  0  0.117639  0  0.11679  0.091037  0  1.009126  0
H  H28  1  0.55807932  0.17892381  0.86849978  1  0  0.085156  0  0.944698  0  0  0.092998  0  1.007873  0  0  0.095558  0  1.006365  0  0.117664  0  0.116794  0.091057  0  1.009098  0
H  H29  1  0.04070860  0.68011893  0.26910342  1  0  0.125737  0  0.943002  0  0  0.134723  0  1.003002  0  0  0.138334  0  1.001584  0  0.103641  0  0.115195  0.132122  0  1.004145  0
H  H30  1  0.95929291  0.31988085  0.73089443  1  0  0.125734  0  0.942976  0  0  0.13472  0  1.002978  0  0  0.13833  0  1.001559  0  0.103661  0  0.115182  0.132119  0  1.00412  0
H  H31  1  0.82903343  0.63069410  0.36754324  1  0  0.095265  0  0.938353  0  0  0.103084  0  1.000349  0  0  0.105816  0  0.997988  0  0.147142  0  0.122805  0.101055  0  1.002131  0
H  H32  1  0.17097043  0.36930488  0.63245537  1  0  0.095242  0  0.938428  0  0  0.103074  0  1.00041  0  0  0.105806  0  0.99805  0  0.146962  0  0.122793  0.101046  0  1.002191  0
H  H33  1  0.59157260  0.90513584  0.33602071  1  0  0.062384  0  0.968642  0  0  0.074351  0  1.028675  0  0  0.07637  0  1.027027  0  0.069968  0  0.111772  0.072857  0  1.029959  0
H  H34  1  0.40842769  0.09486395  0.66398264  1  0  0.062376  0  0.968678  0  0  0.074349  0  1.0287  0  0  0.076365  0  1.027053  0  0.069958  0  0.111793  0.072855  0  1.029981  0
H  H35  1  0.79184553  0.96920685  0.24103644  1  0  0.111245  0  0.936468  0  0  0.127456  0  0.984949  0  0  0.130376  0  0.984084  0  0.116224  0  0.116075  0.125361  0  0.985768  0
H  H36  1  0.20815456  0.03079132  0.75896388  1  0  0.11121  0  0.936455  0  0  0.127466  0  0.98488  0  0  0.130385  0  0.984014  0  0.116186  0  0.116085  0.12537  0  0.985699  0
H  H37  1  0.41663050  0.93018729  0.39698454  1  0  0.062397  0  0.971935  0  0  0.074366  0  1.032494  0  0  0.076307  0  1.030807  0  0.06559  0  0.111525  0.072875  0  1.033847  0
H  H38  1  0.58336734  0.06981249  0.60301513  1  0  0.062369  0  0.971935  0  0  0.074333  0  1.0325  0  0  0.076275  0  1.030812  0  0.065577  0  0.111508  0.072842  0  1.033854  0
H  H39  1  0.21152558  0.05986381  0.41514386  1  0  0.127461  0  0.97433  0  0  0.135436  0  1.036023  0  0  0.139744  0  1.033355  0  0.174178  0  0.108773  0.132316  0  1.038074  0
H  H40  1  0.78847462  0.94013517  0.58485658  1  0  0.127499  0  0.974324  0  0  0.135459  0  1.036026  0  0  0.139767  0  1.033358  0  0.174159  0  0.108795  0.132338  0  1.038078  0
H  H41  1  0.96859720  0.84470710  0.57289234  1  0  0.108586  0  0.978998  0  0  0.117042  0  1.042212  0  0  0.119703  0  1.041945  0  0.094625  0  0.108399  0.115116  0  1.042522  0
H  H42  1  0.03140328  0.15529428  0.42710914  1  0  0.108602  0  0.978955  0  0  0.117066  0  1.04217  0  0  0.119727  0  1.041904  0  0.094617  0  0.108408  0.11514  0  1.042481  0
H  H43  1  0.19060727  0.72349175  0.54781974  1  0  0.096271  0  0.958511  0  0  0.10443  0  1.01868  0  0  0.107056  0  1.016428  0  0.160546  0  0.11842  0.102404  0  1.020468  0
H  H44  1  0.80939434  0.27650883  0.45218172  1  0  0.096299  0  0.95852  0  0  0.104489  0  1.018643  0  0  0.107114  0  1.016391  0  0.16055  0  0.118457  0.102462  0  1.020432  0
H  H45  1  0.30254066  0.51482863  0.49542811  1  0  0.429427  0  0.871855  0  0  0.397111  0  0.937939  0  0  0.40859  0  0.921256  0  0.655542  0  0.290118  0.388962  0  0.949763  0
H  H46  1  0.69745962  0.48517116  0.50457244  1  0  0.429426  0  0.871855  0  0  0.397124  0  0.937915  0  0  0.408602  0  0.921235  0  0.655543  0  0.290142  0.388974  0  0.949741  0
H  H47  1  0.40359224  0.57035122  0.58992299  1  0  0.440498  0  0.849934  0  0  0.411744  0  0.909153  0  0  0.422528  0  0.893492  0  0.670731  0  0.298199  0.404059  0  0.920287  0
H  H48  1  0.59640683  0.42964856  0.41007747  1  0  0.440501  0  0.849929  0  0  0.411744  0  0.909154  0  0  0.422528  0  0.893493  0  0.670733  0  0.2982  0.404059  0  0.920287  0
C  C49  1  0.42388566  0.20540441  0.04126871  1  0  0.618426  0  3.931414  0  0  0.572576  0  4.219728  0  0  0.606544  0  4.214466  0  1.534283  0  0.184888  0.54957  0  4.22244  0
C  C50  1  0.57611106  0.79459618  0.95873099  1  0  0.618435  0  3.931474  0  0  0.57258  0  4.219752  0  0  0.606548  0  4.21449  0  1.534153  0  0.184921  0.549575  0  4.222464  0
C  C51  1  0.38553572  0.31990893  0.06061239  1  0  -0.052707  0  3.804603  0  0  -0.026199  0  4.041265  0  0  -0.033794  0  4.06394  0  -0.031008  0  -0.022653  -0.021389  0  4.026023  0
C  C52  1  0.61446099  0.68009165  0.93938590  1  0  -0.052779  0  3.804675  0  0  -0.026172  0  4.041221  0  0  -0.033766  0  4.063894  0  -0.030979  0  -0.022685  -0.021365  0  4.025983  0
C  C53  1  0.43153785  0.38053025  0.15169336  1  0  -0.080397  0  3.688998  0  0  -0.122898  0  3.943656  0  0  -0.120966  0  3.961702  0  0.025763  0  -0.083712  -0.123941  0  3.931468  0
C  C54  1  0.56845725  0.61946712  0.84830508  1  0  -0.080321  0  3.688959  0  0  -0.122882  0  3.943621  0  0  -0.120952  0  3.961674  0  0.025755  0  -0.083651  -0.12392  0  3.931429  0
C  C55  1  0.42061722  0.54819900  0.26883812  1  0  0.644302  0  3.91513  0  0  0.596065  0  4.20067  0  0  0.630152  0  4.194996  0  1.566376  0  0.19749  0.572978  0  4.203621  0
C  C56  1  0.57938307  0.45180078  0.73116243  1  0  0.644272  0  3.915183  0  0  0.596063  0  4.200687  0  0  0.63015  0  4.195014  0  1.566451  0  0.197481  0.572975  0  4.203638  0
C  C57  1  0.38337127  0.48472259  0.17027315  1  0  -0.0355  0  3.767102  0  0  -0.008481  0  4.000065  0  0  -0.015663  0  4.022449  0  -0.06969  0  -0.01773  -0.003964  0  3.985083  0
C  C58  1  0.61662506  0.51527478  0.82972679  1  0  -0.035545  0  3.767154  0  0  -0.008523  0  4.000141  0  0  -0.015707  0  4.022525  0  -0.069652  0  -0.017761  -0.004005  0  3.985157  0
C  C59  1  0.29814307  0.53060866  0.09702551  1  0  -0.185841  0  3.70609  0  0  -0.221425  0  3.957984  0  0  -0.222867  0  3.975967  0  0.007536  0  -0.098128  -0.220164  0  3.945943  0
C  C60  1  0.70185478  0.46939112  0.90297485  1  0  -0.185847  0  3.706087  0  0  -0.221441  0  3.957991  0  0  -0.222882  0  3.975975  0  0.007645  0  -0.09816  -0.220179  0  3.945949  0
C  C61  1  0.25937960  0.47131779  0.00521839  1  0  0.268461  0  3.825002  0  0  0.262807  0  4.085452  0  0  0.271799  0  4.101658  0  0.44877  0  0.080713  0.256285  0  4.074545  0
C  C62  1  0.74061701  0.52868199  0.99478259  1  0  0.268449  0  3.824899  0  0  0.262801  0  4.085345  0  0  0.2718  0  4.101552  0  0.448227  0  0.080745  0.25628  0  4.074437  0
C  C63  1  0.29968482  0.36488904  0.98761844  1  0  -0.169224  0  3.697981  0  0  -0.206637  0  3.954646  0  0  -0.207151  0  3.97054  0  -0.006196  0  -0.094496  -0.205931  0  3.943871  0
C  C64  1  0.70031189  0.63511154  0.01238055  1  0  -0.169245  0  3.69805  0  0  -0.206694  0  3.95471  0  0  -0.207207  0  3.970602  0  -0.00625  0  -0.094552  -0.205979  0  3.943947  0
C  C65  1  0.15487089  0.62142268  0.94090305  1  0  0.056883  0  3.645559  0  0  -0.00921  0  3.909343  0  0  -0.00119  0  3.914074  0  0.393346  0  -0.057575  -0.014647  0  3.905983  0
C  C66  1  0.84512920  0.37857550  0.05909588  1  0  0.056976  0  3.645398  0  0  -0.009144  0  3.909252  0  0  -0.00112  0  3.913969  0  0.393275  0  -0.05756  -0.014582  0  3.905892  0
C  C67  1  0.06399736  0.64515090  0.84954149  1  0  0.086518  0  3.730019  0  0  0.104594  0  3.96617  0  0  0.106591  0  3.988455  0  -0.033832  0  -0.005224  0.103364  0  3.951043  0
C  C68  1  0.93600538  0.35484888  0.15045785  1  0  0.086467  0  3.730031  0  0  0.10454  0  3.966216  0  0  0.106534  0  3.988505  0  -0.033827  0  -0.005217  0.103311  0  3.951088  0
C  C69  1  0.96848737  0.73321254  0.85208942  1  0  -0.124526  0  3.760265  0  0  -0.141388  0  4.005613  0  0  -0.14722  0  4.02969  0  -0.02182  0  -0.094192  -0.137504  0  3.989215  0
C  C70  1  0.03151292  0.26678724  0.14791113  1  0  -0.124505  0  3.760352  0  0  -0.14137  0  4.005703  0  0  -0.147203  0  4.029782  0  -0.021828  0  -0.094195  -0.137486  0  3.989303  0
C  C71  1  0.87434089  0.75279133  0.76939521  1  0  -0.069142  0  3.766667  0  0  -0.092826  0  4.015641  0  0  -0.092282  0  4.037465  0  -0.082503  0  -0.088647  -0.092826  0  4.000702  0
C  C72  1  0.12565940  0.24720845  0.23060534  1  0  -0.069215  0  3.766729  0  0  -0.092908  0  4.015697  0  0  -0.092365  0  4.03752  0  -0.082518  0  -0.088692  -0.092907  0  4.000757  0
C  C73  1  0.87295742  0.68342740  0.68292481  1  0  -0.083387  0  3.785571  0  0  -0.061244  0  4.02108  0  0  -0.070999  0  4.046119  0  -0.029748  0  -0.028292  -0.054969  0  4.004196  0
C  C74  1  0.12704042  0.31657238  0.31707556  1  0  -0.083439  0  3.785548  0  0  -0.061285  0  4.021051  0  0  -0.071034  0  4.046081  0  -0.029757  0  -0.02827  -0.05501  0  4.004168  0
C  C75  1  0.97421992  0.59792556  0.67960111  1  0  -0.054776  0  3.734912  0  0  -0.077845  0  3.981712  0  0  -0.076798  0  4.001842  0  -0.012228  0  -0.08109  -0.078206  0  3.967978  0
C  C76  1  0.02577915  0.40207423  0.32039865  1  0  -0.054783  0  3.734903  0  0  -0.07786  0  3.981709  0  0  -0.07681  0  4.00184  0  -0.01223  0  -0.081113  -0.078221  0  3.967977  0
C  C77  1  0.07032039  0.57954080  0.76211435  1  0  -0.108159  0  3.718744  0  0  -0.128896  0  3.968733  0  0  -0.132763  0  3.988681  0  -0.021657  0  -0.090315  -0.12639  0  3.955211  0
C  C78  1  0.92967990  0.42045899  0.23788550  1  0  -0.108127  0  3.718693  0  0  -0.128898  0  3.96868  0  0  -0.132764  0  3.988626  0  -0.021649  0  -0.090318  -0.126392  0  3.955159  0
C  C79  1  0.75553863  0.69622395  0.59758121  1  0  0.632483  0  3.93229  0  0  0.583676  0  4.22305  0  0  0.617818  0  4.217476  0  1.527684  0  0.192398  0.560579  0  4.225905  0
C  C80  1  0.24446044  0.30377583  0.40241925  1  0  0.632552  0  3.932219  0  0  0.583736  0  4.22298  0  0  0.617877  0  4.217407  0  1.527687  0  0.192411  0.56064  0  4.225836  0
C  C81  1  0.15883300  0.98586396  0.08888025  1  0  0.121002  0  3.727427  0  0  0.092179  0  3.977606  0  0  0.098444  0  3.997289  0  0.464583  0  0.046635  0.088187  0  3.964152  0
C  C82  1  0.84116768  0.01413904  0.91112146  1  0  0.120964  0  3.727427  0  0  0.092162  0  3.977608  0  0  0.098427  0  3.997293  0  0.464717  0  0.046617  0.088171  0  3.964154  0
C  C83  1  0.03566030  0.95168472  0.13765003  1  0  -0.142359  0  3.690916  0  0  -0.16208  0  3.939477  0  0  -0.168434  0  3.958953  0  -0.020599  0  -0.072271  -0.158039  0  3.92646  0
C  C84  1  0.96433999  0.04831506  0.86234913  1  0  -0.142338  0  3.690963  0  0  -0.162041  0  3.939526  0  0  -0.168396  0  3.959004  0  -0.020693  0  -0.072247  -0.158  0  3.926506  0
C  C85  1  0.06039606  0.86676625  0.18945864  1  0  0.097583  0  3.747906  0  0  0.108261  0  3.977958  0  0  0.112346  0  3.9992  0  -0.034742  0  0.014039  0.105701  0  3.963454  0
C  C86  1  0.93960535  0.13323273  0.81054049  1  0  0.097576  0  3.747969  0  0  0.10825  0  3.978047  0  0  0.112335  0  3.999291  0  -0.034772  0  0.01404  0.10569  0  3.963541  0
C  C87  1  0.20988869  0.81911802  0.18755085  1  0  -0.170273  0  3.687663  0  0  -0.188  0  3.936165  0  0  -0.195605  0  3.955656  0  -0.096762  0  -0.082951  -0.183065  0  3.92315  0
C  C88  1  0.79011282  0.18088176  0.81244839  1  0  -0.170317  0  3.687721  0  0  -0.188051  0  3.936236  0  0  -0.195658  0  3.955728  0  -0.096757  0  -0.082953  -0.183116  0  3.923221  0
C  C89  1  0.32519895  0.85699250  0.13533614  1  0  0.127676  0  3.715894  0  0  0.099002  0  3.965177  0  0  0.105411  0  3.984507  0  0.503247  0  0.046246  0.094869  0  3.952036  0
C  C90  1  0.67480388  0.14300809  0.86466261  1  0  0.127694  0  3.715875  0  0  0.099034  0  3.965157  0  0  0.105447  0  3.984488  0  0.503238  0  0.046259  0.094902  0  3.952016  0
C  C91  1  0.93607781  0.83030968  0.24563028  1  0  0.094295  0  3.7503  0  0  0.10631  0  3.982376  0  0  0.109769  0  4.003613  0  -0.038292  0  0.01448  0.104127  0  3.967891  0
C  C92  1  0.06392248  0.16969010  0.75436888  1  0  0.094301  0  3.750308  0  0  0.106297  0  3.98242  0  0  0.109755  0  4.00366  0  -0.038163  0  0.014458  0.104114  0  3.967934  0
C  C93  1  0.94377613  0.73339148  0.28218436  1  0  -0.142663  0  3.653457  0  0  -0.161129  0  3.90016  0  0  -0.167905  0  3.919992  0  0.028977  0  -0.070594  -0.156767  0  3.886936  0
C  C94  1  0.05622539  0.26660830  0.71781558  1  0  -0.142665  0  3.653501  0  0  -0.161125  0  3.900215  0  0  -0.167897  0  3.920045  0  0.028951  0  -0.070597  -0.156763  0  3.88699  0
C  C95  1  0.82539218  0.70438640  0.33675265  1  0  0.134513  0  3.693165  0  0  0.10331  0  3.948526  0  0  0.110161  0  3.966583  0  0.442285  0  0.050251  0.098818  0  3.936286  0
C  C96  1  0.17460557  0.29561258  0.66324621  1  0  0.134551  0  3.693264  0  0  0.103329  0  3.948627  0  0  0.110179  0  3.966685  0  0.442541  0  0.050288  0.098838  0  3.936386  0
C  C97  1  0.69259611  0.85684726  0.32009480  1  0  0.12124  0  3.752665  0  0  0.090865  0  4.010271  0  0  0.096765  0  4.029936  0  0.447807  0  0.042836  0.087096  0  3.996747  0
C  C98  1  0.30740418  0.14315253  0.67990715  1  0  0.121247  0  3.752799  0  0  0.090855  0  4.010424  0  0  0.096757  0  4.030089  0  0.447231  0  0.0428  0.087085  0  3.9969  0
C  C99  1  0.80576951  0.89261292  0.26587300  1  0  -0.140256  0  3.699511  0  0  -0.161888  0  3.949254  0  0  -0.168052  0  3.969228  0  0.016386  0  -0.07543  -0.157944  0  3.935828  0
C  C100  1  0.19423201  0.10738686  0.73412974  1  0  -0.140228  0  3.699456  0  0  -0.161877  0  3.949199  0  0  -0.16804  0  3.969171  0  0.016736  0  -0.075412  -0.157933  0  3.935774  0
C  C101  1  0.31521491  0.91313699  0.43547228  1  0  0.125127  0  3.744765  0  0  0.09401  0  4.000335  0  0  0.100152  0  4.020669  0  0.461168  0  0.042731  0.090089  0  3.986354  0
C  C102  1  0.68478293  0.08686279  0.56452809  1  0  0.125151  0  3.744768  0  0  0.094026  0  4.000339  0  0  0.100168  0  4.020676  0  0.461154  0  0.042733  0.090105  0  3.986357  0
C  C103  1  0.19687919  0.98612234  0.44521653  1  0  -0.16175  0  3.688486  0  0  -0.181069  0  3.938761  0  0  -0.188709  0  3.959686  0  -0.059996  0  -0.082626  -0.176068  0  3.924646  0
C  C104  1  0.80311978  0.01387664  0.55478312  1  0  -0.161784  0  3.688549  0  0  -0.181094  0  3.938781  0  0  -0.188732  0  3.959699  0  -0.05998  0  -0.082665  -0.176096  0  3.924674  0
C  C105  1  0.06564601  0.96319415  0.49443464  1  0  0.090092  0  3.767932  0  0  0.099761  0  4.003449  0  0  0.103256  0  4.025794  0  0.016314  0  0.011607  0.097584  0  3.988148  0
C  C106  1  0.93435551  0.03680563  0.50556670  1  0  0.089947  0  3.768  0  0  0.099693  0  4.003447  0  0  0.103192  0  4.025785  0  -0.02643  0  0.011624  0.097517  0  3.988145  0
C  C107  1  0.06515655  0.86756227  0.53297405  1  0  -0.150027  0  3.69011  0  0  -0.168892  0  3.937952  0  0  -0.17605  0  3.959609  0  -0.015556  0  -0.0793  -0.164275  0  3.923417  0
C  C108  1  0.93484374  0.13243751  0.46702720  1  0  -0.149982  0  3.690064  0  0  -0.168899  0  3.937936  0  0  -0.176058  0  3.959593  0  -0.015412  0  -0.079307  -0.164283  0  3.923402  0
C  C109  1  0.18892553  0.79899115  0.51975741  1  0  0.132929  0  3.686238  0  0  0.105681  0  3.929594  0  0  0.112186  0  3.94845  0  0.453362  0  0.050316  0.10148  0  3.91676  0
C  C110  1  0.81107353  0.20100863  0.48024375  1  0  0.132872  0  3.686267  0  0  0.105616  0  3.929628  0  0  0.11212  0  3.948485  0  0.453395  0  0.050298  0.101416  0  3.916792  0
N  N111  1  0.30121126  0.93944266  0.08713296  1  0  -0.324662  0  3.261454  0  0  -0.246523  0  3.519218  0  0  -0.266359  0  3.538231  0  -1.234088  0  -0.330075  -0.233017  0  3.505977  0
N  N112  1  0.69878790  0.06055793  0.91286621  1  0  -0.324661  0  3.261413  0  0  -0.246538  0  3.519187  0  0  -0.266374  0  3.538196  0  -1.234091  0  -0.330074  -0.233033  0  3.505946  0
N  N113  1  0.70080433  0.76473649  0.35588411  1  0  -0.321485  0  3.219889  0  0  -0.250179  0  3.485454  0  0  -0.268877  0  3.504537  0  -1.219871  0  -0.316643  -0.23741  0  3.472189  0
N  N114  1  0.29919719  0.23526329  0.64411863  1  0  -0.321487  0  3.220028  0  0  -0.250176  0  3.485599  0  0  -0.268875  0  3.504685  0  -1.219827  0  -0.316642  -0.237407  0  3.472334  0
N  N115  1  0.31281116  0.82047816  0.47085992  1  0  -0.320708  0  3.225554  0  0  -0.244054  0  3.487677  0  0  -0.263709  0  3.50667  0  -1.228229  0  -0.320532  -0.230638  0  3.474384  0
N  N116  1  0.68718913  0.17952162  0.52914133  1  0  -0.320676  0  3.225573  0  0  -0.244028  0  3.487712  0  0  -0.263684  0  3.506707  0  -1.228256  0  -0.320545  -0.230612  0  3.474417  0
O  O117  1  0.53327570  0.17126128  0.09826195  1  0  -0.626131  0  1.904597  0  0  -0.567309  0  2.125366  0  0  -0.594603  0  2.115891  0  -1.163508  0  -0.341071  -0.548171  0  2.131152  0
O  O118  1  0.46672112  0.82874010  0.90173856  1  0  -0.626134  0  1.904523  0  0  -0.567322  0  2.1253  0  0  -0.594616  0  2.115823  0  -1.163538  0  -0.341095  -0.548185  0  2.131084  0
O  O119  1  0.34443376  0.14499734  0.96676717  1  0  -0.663268  0  1.940295  0  0  -0.604709  0  2.185829  0  0  -0.633501  0  2.176933  0  -1.173896  0  -0.346495  -0.584491  0  2.191166  0
O  O120  1  0.65556643  0.85500164  0.03323187  1  0  -0.663242  0  1.940352  0  0  -0.604696  0  2.185891  0  0  -0.633487  0  2.176998  0  -1.173765  0  -0.346491  -0.584477  0  2.191224  0
O  O121  1  0.52439664  0.51623852  0.33028252  1  0  -0.659753  0  1.995503  0  0  -0.595987  0  2.226039  0  0  -0.624163  0  2.21656  0  -1.194165  0  -0.325641  -0.576196  0  2.231838  0
O  O122  1  0.47560374  0.48376207  0.66971744  1  0  -0.659747  0  1.995519  0  0  -0.595983  0  2.22603  0  0  -0.62416  0  2.21655  0  -1.194207  0  -0.325634  -0.576196  0  2.231837  0
O  O123  1  0.34871256  0.63443829  0.28814880  1  0  -0.655907  0  1.976322  0  0  -0.593371  0  2.215747  0  0  -0.62279  0  2.2075  0  -1.175256  0  -0.337118  -0.572559  0  2.220472  0
O  O124  1  0.65128905  0.36556229  0.71185196  1  0  -0.655884  0  1.976332  0  0  -0.593365  0  2.215755  0  0  -0.622779  0  2.207497  0  -1.175259  0  -0.33711  -0.572553  0  2.220479  0
O  O125  1  0.17849297  0.50918184  0.92908650  1  0  -0.284208  0  2.332895  0  0  -0.210624  0  2.564537  0  0  -0.22885  0  2.568026  0  -1.079334  0  -0.17686  -0.197689  0  2.56174  0
O  O126  1  0.82150845  0.49081714  0.07091333  1  0  -0.284181  0  2.332739  0  0  -0.210584  0  2.564384  0  0  -0.228832  0  2.567889  0  -1.078906  0  -0.176836  -0.197648  0  2.561587  0
O  O127  1  0.73614093  0.62021420  0.52523301  1  0  -0.674554  0  2.052076  0  0  -0.60302  0  2.288667  0  0  -0.63351  0  2.278888  0  -1.171309  0  -0.330903  -0.581611  0  2.294568  0
O  O128  1  0.26385936  0.37978558  0.47476754  1  0  -0.674587  0  2.052051  0  0  -0.603035  0  2.288631  0  0  -0.633526  0  2.278852  0  -1.171314  0  -0.3309  -0.581622  0  2.294524  0
O  O129  1  0.67573189  0.77932650  0.59800964  1  0  -0.640235  0  1.908005  0  0  -0.58587  0  2.134094  0  0  -0.611783  0  2.124068  0  -1.17893  0  -0.338294  -0.567583  0  2.14021  0
O  O130  1  0.32426849  0.22067408  0.40199103  1  0  -0.640246  0  1.907996  0  0  -0.585885  0  2.134092  0  0  -0.611797  0  2.124066  0  -1.17892  0  -0.338309  -0.567601  0  2.140213  0
O  O131  1  0.34371795  0.58783003  0.53024998  1  0  -0.833098  0  1.844399  0  0  -0.768538  0  2.025797  0  0  -0.791193  0  1.991478  0  -1.289336  0  -0.585015  -0.752501  0  2.049762  0
O  O132  1  0.65628234  0.41216975  0.46974987  1  0  -0.833097  0  1.844383  0  0  -0.768537  0  2.025767  0  0  -0.791193  0  1.991448  0  -1.289334  0  -0.585028  -0.7525  0  2.049732  0
