# generated using pymatgen
data_GaH7C4
_symmetry_space_group_name_H-M   'P 1'
_cell_length_a   10.26004103
_cell_length_b   10.26005948
_cell_length_c   15.76040465
_cell_angle_alpha   76.87433005
_cell_angle_beta   76.87460214
_cell_angle_gamma   61.58006287
_symmetry_Int_Tables_number   1
_chemical_formula_structural   GaH7C4
_chemical_formula_sum   'Ga12 H84 C48'
_cell_volume   1407.22546393
_cell_formula_units_Z   12
loop_
 _symmetry_equiv_pos_site_id
 _symmetry_equiv_pos_as_xyz
  1  'x, y, z'
loop_
 _atom_site_type_symbol
 _atom_site_label
 _atom_site_symmetry_multiplicity
 _atom_site_fract_x
 _atom_site_fract_y
 _atom_site_fract_z
 _atom_site_occupancy
 _atom_site_hle17_bader_spin_density
 _atom_site_hle17_ddec_charge
 _atom_site_hle17_ddec_spin_density
 _atom_site_hle17_ddec_sum_bond_order
 _atom_site_hle17_magmom
 _atom_site_hse06_10hf_bader_spin_density
 _atom_site_hse06_10hf_ddec_charge
 _atom_site_hse06_10hf_ddec_spin_density
 _atom_site_hse06_10hf_ddec_sum_bond_order
 _atom_site_hse06_10hf_magmom
 _atom_site_hse06_bader_spin_density
 _atom_site_hse06_ddec_charge
 _atom_site_hse06_ddec_spin_density
 _atom_site_hse06_ddec_sum_bond_order
 _atom_site_hse06_magmom
 _atom_site_pbe_bader_spin_density
 _atom_site_pbe_cm5_charge
 _atom_site_pbe_ddec_charge
 _atom_site_pbe_ddec_spin_density
 _atom_site_pbe_ddec_sum_bond_order
 _atom_site_pbe_magmom
Ga  Ga0  1  0.96821498  0.68624541  0.67641254  1  0  0.86638  0  2.554014  0  0  0.748067  0  2.951096  0  0  0.774781  0  2.943825  0  0  0.254463  0.730221  0  2.955369  0
Ga  Ga1  1  0.31375408  0.03178688  0.82358803  1  0  0.866467  0  2.553974  0  0  0.748149  0  2.951077  0  0  0.774863  0  2.943806  0  0  0.254504  0.730304  0  2.955353  0
Ga  Ga2  1  0.03178726  0.31375484  0.32358866  1  0  0.866445  0  2.553955  0  0  0.748125  0  2.951055  0  0  0.774865  0  2.943735  0  0  0.254501  0.73028  0  2.955331  0
Ga  Ga3  1  0.68624468  0.96821225  0.17641256  1  0  0.866476  0  2.553936  0  0  0.748157  0  2.951053  0  0  0.774875  0  2.943769  0  0  0.254499  0.730309  0  2.95533  0
Ga  Ga4  1  0.88027946  0.63268104  0.84982742  1  0  0.853518  0  2.576579  0  0  0.734605  0  2.974504  0  0  0.760825  0  2.967889  0  0  0.250753  0.718624  0  2.976258  0
Ga  Ga5  1  0.36731872  0.11971964  0.65017219  1  0  0.853542  0  2.576522  0  0  0.734623  0  2.974464  0  0  0.760823  0  2.967888  0  0  0.250762  0.718634  0  2.976235  0
Ga  Ga6  1  0.11971979  0.36731922  0.15017230  1  0  0.853484  0  2.576683  0  0  0.734559  0  2.974615  0  0  0.76076  0  2.968039  0  0  0.250755  0.718558  0  2.976408  0
Ga  Ga7  1  0.63268003  0.88028173  0.34982872  1  0  0.85354  0  2.576584  0  0  0.734629  0  2.974506  0  0  0.760836  0  2.967915  0  0  0.250766  0.718632  0  2.97629  0
Ga  Ga8  1  0.71982110  0.23701451  0.85200332  1  0  0.919037  0  2.473297  0  0  0.799852  0  2.858982  0  0  0.829066  0  2.848569  0  0  0.284203  0.780974  0  2.864237  0
Ga  Ga9  1  0.76298543  0.28017851  0.64799466  1  0  0.918988  0  2.473338  0  0  0.799802  0  2.859029  0  0  0.82901  0  2.84863  0  0  0.284206  0.780926  0  2.864285  0
Ga  Ga10  1  0.28017966  0.76298463  0.14799571  1  0  0.919038  0  2.473266  0  0  0.799859  0  2.858936  0  0  0.829074  0  2.848523  0  0  0.284214  0.780983  0  2.864195  0
Ga  Ga11  1  0.23701533  0.71982063  0.35200437  1  0  0.919057  0  2.473258  0  0  0.799878  0  2.858949  0  0  0.82909  0  2.848536  0  0  0.284225  0.781002  0  2.864204  0
H  H12  1  0.62592154  0.80751011  0.71164049  1  0  0.061937  0  0.959189  0  0  0.078807  0  1.020454  0  0  0.080308  0  1.019693  0  0  0.103758  0.077777  0  1.020786  0
H  H13  1  0.19248477  0.37408216  0.78835846  1  0  0.061926  0  0.959235  0  0  0.07881  0  1.020478  0  0  0.0803  0  1.019732  0  0  0.103764  0.07778  0  1.020809  0
H  H14  1  0.37408173  0.19248792  0.28835834  1  0  0.061943  0  0.959226  0  0  0.078825  0  1.020471  0  0  0.080318  0  1.019717  0  0  0.103772  0.077793  0  1.020803  0
H  H15  1  0.80751099  0.62591921  0.21164097  1  0  0.061917  0  0.959238  0  0  0.078791  0  1.020497  0  0  0.080289  0  1.019735  0  0  0.103756  0.077762  0  1.020828  0
H  H16  1  0.46932509  0.25244144  0.76856655  1  0  0.060663  0  0.967663  0  0  0.076283  0  1.030105  0  0  0.077862  0  1.029391  0  0  0.103014  0.075311  0  1.030074  0
H  H17  1  0.74755787  0.53067436  0.73143049  1  0  0.060597  0  0.967741  0  0  0.076233  0  1.030172  0  0  0.077809  0  1.029467  0  0  0.102978  0.075261  0  1.03014  0
H  H18  1  0.53067668  0.74755771  0.23143234  1  0  0.060652  0  0.967643  0  0  0.076263  0  1.030097  0  0  0.077837  0  1.029394  0  0  0.103011  0.075289  0  1.030066  0
H  H19  1  0.25243992  0.46932254  0.26856802  1  0  0.060618  0  0.96771  0  0  0.076253  0  1.03014  0  0  0.077828  0  1.029435  0  0  0.103  0.075281  0  1.030108  0
H  H20  1  0.92346031  0.92631600  0.79350438  1  0  0.063628  0  0.959697  0  0  0.078692  0  1.023829  0  0  0.08027  0  1.023181  0  0  0.103064  0.078186  0  1.022644  0
H  H21  1  0.07368300  0.07653990  0.70649350  1  0  0.063666  0  0.959648  0  0  0.078715  0  1.023805  0  0  0.080294  0  1.023154  0  0  0.103054  0.078207  0  1.022619  0
H  H22  1  0.07654245  0.07368315  0.20649500  1  0  0.063643  0  0.959696  0  0  0.078694  0  1.023842  0  0  0.080272  0  1.023193  0  0  0.103059  0.078186  0  1.022657  0
H  H23  1  0.92631625  0.92345585  0.29350941  1  0  0.063739  0  0.95962  0  0  0.078768  0  1.023793  0  0  0.080346  0  1.023144  0  0  0.103092  0.078261  0  1.022606  0
H  H24  1  0.23456975  0.65245940  0.61214357  1  0  0.148262  0  0.997696  0  0  0.170353  0  1.049243  0  0  0.172644  0  1.050352  0  0  0.084027  0.168341  0  1.049159  0
H  H25  1  0.34753834  0.76543394  0.88785904  1  0  0.148299  0  0.997713  0  0  0.170394  0  1.049245  0  0  0.172683  0  1.050356  0  0  0.084031  0.168383  0  1.049161  0
H  H26  1  0.76543349  0.34753861  0.38785845  1  0  0.148247  0  0.997726  0  0  0.170343  0  1.049264  0  0  0.172633  0  1.050377  0  0  0.084018  0.168332  0  1.049181  0
H  H27  1  0.65246042  0.23456519  0.11214028  1  0  0.148319  0  0.99768  0  0  0.170412  0  1.049203  0  0  0.172702  0  1.050314  0  0  0.084045  0.168402  0  1.049118  0
H  H28  1  0.22265671  0.60544094  0.72832413  1  0  0.140001  0  1.011757  0  0  0.160574  0  1.068487  0  0  0.162407  0  1.069943  0  0  0.081177  0.159167  0  1.067878  0
H  H29  1  0.39455304  0.77734350  0.77167956  1  0  0.139995  0  1.011725  0  0  0.160585  0  1.06844  0  0  0.162416  0  1.069896  0  0  0.081184  0.159178  0  1.06783  0
H  H30  1  0.77734405  0.39455369  0.27167935  1  0  0.140025  0  1.011711  0  0  0.160605  0  1.068428  0  0  0.162435  0  1.069886  0  0  0.081189  0.1592  0  1.067817  0
H  H31  1  0.60544522  0.22265675  0.22831967  1  0  0.140046  0  1.011694  0  0  0.160626  0  1.068412  0  0  0.162457  0  1.069869  0  0  0.0812  0.15922  0  1.067802  0
H  H32  1  0.14491479  0.79568242  0.68064110  1  0  0.135479  0  1.010798  0  0  0.154841  0  1.07227  0  0  0.156677  0  1.073499  0  0  0.079062  0.153443  0  1.071608  0
H  H33  1  0.20431156  0.85508989  0.81936343  1  0  0.135529  0  1.01083  0  0  0.154904  0  1.072264  0  0  0.156741  0  1.073492  0  0  0.079081  0.153505  0  1.071607  0
H  H34  1  0.85508845  0.20431333  0.31936314  1  0  0.135494  0  1.010807  0  0  0.154867  0  1.07225  0  0  0.156703  0  1.07348  0  0  0.079067  0.153469  0  1.071592  0
H  H35  1  0.79568570  0.14491036  0.18063658  1  0  0.135515  0  1.010802  0  0  0.154895  0  1.072232  0  0  0.156731  0  1.073461  0  0  0.079075  0.153497  0  1.071575  0
H  H36  1  0.88806085  0.78299268  0.52286932  1  0  0.141872  0  1.005217  0  0  0.164509  0  1.058838  0  0  0.166159  0  1.061084  0  0  0.083069  0.163093  0  1.057432  0
H  H37  1  0.21700881  0.11194210  0.97713053  1  0  0.141853  0  1.005235  0  0  0.16448  0  1.058867  0  0  0.166132  0  1.061111  0  0  0.083059  0.163062  0  1.057463  0
H  H38  1  0.11194187  0.21700868  0.47713292  1  0  0.141828  0  1.005268  0  0  0.164454  0  1.058905  0  0  0.166109  0  1.061147  0  0  0.083053  0.163034  0  1.057502  0
H  H39  1  0.78298995  0.88805928  0.02286847  1  0  0.141855  0  1.005232  0  0  0.164483  0  1.058864  0  0  0.166137  0  1.061106  0  0  0.083062  0.163065  0  1.057461  0
H  H40  1  0.78536806  0.68575345  0.58629764  1  0  0.13616  0  1.012787  0  0  0.154463  0  1.073422  0  0  0.156216  0  1.075126  0  0  0.079173  0.152803  0  1.072823  0
H  H41  1  0.31424897  0.21463390  0.91370158  1  0  0.136144  0  1.012741  0  0  0.15444  0  1.073395  0  0  0.156194  0  1.075097  0  0  0.079165  0.152781  0  1.072795  0
H  H42  1  0.21463368  0.31424792  0.41370348  1  0  0.136134  0  1.01274  0  0  0.15444  0  1.073378  0  0  0.156192  0  1.075085  0  0  0.079171  0.152781  0  1.072779  0
H  H43  1  0.68575080  0.78536748  0.08629664  1  0  0.136153  0  1.012731  0  0  0.154468  0  1.073353  0  0  0.156221  0  1.075057  0  0  0.079167  0.152806  0  1.072755  0
H  H44  1  0.97540072  0.58350193  0.54108080  1  0  0.138689  0  1.010821  0  0  0.159773  0  1.066302  0  0  0.161911  0  1.067786  0  0  0.080452  0.158077  0  1.065407  0
H  H45  1  0.41650034  0.02460000  0.95891973  1  0  0.138704  0  1.010822  0  0  0.15979  0  1.066298  0  0  0.161929  0  1.067781  0  0  0.080465  0.158094  0  1.065403  0
H  H46  1  0.02460051  0.41650056  0.45891959  1  0  0.138687  0  1.010842  0  0  0.159773  0  1.066314  0  0  0.161911  0  1.0678  0  0  0.080457  0.158079  0  1.065419  0
H  H47  1  0.58349892  0.97540025  0.04108063  1  0  0.138667  0  1.010869  0  0  0.159753  0  1.066342  0  0  0.161891  0  1.067827  0  0  0.080441  0.158057  0  1.065447  0
H  H48  1  0.98574976  0.70056637  0.95671652  1  0  0.141255  0  1.007124  0  0  0.161486  0  1.063947  0  0  0.163766  0  1.06506  0  0  0.079884  0.159572  0  1.063792  0
H  H49  1  0.29943112  0.01424932  0.54328348  1  0  0.141237  0  1.007107  0  0  0.16147  0  1.063934  0  0  0.163752  0  1.065045  0  0  0.079874  0.159557  0  1.063777  0
H  H50  1  0.01424850  0.29943163  0.04328430  1  0  0.141243  0  1.007103  0  0  0.161475  0  1.063925  0  0  0.163757  0  1.065035  0  0  0.079885  0.159561  0  1.063768  0
H  H51  1  0.70056712  0.98575317  0.45671670  1  0  0.141246  0  1.00711  0  0  0.161474  0  1.063942  0  0  0.163754  0  1.065054  0  0  0.079878  0.15956  0  1.063785  0
H  H52  1  0.11300087  0.67030156  0.85737286  1  0  0.142941  0  1.020514  0  0  0.1628  0  1.078138  0  0  0.164658  0  1.079985  0  0  0.078869  0.161173  0  1.077477  0
H  H53  1  0.32969878  0.88699752  0.64262736  1  0  0.142971  0  1.020553  0  0  0.162836  0  1.078155  0  0  0.164692  0  1.080004  0  0  0.078891  0.161208  0  1.077497  0
H  H54  1  0.88699838  0.32969868  0.14262813  1  0  0.142919  0  1.020515  0  0  0.162779  0  1.078139  0  0  0.164635  0  1.079987  0  0  0.078864  0.161153  0  1.077474  0
H  H55  1  0.67030047  0.11300273  0.35737300  1  0  0.143005  0  1.020537  0  0  0.162868  0  1.078136  0  0  0.164723  0  1.079987  0  0  0.078908  0.161241  0  1.077475  0
H  H56  1  0.10626336  0.51562277  0.93290539  1  0  0.141369  0  1.003448  0  0  0.16343  0  1.058743  0  0  0.165169  0  1.060593  0  0  0.082181  0.161988  0  1.058077  0
H  H57  1  0.48437580  0.89373768  0.56709495  1  0  0.141377  0  1.003458  0  0  0.16344  0  1.058747  0  0  0.165179  0  1.060596  0  0  0.082194  0.161999  0  1.05808  0
H  H58  1  0.89373590  0.48437748  0.06709433  1  0  0.141368  0  1.003408  0  0  0.163426  0  1.058709  0  0  0.165165  0  1.060559  0  0  0.082178  0.161984  0  1.058043  0
H  H59  1  0.51562244  0.10626481  0.43290587  1  0  0.14138  0  1.003405  0  0  0.163436  0  1.058703  0  0  0.165175  0  1.060553  0  0  0.082178  0.161994  0  1.058037  0
H  H60  1  0.70804267  0.54491540  0.96485506  1  0  0.143194  0  0.998429  0  0  0.165462  0  1.051009  0  0  0.167257  0  1.052952  0  0  0.083125  0.164029  0  1.050061  0
H  H61  1  0.45508318  0.29195989  0.53514599  1  0  0.143194  0  0.998465  0  0  0.165481  0  1.051015  0  0  0.167276  0  1.052959  0  0  0.083135  0.164048  0  1.050065  0
H  H62  1  0.29195156  0.45509156  0.03514442  1  0  0.143126  0  0.998403  0  0  0.165404  0  1.050987  0  0  0.1672  0  1.052928  0  0  0.083107  0.163972  0  1.050036  0
H  H63  1  0.54491556  0.70804146  0.46485619  1  0  0.143205  0  0.998394  0  0  0.165466  0  1.050981  0  0  0.167261  0  1.052925  0  0  0.083132  0.164034  0  1.05003  0
H  H64  1  0.61295232  0.65592546  0.87319763  1  0  0.141334  0  1.019346  0  0  0.161635  0  1.07749  0  0  0.162675  0  1.080779  0  0  0.080922  0.160578  0  1.07585  0
H  H65  1  0.34407604  0.38704510  0.62680341  1  0  0.14134  0  1.019359  0  0  0.161626  0  1.077521  0  0  0.162669  0  1.080808  0  0  0.080904  0.16057  0  1.075882  0
H  H66  1  0.38704593  0.34407928  0.12680033  1  0  0.141346  0  1.019301  0  0  0.161608  0  1.077517  0  0  0.162653  0  1.0808  0  0  0.080904  0.160553  0  1.075876  0
H  H67  1  0.65592470  0.61295402  0.37319817  1  0  0.141364  0  1.019327  0  0  0.161644  0  1.077495  0  0  0.162685  0  1.080785  0  0  0.080922  0.160587  0  1.075856  0
H  H68  1  0.63420607  0.74365604  0.95112370  1  0  0.140752  0  1.001021  0  0  0.162223  0  1.056538  0  0  0.163934  0  1.05887  0  0  0.081038  0.160859  0  1.055066  0
H  H69  1  0.25634388  0.36579634  0.54887737  1  0  0.140783  0  1.001018  0  0  0.162257  0  1.056525  0  0  0.163969  0  1.058856  0  0  0.081073  0.160893  0  1.055053  0
H  H70  1  0.36579168  0.25634982  0.04887417  1  0  0.140706  0  1.001023  0  0  0.162188  0  1.056528  0  0  0.163899  0  1.058861  0  0  0.081027  0.160826  0  1.055055  0
H  H71  1  0.74365585  0.63420501  0.45112530  1  0  0.140729  0  1.001042  0  0  0.162201  0  1.056556  0  0  0.163912  0  1.058889  0  0  0.081035  0.160838  0  1.055083  0
H  H72  1  0.52902876  0.46400992  0.92967320  1  0  0.14546  0  1.012761  0  0  0.16607  0  1.066896  0  0  0.168663  0  1.067577  0  0  0.080695  0.163868  0  1.067123  0
H  H73  1  0.53598770  0.47097142  0.57032563  1  0  0.145462  0  1.012744  0  0  0.166078  0  1.066877  0  0  0.168672  0  1.067556  0  0  0.080699  0.163877  0  1.067106  0
H  H74  1  0.47097649  0.53598810  0.07032726  1  0  0.145517  0  1.012658  0  0  0.166125  0  1.066796  0  0  0.168717  0  1.067476  0  0  0.080711  0.163923  0  1.067023  0
H  H75  1  0.46401458  0.52902662  0.42967271  1  0  0.145495  0  1.012701  0  0  0.166095  0  1.066852  0  0  0.168688  0  1.067533  0  0  0.080698  0.163893  0  1.067079  0
H  H76  1  0.43686444  0.40090471  0.87781099  1  0  0.139495  0  1.003216  0  0  0.158241  0  1.063069  0  0  0.16026  0  1.064177  0  0  0.078396  0.156643  0  1.062663  0
H  H77  1  0.59909685  0.56313206  0.62218712  1  0  0.139421  0  1.003324  0  0  0.15819  0  1.063143  0  0  0.160209  0  1.064251  0  0  0.078377  0.156593  0  1.062736  0
H  H78  1  0.56313779  0.59909553  0.12219084  1  0  0.139491  0  1.003258  0  0  0.158237  0  1.063103  0  0  0.160256  0  1.064209  0  0  0.078387  0.156639  0  1.062697  0
H  H79  1  0.40090544  0.43686599  0.37780995  1  0  0.139421  0  1.003305  0  0  0.158203  0  1.063115  0  0  0.160222  0  1.064225  0  0  0.07838  0.156604  0  1.062709  0
H  H80  1  0.52331637  0.51242191  0.81464736  1  0  0.14081  0  1.023297  0  0  0.16129  0  1.080672  0  0  0.162829  0  1.082802  0  0  0.080026  0.159767  0  1.07992  0
H  H81  1  0.48758291  0.47667859  0.68535109  1  0  0.1408  0  1.023236  0  0  0.16127  0  1.080631  0  0  0.162815  0  1.082755  0  0  0.080037  0.159753  0  1.079873  0
H  H82  1  0.47668386  0.48758058  0.18535317  1  0  0.140818  0  1.023341  0  0  0.1613  0  1.080711  0  0  0.162839  0  1.082842  0  0  0.080032  0.15978  0  1.079954  0
H  H83  1  0.51241936  0.52331945  0.31464661  1  0  0.140856  0  1.023333  0  0  0.161333  0  1.080705  0  0  0.162874  0  1.082834  0  0  0.080048  0.159813  0  1.079948  0
H  H84  1  0.93284257  0.21672910  0.92115314  1  0  0.145866  0  0.999736  0  0  0.166328  0  1.055464  0  0  0.167714  0  1.05832  0  0  0.082536  0.165529  0  1.053139  0
H  H85  1  0.78327301  0.06715380  0.57884665  1  0  0.145832  0  0.999809  0  0  0.166282  0  1.055547  0  0  0.16767  0  1.058402  0  0  0.082505  0.165485  0  1.05322  0
H  H86  1  0.06715468  0.78327114  0.07884814  1  0  0.145849  0  0.999749  0  0  0.16631  0  1.055483  0  0  0.167697  0  1.058338  0  0  0.082521  0.165512  0  1.053157  0
H  H87  1  0.21672876  0.93284534  0.42115224  1  0  0.145846  0  0.999766  0  0  0.166313  0  1.05549  0  0  0.167699  0  1.058346  0  0  0.082526  0.165517  0  1.053164  0
H  H88  1  0.96789871  0.03472536  0.90705679  1  0  0.139717  0  1.008111  0  0  0.159099  0  1.06724  0  0  0.160721  0  1.069232  0  0  0.079644  0.157624  0  1.06653  0
H  H89  1  0.96527732  0.03209792  0.59294387  1  0  0.139759  0  1.008  0  0  0.159116  0  1.067171  0  0  0.160733  0  1.069169  0  0  0.079656  0.157641  0  1.066461  0
H  H90  1  0.03210105  0.96527376  0.09294430  1  0  0.139727  0  1.008078  0  0  0.1591  0  1.067221  0  0  0.160722  0  1.069213  0  0  0.079635  0.157626  0  1.06651  0
H  H91  1  0.03472344  0.96790122  0.40705580  1  0  0.139745  0  1.008042  0  0  0.159115  0  1.067197  0  0  0.160732  0  1.069196  0  0  0.079655  0.15764  0  1.066486  0
H  H92  1  0.83441508  0.12433237  0.99488970  1  0  0.142364  0  1.014946  0  0  0.166131  0  1.067201  0  0  0.167819  0  1.06907  0  0  0.083205  0.165051  0  1.065859  0
H  H93  1  0.87567211  0.16557942  0.50510874  1  0  0.142343  0  1.014933  0  0  0.16615  0  1.067146  0  0  0.167839  0  1.069013  0  0  0.083219  0.165068  0  1.065804  0
H  H94  1  0.16558318  0.87566788  0.00511017  1  0  0.142393  0  1.014906  0  0  0.166161  0  1.067155  0  0  0.16785  0  1.069024  0  0  0.083223  0.165081  0  1.065814  0
H  H95  1  0.12433066  0.83441749  0.49489033  1  0  0.142383  0  1.014919  0  0  0.16615  0  1.06717  0  0  0.167839  0  1.069038  0  0  0.083225  0.16507  0  1.065828  0
C  C96  1  0.79150344  0.84767106  0.75059594  1  0  -0.403643  0  3.701046  0  0  -0.328061  0  3.95375  0  0  -0.345363  0  3.979042  0  0  -0.107575  -0.3167  0  3.935853  0
C  C97  1  0.15232715  0.20849760  0.74940312  1  0  -0.403637  0  3.7011  0  0  -0.328058  0  3.953808  0  0  -0.345357  0  3.979095  0  0  -0.107573  -0.316696  0  3.935911  0
C  C98  1  0.20849833  0.15232584  0.24940390  1  0  -0.403637  0  3.701158  0  0  -0.328058  0  3.953863  0  0  -0.345361  0  3.979157  0  0  -0.107587  -0.316697  0  3.935964  0
C  C99  1  0.84767411  0.79150267  0.25059505  1  0  -0.403585  0  3.701146  0  0  -0.328017  0  3.953858  0  0  -0.345318  0  3.979149  0  0  -0.107537  -0.316655  0  3.935961  0
C  C100  1  0.64656786  0.89051038  0.73182877  1  0  0.063691  0  3.760469  0  0  0.03504  0  3.99096  0  0  0.043116  0  4.01147  0  0  -0.052033  0.029463  0  3.97736  0
C  C101  1  0.10948714  0.35343687  0.76816955  1  0  0.06356  0  3.76063  0  0  0.034892  0  3.991148  0  0  0.042974  0  4.011646  0  0  -0.052123  0.029322  0  3.977531  0
C  C102  1  0.35343340  0.10949213  0.26816907  1  0  0.063584  0  3.760596  0  0  0.034918  0  3.991101  0  0  0.043001  0  4.011607  0  0  -0.052103  0.029346  0  3.977496  0
C  C103  1  0.89050861  0.64656449  0.23183051  1  0  0.063561  0  3.760552  0  0  0.034894  0  3.991082  0  0  0.042973  0  4.011592  0  0  -0.05211  0.029327  0  3.977461  0
C  C104  1  0.52808121  0.03479940  0.73702048  1  0  -0.405415  0  3.702161  0  0  -0.329773  0  3.954323  0  0  -0.347151  0  3.98007  0  0  -0.10849  -0.318754  0  3.936537  0
C  C105  1  0.96520031  0.47191736  0.76297707  1  0  -0.40527  0  3.702145  0  0  -0.329624  0  3.954281  0  0  -0.347008  0  3.980046  0  0  -0.108434  -0.318609  0  3.936508  0
C  C106  1  0.47192007  0.96520088  0.26297641  1  0  -0.405364  0  3.70217  0  0  -0.329735  0  3.954346  0  0  -0.347104  0  3.980072  0  0  -0.108426  -0.318708  0  3.936535  0
C  C107  1  0.03479695  0.52808288  0.23702294  1  0  -0.405264  0  3.702137  0  0  -0.329623  0  3.954292  0  0  -0.347002  0  3.980044  0  0  -0.108408  -0.3186  0  3.936496  0
C  C108  1  0.55901175  0.13886143  0.76396812  1  0  0.043837  0  3.799472  0  0  0.020094  0  4.026541  0  0  0.027183  0  4.04829  0  0  -0.055874  0.016617  0  4.010241  0
C  C109  1  0.86113102  0.44099592  0.73603159  1  0  0.043856  0  3.799209  0  0  0.020097  0  4.02629  0  0  0.02718  0  4.048043  0  0  -0.055825  0.016619  0  4.009989  0
C  C110  1  0.44098850  0.86113883  0.23603146  1  0  0.043866  0  3.799452  0  0  0.020129  0  4.026524  0  0  0.027214  0  4.048279  0  0  -0.05588  0.016656  0  4.010224  0
C  C111  1  0.13886424  0.55900432  0.26396870  1  0  0.043811  0  3.799392  0  0  0.020054  0  4.026469  0  0  0.027138  0  4.048223  0  0  -0.055921  0.016579  0  4.010167  0
C  C112  1  0.69845732  0.10320450  0.78600935  1  0  -0.406516  0  3.724894  0  0  -0.338774  0  3.982586  0  0  -0.356736  0  4.008526  0  0  -0.110489  -0.327043  0  3.963209  0
C  C113  1  0.89679541  0.30153960  0.71398857  1  0  -0.406417  0  3.724679  0  0  -0.338671  0  3.982359  0  0  -0.356634  0  4.008306  0  0  -0.110438  -0.326941  0  3.962981  0
C  C114  1  0.30154595  0.89679578  0.21398789  1  0  -0.406494  0  3.724787  0  0  -0.33875  0  3.982471  0  0  -0.356719  0  4.008432  0  0  -0.110474  -0.327022  0  3.963095  0
C  C115  1  0.10320387  0.69845392  0.28601275  1  0  -0.40649  0  3.724801  0  0  -0.338741  0  3.982466  0  0  -0.356701  0  4.008409  0  0  -0.110467  -0.327011  0  3.963089  0
C  C116  1  0.81312032  0.95661678  0.77764966  1  0  0.057392  0  3.780466  0  0  0.030237  0  4.012493  0  0  0.038119  0  4.033265  0  0  -0.054105  0.026254  0  3.99568  0
C  C117  1  0.04338273  0.18688459  0.72234915  1  0  0.057327  0  3.780677  0  0  0.030185  0  4.012694  0  0  0.038068  0  4.033462  0  0  -0.054129  0.026203  0  3.995882  0
C  C118  1  0.18687894  0.04338573  0.22234847  1  0  0.057406  0  3.780496  0  0  0.030268  0  4.012509  0  0  0.038149  0  4.033279  0  0  -0.054087  0.026285  0  3.995699  0
C  C119  1  0.95661704  0.81311230  0.27765162  1  0  0.057273  0  3.780707  0  0  0.030154  0  4.012718  0  0  0.038034  0  4.033493  0  0  -0.054151  0.026171  0  3.995907  0
C  C120  1  0.16259306  0.68368600  0.67450873  1  0  -0.721648  0  3.601662  0  0  -0.758719  0  3.834631  0  0  -0.772837  0  3.842499  0  0  -0.343748  -0.748421  0  3.830047  0
C  C121  1  0.31631005  0.83740852  0.82549615  1  0  -0.721789  0  3.601761  0  0  -0.7589  0  3.834718  0  0  -0.773016  0  3.842586  0  0  -0.343816  -0.748601  0  3.830133  0
C  C122  1  0.83740817  0.31631198  0.32549548  1  0  -0.721719  0  3.601702  0  0  -0.758806  0  3.834642  0  0  -0.772927  0  3.84252  0  0  -0.34379  -0.74851  0  3.830056  0
C  C123  1  0.68368721  0.16259173  0.17450386  1  0  -0.721849  0  3.601666  0  0  -0.758944  0  3.834629  0  0  -0.773062  0  3.842498  0  0  -0.343839  -0.748651  0  3.830045  0
C  C124  1  0.89565082  0.68452550  0.57099580  1  0  -0.71128  0  3.595903  0  0  -0.743841  0  3.824686  0  0  -0.759602  0  3.834643  0  0  -0.341582  -0.732943  0  3.817672  0
C  C125  1  0.31547653  0.10435112  0.92900366  1  0  -0.711243  0  3.595821  0  0  -0.743789  0  3.824606  0  0  -0.759554  0  3.834557  0  0  -0.341559  -0.732891  0  3.817595  0
C  C126  1  0.10435092  0.31547587  0.42900531  1  0  -0.711192  0  3.595858  0  0  -0.743743  0  3.824625  0  0  -0.759514  0  3.834579  0  0  -0.341554  -0.732845  0  3.817615  0
C  C127  1  0.68452223  0.89565027  0.07099471  1  0  -0.711247  0  3.595828  0  0  -0.743804  0  3.824592  0  0  -0.759574  0  3.834544  0  0  -0.341567  -0.732904  0  3.817582  0
C  C128  1  0.03793117  0.63055512  0.90363561  1  0  -0.721774  0  3.592108  0  0  -0.756044  0  3.820556  0  0  -0.770615  0  3.828717  0  0  -0.345987  -0.747055  0  3.815936  0
C  C129  1  0.36944368  0.96206840  0.59636397  1  0  -0.721793  0  3.592151  0  0  -0.756063  0  3.820587  0  0  -0.770633  0  3.828747  0  0  -0.346009  -0.747075  0  3.815965  0
C  C130  1  0.96206859  0.36944402  0.09636420  1  0  -0.721713  0  3.592051  0  0  -0.755981  0  3.820512  0  0  -0.770553  0  3.828674  0  0  -0.345975  -0.746989  0  3.815889  0
C  C131  1  0.63055507  0.03793297  0.40363630  1  0  -0.72184  0  3.592138  0  0  -0.756099  0  3.820584  0  0  -0.770668  0  3.828748  0  0  -0.346013  -0.747108  0  3.815962  0
C  C132  1  0.68832492  0.64548514  0.91625618  1  0  -0.707563  0  3.586601  0  0  -0.741163  0  3.811346  0  0  -0.75722  0  3.822904  0  0  -0.343298  -0.730528  0  3.803592  0
C  C133  1  0.35451481  0.31167727  0.58374517  1  0  -0.707601  0  3.586655  0  0  -0.741205  0  3.811377  0  0  -0.75726  0  3.822933  0  0  -0.343327  -0.730569  0  3.803621  0
C  C134  1  0.31166981  0.35451845  0.08374499  1  0  -0.707451  0  3.586645  0  0  -0.741015  0  3.811359  0  0  -0.757074  0  3.822917  0  0  -0.343242  -0.73038  0  3.8036  0
C  C135  1  0.64548642  0.68832522  0.41625649  1  0  -0.707587  0  3.586593  0  0  -0.741152  0  3.811335  0  0  -0.757209  0  3.822897  0  0  -0.343302  -0.730516  0  3.803578  0
C  C136  1  0.53408547  0.42296647  0.87003567  1  0  -0.733685  0  3.598412  0  0  -0.767362  0  3.830535  0  0  -0.781778  0  3.837321  0  0  -0.34781  -0.757005  0  3.826533  0
C  C137  1  0.57703519  0.46591375  0.62996216  1  0  -0.733575  0  3.598434  0  0  -0.767264  0  3.830535  0  0  -0.781692  0  3.837319  0  0  -0.347794  -0.756913  0  3.826526  0
C  C138  1  0.46591827  0.57703266  0.12996548  1  0  -0.73377  0  3.598433  0  0  -0.767437  0  3.830532  0  0  -0.781859  0  3.83733  0  0  -0.34784  -0.757082  0  3.826522  0
C  C139  1  0.42296708  0.53408653  0.37003522  1  0  -0.733699  0  3.598472  0  0  -0.767404  0  3.830596  0  0  -0.781817  0  3.837368  0  0  -0.347825  -0.757048  0  3.826585  0
C  C140  1  0.88083267  0.14287717  0.92584313  1  0  -0.723623  0  3.597584  0  0  -0.756693  0  3.824953  0  0  -0.77173  0  3.833762  0  0  -0.345763  -0.746625  0  3.818652  0
C  C141  1  0.85712709  0.11916084  0.57415617  1  0  -0.723607  0  3.597525  0  0  -0.756685  0  3.824893  0  0  -0.771719  0  3.833703  0  0  -0.345775  -0.74662  0  3.818593  0
C  C142  1  0.11916558  0.85712308  0.07415801  1  0  -0.723642  0  3.597534  0  0  -0.756707  0  3.824911  0  0  -0.771744  0  3.833719  0  0  -0.345758  -0.746642  0  3.818613  0
C  C143  1  0.14287569  0.88083608  0.42584226  1  0  -0.723656  0  3.597531  0  0  -0.756728  0  3.824901  0  0  -0.771763  0  3.833717  0  0  -0.345794  -0.746664  0  3.818603  0
