# generated using pymatgen
data_CuH13C11(NO3)2
_symmetry_space_group_name_H-M   'P 1'
_cell_length_a   8.19509050
_cell_length_b   8.52385841
_cell_length_c   10.00609307
_cell_angle_alpha   108.60153255
_cell_angle_beta   89.99893680
_cell_angle_gamma   90.00054227
_symmetry_Int_Tables_number   1
_chemical_formula_structural   CuH13C11(NO3)2
_chemical_formula_sum   'Cu2 H26 C22 N4 O12'
_cell_volume   662.44959501
_cell_formula_units_Z   2
loop_
 _symmetry_equiv_pos_site_id
 _symmetry_equiv_pos_as_xyz
  1  'x, y, z'
loop_
 _atom_site_type_symbol
 _atom_site_label
 _atom_site_symmetry_multiplicity
 _atom_site_fract_x
 _atom_site_fract_y
 _atom_site_fract_z
 _atom_site_occupancy
 _atom_site_hle17_bader_spin_density
 _atom_site_hle17_ddec_charge
 _atom_site_hle17_ddec_spin_density
 _atom_site_hle17_ddec_sum_bond_order
 _atom_site_hle17_magmom
 _atom_site_hse06_10hf_bader_spin_density
 _atom_site_hse06_10hf_ddec_charge
 _atom_site_hse06_10hf_ddec_spin_density
 _atom_site_hse06_10hf_ddec_sum_bond_order
 _atom_site_hse06_10hf_magmom
 _atom_site_hse06_bader_spin_density
 _atom_site_hse06_ddec_charge
 _atom_site_hse06_ddec_spin_density
 _atom_site_hse06_ddec_sum_bond_order
 _atom_site_hse06_magmom
 _atom_site_pbe_bader_spin_density
 _atom_site_pbe_cm5_charge
 _atom_site_pbe_ddec_charge
 _atom_site_pbe_ddec_spin_density
 _atom_site_pbe_ddec_sum_bond_order
 _atom_site_pbe_magmom
Cu  Cu0  1  0.59470300  0.06574405  0.44481534  1  0  0.93417  0  2.057252  0  0  0.945997  0  2.456968  0  0  0.998494  0  2.409174  0  0  0.845875  0.909416  0  2.497681  0
Cu  Cu1  1  0.09469374  0.93425429  0.55516673  1  0  0.934303  0  2.057195  0  0  0.94617  0  2.456951  0  0  0.999744  0  2.408525  0  0  0.845967  0.909642  0  2.497618  0
H  H2  1  0.38733686  0.58528683  0.22068055  1  0  0.144895  0  0.93098  0  0  0.15557  0  0.989235  0  0  0.159659  0  0.987575  0  0  0.112968  0.152554  0  0.990855  0
H  H3  1  0.88733956  0.41471302  0.77931506  1  0  0.144899  0  0.93077  0  0  0.155575  0  0.98903  0  0  0.159665  0  0.987362  0  0  0.112983  0.15258  0  0.990627  0
H  H4  1  0.52752067  0.57089000  0.79918241  1  0  0.122366  0  0.949121  0  0  0.131895  0  1.012273  0  0  0.135182  0  1.011729  0  0  0.109402  0.129384  0  1.013246  0
H  H5  1  0.02749684  0.42911167  0.20082342  1  0  0.122432  0  0.949033  0  0  0.131876  0  1.012301  0  0  0.135167  0  1.011749  0  0  0.109403  0.129329  0  1.013312  0
H  H6  1  0.61202337  0.85669396  0.88960287  1  0  0.101686  0  0.991288  0  0  0.108187  0  1.055016  0  0  0.111426  0  1.051429  0  0  0.102351  0.105639  0  1.057642  0
H  H7  1  0.11200996  0.14330600  0.11040239  1  0  0.101634  0  0.991302  0  0  0.108142  0  1.055035  0  0  0.111384  0  1.051442  0  0  0.102329  0.105593  0  1.057662  0
H  H8  1  0.31987073  0.36490962  0.75293345  1  0  0.086812  0  0.948736  0  0  0.103404  0  1.014724  0  0  0.103383  0  1.01498  0  0  0.095459  0.103422  0  1.014404  0
H  H9  1  0.81987857  0.63510938  0.24706214  1  0  0.086673  0  0.948815  0  0  0.103355  0  1.014675  0  0  0.103332  0  1.014933  0  0  0.095443  0.10337  0  1.014352  0
H  H10  1  0.35569588  0.18642617  0.80524802  1  0  0.096497  0  0.940119  0  0  0.109783  0  1.009748  0  0  0.109752  0  1.010101  0  0  0.101453  0.10964  0  1.009724  0
H  H11  1  0.85571584  0.81357334  0.19474192  1  0  0.096495  0  0.940226  0  0  0.109771  0  1.009859  0  0  0.10975  0  1.0102  0  0  0.101475  0.109623  0  1.009837  0
H  H12  1  0.52511754  0.30397172  0.77563062  1  0  0.103337  0  0.951186  0  0  0.117664  0  1.017152  0  0  0.118447  0  1.016874  0  0  0.101276  0.117006  0  1.017638  0
H  H13  1  0.02512149  0.69603100  0.22435853  1  0  0.103297  0  0.951207  0  0  0.117602  0  1.017197  0  0  0.118405  0  1.016883  0  0  0.101268  0.116945  0  1.017674  0
H  H14  1  0.52859420  0.26507431  0.08545028  1  0  0.144628  0  0.946783  0  0  0.162663  0  1.005199  0  0  0.166876  0  1.002695  0  0  0.107534  0.159621  0  1.006933  0
H  H15  1  0.02859290  0.73493607  0.91456084  1  0  0.14471  0  0.946856  0  0  0.162735  0  1.00525  0  0  0.166958  0  1.002723  0  0  0.107602  0.1597  0  1.006979  0
H  H16  1  0.58389136  0.08442608  0.94811187  1  0  0.134673  0  0.950925  0  0  0.157009  0  1.002362  0  0  0.159598  0  1.001139  0  0  0.102856  0.154586  0  1.004362  0
H  H17  1  0.08392051  0.91557240  0.05189437  1  0  0.134729  0  0.950982  0  0  0.157073  0  1.002392  0  0  0.159673  0  1.001147  0  0  0.102901  0.154649  0  1.004391  0
H  H18  1  0.73725592  0.20912538  0.05698289  1  0  0.122705  0  0.981293  0  0  0.142128  0  1.045646  0  0  0.143695  0  1.04776  0  0  0.096003  0.140856  0  1.044368  0
H  H19  1  0.23726275  0.79085448  0.94299940  1  0  0.122745  0  0.981173  0  0  0.142128  0  1.045548  0  0  0.143704  0  1.047643  0  0  0.096036  0.140863  0  1.044265  0
H  H20  1  0.54456756  0.39204511  0.36979203  1  0  0.080816  0  0.913  0  0  0.097273  0  0.975369  0  0  0.097687  0  0.975003  0  0  0.110756  0.096776  0  0.975647  0
H  H21  1  0.04456305  0.60795677  0.63021863  1  0  0.080861  0  0.913094  0  0  0.09732  0  0.975444  0  0  0.097771  0  0.975052  0  0  0.110789  0.096828  0  0.975718  0
H  H22  1  0.72778337  0.36369191  0.26687296  1  0  0.072774  0  0.949002  0  0  0.094373  0  1.008214  0  0  0.094875  0  1.009046  0  0  0.108778  0.093704  0  1.007959  0
H  H23  1  0.22778859  0.63630407  0.73312473  1  0  0.072803  0  0.949006  0  0  0.094431  0  1.008182  0  0  0.094979  0  1.008964  0  0  0.108798  0.093778  0  1.007911  0
H  H24  1  0.88262960  0.29683917  0.45316945  1  0  0.05263  0  0.926092  0  0  0.061888  0  0.995373  0  0  0.062784  0  0.994073  0  0  0.089021  0.061103  0  0.996358  0
H  H25  1  0.38262777  0.70315191  0.54681790  1  0  0.052472  0  0.92601  0  0  0.061748  0  0.995295  0  0  0.062663  0  0.994019  0  0  0.088982  0.060974  0  0.99626  0
H  H26  1  0.76750152  0.47939357  0.54212425  1  0  0.076555  0  0.916616  0  0  0.090323  0  0.9781  0  0  0.089653  0  0.978001  0  0  0.104492  0.089959  0  0.978669  0
H  H27  1  0.26749116  0.52059288  0.45787339  1  0  0.076566  0  0.916556  0  0  0.090313  0  0.978066  0  0  0.0897  0  0.977922  0  0  0.104516  0.089949  0  0.978634  0
C  C28  1  0.49112792  0.81015557  0.20401798  1  0  0.369619  0  3.829432  0  0  0.354612  0  4.107744  0  0  0.375548  0  4.121835  0  0  0.096266  0.341376  0  4.097456  0
C  C29  1  0.99111913  0.18983419  0.79598658  1  0  0.369659  0  3.829099  0  0  0.354713  0  4.107268  0  0  0.375748  0  4.121485  0  0  0.09635  0.341464  0  4.096992  0
C  C30  1  0.43854056  0.64485588  0.14881479  1  0  -0.301076  0  3.648261  0  0  -0.338383  0  3.913613  0  0  -0.351718  0  3.929216  0  0  -0.119173  -0.329875  0  3.90344  0
C  C31  1  0.93852643  0.35513962  0.85119399  1  0  -0.301172  0  3.647867  0  0  -0.33846  0  3.913255  0  0  -0.351722  0  3.928766  0  0  -0.119215  -0.329969  0  3.903085  0
C  C32  1  0.44612598  0.56046803  0.00453355  1  0  0.315825  0  3.820848  0  0  0.307515  0  4.085148  0  0  0.326722  0  4.096872  0  0  0.095911  0.294649  0  4.076896  0
C  C33  1  0.94612694  0.43954478  0.99547172  1  0  0.31627  0  3.820415  0  0  0.307853  0  4.08481  0  0  0.327074  0  4.096509  0  0  0.096131  0.294987  0  4.07656  0
C  C34  1  0.51196988  0.63782343  0.91081157  1  0  -0.207812  0  3.742201  0  0  -0.252203  0  4.026434  0  0  -0.263669  0  4.045901  0  0  -0.116185  -0.245048  0  4.013819  0
C  C35  1  0.01194730  0.36216949  0.08919714  1  0  -0.208009  0  3.742047  0  0  -0.252308  0  4.026338  0  0  -0.263766  0  4.04579  0  0  -0.116249  -0.245119  0  4.013732  0
C  C36  1  0.56032179  0.80111071  0.96389697  1  0  -0.033867  0  3.759167  0  0  -0.055244  0  4.023007  0  0  -0.047316  0  4.040776  0  0  -0.08317  -0.059559  0  4.010666  0
C  C37  1  0.06031183  0.19887884  0.03610122  1  0  -0.033811  0  3.759249  0  0  -0.055248  0  4.023073  0  0  -0.047278  0  4.04082  0  0  -0.083161  -0.059568  0  4.010704  0
C  C38  1  0.54969127  0.89337114  0.10862993  1  0  -0.164536  0  3.763214  0  0  -0.167178  0  4.02205  0  0  -0.186317  0  4.0504  0  0  -0.038004  -0.155348  0  4.003202  0
C  C39  1  0.04968572  0.10661338  0.89136906  1  0  -0.164656  0  3.763383  0  0  -0.167204  0  4.02207  0  0  -0.186341  0  4.050454  0  0  -0.037964  -0.155328  0  4.003181  0
C  C40  1  0.59744000  0.06487473  0.15862470  1  0  0.350774  0  3.672811  0  0  0.348069  0  3.929904  0  0  0.372046  0  3.938592  0  0  0.155869  0.33226  0  3.923723  0
C  C41  1  0.09742342  0.93511398  0.84138077  1  0  0.351148  0  3.672175  0  0  0.348424  0  3.929299  0  0  0.372449  0  3.938169  0  0  0.155915  0.3326  0  3.923151  0
C  C42  1  0.39934786  0.31069385  0.81486070  1  0  -0.07922  0  3.603198  0  0  -0.176937  0  3.871988  0  0  -0.169939  0  3.877081  0  0  -0.146885  -0.181503  0  3.868317  0
C  C43  1  0.89935759  0.68931223  0.18513041  1  0  -0.079032  0  3.603463  0  0  -0.176758  0  3.872267  0  0  -0.169741  0  3.877312  0  0  -0.146884  -0.18132  0  3.868586  0
C  C44  1  0.61329011  0.15978949  0.05577090  1  0  -0.37678  0  3.641645  0  0  -0.451121  0  3.861876  0  0  -0.458285  0  3.866189  0  0  -0.233495  -0.445752  0  3.859314  0
C  C45  1  0.11330085  0.84020429  0.94423271  1  0  -0.377067  0  3.641547  0  0  -0.451352  0  3.861803  0  0  -0.458437  0  3.866042  0  0  -0.23363  -0.44599  0  3.859237  0
C  C46  1  0.66108988  0.32422019  0.34584905  1  0  -0.009462  0  3.66923  0  0  -0.071926  0  3.938599  0  0  -0.068254  0  3.95034  0  0  -0.072957  -0.073984  0  3.930559  0
C  C47  1  0.16108026  0.67579264  0.65416598  1  0  -0.009704  0  3.669537  0  0  -0.072159  0  3.938975  0  0  -0.068439  0  3.950844  0  0  -0.073078  -0.074225  0  3.93096  0
C  C48  1  0.75780345  0.34675494  0.47961641  1  0  0.077511  0  3.748844  0  0  0.029575  0  4.029589  0  0  0.037206  0  4.03618  0  0  -0.093183  0.025156  0  4.024746  0
C  C49  1  0.25778859  0.65323638  0.52038264  1  0  0.077728  0  3.748317  0  0  0.029809  0  4.029077  0  0  0.037476  0  4.03585  0  0  -0.093117  0.02539  0  4.024239  0
N  N50  1  0.62475243  0.14506974  0.29244207  1  0  -0.36091  0  3.203561  0  0  -0.318847  0  3.515627  0  0  -0.339787  0  3.522581  0  0  -0.376835  -0.306327  0  3.512237  0
N  N51  1  0.12476201  0.85493769  0.70755801  1  0  -0.360897  0  3.203086  0  0  -0.31893  0  3.515246  0  0  -0.340498  0  3.522811  0  0  -0.3768  -0.306456  0  3.511913  0
N  N52  1  0.70445947  0.86477267  0.58454710  1  0  0.675739  0  4.136437  0  0  0.704957  0  4.440119  0  0  0.736673  0  4.443264  0  0  0.100459  0.684534  0  4.436481  0
N  N53  1  0.20445895  0.13524155  0.41544374  1  0  0.675751  0  4.136333  0  0  0.704814  0  4.440193  0  0  0.736588  0  4.443443  0  0  0.100534  0.684457  0  4.43654  0
O  O54  1  0.47826623  0.88123167  0.34088693  1  0  -0.497921  0  2.121047  0  0  -0.48117  0  2.415191  0  0  -0.510552  0  2.409131  0  0  -0.315015  -0.461826  0  2.419233  0
O  O55  1  0.97824711  0.11874683  0.65911482  1  0  -0.497994  0  2.121011  0  0  -0.481314  0  2.415188  0  0  -0.511343  0  2.409556  0  0  -0.315117  -0.461974  0  2.419228  0
O  O56  1  0.67358346  0.26486364  0.56084922  1  0  -0.49784  0  1.891912  0  0  -0.475002  0  2.185454  0  0  -0.49361  0  2.173694  0  0  -0.365002  -0.462521  0  2.193987  0
O  O57  1  0.17356627  0.73513434  0.43915071  1  0  -0.497949  0  1.891806  0  0  -0.475115  0  2.185342  0  0  -0.494309  0  2.173965  0  0  -0.365066  -0.462634  0  2.193863  0
O  O58  1  0.59214842  0.98062693  0.60240134  1  0  -0.426145  0  1.832281  0  0  -0.412265  0  2.086338  0  0  -0.436602  0  2.076657  0  0  -0.191594  -0.395127  0  2.093178  0
O  O59  1  0.09216112  0.01937289  0.39760814  1  0  -0.426179  0  1.832606  0  0  -0.412253  0  2.086734  0  0  -0.43713  0  2.077371  0  0  -0.191614  -0.395143  0  2.093568  0
O  O60  1  0.38902176  0.40346480  0.96255266  1  0  -0.253765  0  2.37349  0  0  -0.173121  0  2.604815  0  0  -0.194637  0  2.610007  0  0  -0.177183  -0.157949  0  2.600565  0
O  O61  1  0.88901766  0.59655115  0.03744720  1  0  -0.254012  0  2.373453  0  0  -0.173336  0  2.604823  0  0  -0.194861  0  2.610023  0  0  -0.177322  -0.158165  0  2.600576  0
O  O62  1  0.71334390  0.79447849  0.67564519  1  0  -0.403544  0  1.750355  0  0  -0.385393  0  1.947647  0  0  -0.401174  0  1.942652  0  0  -0.148158  -0.372785  0  1.950274  0
O  O63  1  0.21334735  0.20552591  0.32434292  1  0  -0.403489  0  1.750517  0  0  -0.385244  0  1.947848  0  0  -0.400947  0  1.942815  0  0  -0.148126  -0.372662  0  1.950464  0
O  O64  1  0.79502958  0.83264213  0.47897576  1  0  -0.451102  0  1.853503  0  0  -0.464087  0  2.109974  0  0  -0.477648  0  2.096987  0  0  -0.159911  -0.45404  0  2.118225  0
O  O65  1  0.29502411  0.16738032  0.52101607  1  0  -0.451235  0  1.853227  0  0  -0.464177  0  2.109759  0  0  -0.477616  0  2.09674  0  0  -0.160053  -0.454165  0  2.11802  0
