# generated using pymatgen
data_Zn2H2C21N3(OF)10
_symmetry_space_group_name_H-M   'P 1'
_cell_length_a   9.80129139
_cell_length_b   11.02489015
_cell_length_c   22.08532304
_cell_angle_alpha   90.36099770
_cell_angle_beta   89.75076812
_cell_angle_gamma   89.13197144
_symmetry_Int_Tables_number   1
_chemical_formula_structural   Zn2H2C21N3(OF)10
_chemical_formula_sum   'Zn4 H4 C42 N6 O20 F20'
_cell_volume   2386.15457264
_cell_formula_units_Z   2
loop_
 _symmetry_equiv_pos_site_id
 _symmetry_equiv_pos_as_xyz
  1  'x, y, z'
loop_
 _atom_site_type_symbol
 _atom_site_label
 _atom_site_symmetry_multiplicity
 _atom_site_fract_x
 _atom_site_fract_y
 _atom_site_fract_z
 _atom_site_occupancy
 _atom_site_pbe_bader_charge
 _atom_site_pbe_bader_spin_density
 _atom_site_pbe_cm5_charge
 _atom_site_pbe_ddec_charge
 _atom_site_pbe_ddec_spin_density
 _atom_site_pbe_ddec_sum_bond_order
 _atom_site_pbe_magmom
Zn  Zn0  1  0.63755247  0.49780712  0.50270780  1  1.304133  0  0.674651  0.849957  0  2.373683  0
Zn  Zn1  1  0.35830716  0.50401514  0.49948099  1  1.299715  0  0.677549  0.860673  0  2.359038  0
Zn  Zn2  1  0.36248030  0.50511533  0.00359673  1  1.306604  0  0.678907  0.858469  0  2.37779  0
Zn  Zn3  1  0.64187949  0.50258233  0.00012477  1  1.29628  0  0.673783  0.851688  0  2.36321  0
H  H4  1  0.80664805  0.58254721  0.80511497  1  0.060515  0  0.101321  0.118293  0  0.979451  0
H  H5  1  0.81462950  0.42106364  0.80356004  1  0.07624  0  0.104087  0.121496  0  0.969357  0
H  H6  1  0.80736338  0.42407542  0.68961391  1  0.073363  0  0.103262  0.119316  0  0.971086  0
H  H7  1  0.79974486  0.58570721  0.69117317  1  0.07856  0  0.100865  0.117881  0  0.980972  0
C  C8  1  0.50919895  0.73321199  0.49902970  1  1.623402  0  0.218545  0.634025  0  4.145625  0
C  C9  1  0.48503211  0.50175485  0.61793431  1  1.548557  0  0.220193  0.612163  0  4.159216  0
C  C10  1  0.50230106  0.26784835  0.50174801  1  1.607797  0  0.220091  0.636536  0  4.14187  0
C  C11  1  0.50009575  0.50016912  0.38478225  1  1.562368  0  0.218661  0.635337  0  4.147221  0
C  C12  1  0.49592015  0.73657875  0.00475491  1  1.573487  0  0.220002  0.637487  0  4.139596  0
C  C13  1  0.50175770  0.49983539  0.88527286  1  1.63535  0  0.219606  0.609181  0  4.169591  0
C  C14  1  0.49631438  0.27105726  0.99971870  1  1.663226  0  0.22033  0.633548  0  4.142672  0
C  C15  1  0.51190453  0.50173656  0.11807835  1  1.56007  0  0.219398  0.63628  0  4.145866  0
C  C16  1  0.92798235  0.41967501  0.46727262  1  1.279983  0  0.258357  0.305286  0  4.075987  0
C  C17  1  0.06677746  0.58744399  0.52891785  1  1.2587  0  0.258675  0.305704  0  4.084458  0
C  C18  1  0.07035367  0.42567126  0.46366733  1  1.214791  0  0.259558  0.309664  0  4.072867  0
C  C19  1  0.92456631  0.58064089  0.53292410  1  1.237342  0  0.258754  0.305341  0  4.078215  0
C  C20  1  0.50381018  0.13140250  0.49976593  1  0.027098  0  -0.020801  -0.199858  0  3.955928  0
C  C21  1  0.50771462  0.86964811  0.49769684  1  0.083262  0  -0.021412  -0.200386  0  3.954018  0
C  C22  1  0.38325260  0.06409225  0.49912527  1  0.661655  0  0.097827  0.168209  0  4.063354  0
C  C23  1  0.62822293  0.93704359  0.49775322  1  0.463587  0  0.097461  0.168483  0  4.063888  0
C  C24  1  0.38510722  0.93752525  0.49775212  1  0.504284  0  0.099115  0.169944  0  4.059627  0
C  C25  1  0.62634447  0.06358775  0.49854994  1  0.656659  0  0.097154  0.1674  0  4.065232  0
C  C26  1  0.49405109  0.49184215  0.81766635  1  -0.001653  0  0.004442  -0.08593  0  3.909958  0
C  C27  1  0.48484027  0.50010921  0.68579108  1  0.157383  0  0.003398  -0.094632  0  3.907502  0
C  C28  1  0.61048702  0.49642885  0.78166620  1  0.075879  0  0.007547  0.076982  0  3.868279  0
C  C29  1  0.36576908  0.49440562  0.72198044  1  0.15224  0  0.092735  0.015867  0  3.88263  0
C  C30  1  0.60622254  0.49973046  0.71837143  1  -0.03556  0  0.009243  0.082948  0  3.859076  0
C  C31  1  0.37025051  0.48828754  0.78516811  1  0.260043  0  0.091155  0.009554  0  3.88084  0
C  C32  1  0.76479620  0.50116043  0.78368434  1  0.026371  0  -0.146522  -0.19699  0  3.853993  0
C  C33  1  0.76026226  0.50335487  0.71218927  1  -0.058673  0  -0.145889  -0.195342  0  3.851936  0
C  C34  1  0.50366985  0.50084136  0.31671605  1  0.16662  0  -0.021543  -0.202034  0  3.962258  0
C  C35  1  0.50969319  0.50224307  0.18621404  1  0.172492  0  -0.022061  -0.202455  0  3.955103  0
C  C36  1  0.62677580  0.50181097  0.28394794  1  0.480208  0  0.097001  0.16772  0  4.063869  0
C  C37  1  0.38651080  0.50205071  0.21906187  1  0.496725  0  0.098178  0.169497  0  4.061131  0
C  C38  1  0.62970017  0.50198128  0.22077351  1  0.584086  0  0.09764  0.168667  0  4.064852  0
C  C39  1  0.38365416  0.50069331  0.28218557  1  0.594385  0  0.09693  0.168317  0  4.064224  0
C  C40  1  0.07430204  0.42915012  0.03743691  1  1.270444  0  0.260795  0.309935  0  4.070258  0
C  C41  1  0.93146499  0.57975165  0.96618104  1  1.251623  0  0.260193  0.30667  0  4.071934  0
C  C42  1  0.93158278  0.42792177  0.03610975  1  1.235781  0  0.259106  0.307199  0  4.070802  0
C  C43  1  0.07394573  0.58387079  0.96902911  1  1.269042  0  0.258208  0.305456  0  4.082681  0
C  C44  1  0.49622894  0.13462754  0.00148676  1  0.058461  0  -0.02216  -0.202724  0  3.952399  0
C  C45  1  0.49586584  0.87304210  0.00471369  1  0.175948  0  -0.021472  -0.200676  0  3.958787  0
C  C46  1  0.61774425  0.06530260  0.00339946  1  0.568919  0  0.097663  0.169307  0  4.060914  0
C  C47  1  0.37447518  0.94217200  0.00301182  1  0.584234  0  0.097511  0.168342  0  4.06237  0
C  C48  1  0.61748686  0.93884838  0.00525122  1  0.521786  0  0.096594  0.166371  0  4.06452  0
C  C49  1  0.37453160  0.06872802  0.00159888  1  0.492425  0  0.100285  0.17181  0  4.057733  0
N  N50  1  0.85721433  0.49706555  0.50202981  1  -1.252396  0  -0.284256  -0.295149  0  3.486246  0
N  N51  1  0.13794037  0.50850422  0.49511248  1  -1.203209  0  -0.282457  -0.297248  0  3.470978  0
N  N52  1  0.14331524  0.50752487  0.00413374  1  -1.259741  0  -0.283787  -0.295672  0  3.484926  0
N  N53  1  0.86219170  0.50263732  0.00013630  1  -1.231354  0  -0.282591  -0.294862  0  3.476331  0
N  N54  1  0.22867273  0.49524050  0.69358983  1  0.449115  0  0.056482  0.521584  0  4.258075  0
N  N55  1  0.23893950  0.47445998  0.81792529  1  0.425596  0  0.057141  0.521639  0  4.247031  0
O  O56  1  0.61965348  0.67865688  0.48395947  1  -1.143673  0  -0.317238  -0.543662  0  2.326221  0
O  O57  1  0.39986303  0.68307325  0.51579057  1  -1.143742  0  -0.312668  -0.545424  0  2.367859  0
O  O58  1  0.37543988  0.47391986  0.59085576  1  -1.153213  0  -0.314021  -0.538874  0  2.322755  0
O  O59  1  0.59781146  0.52953252  0.59331533  1  -1.152358  0  -0.307976  -0.536524  0  2.315404  0
O  O60  1  0.39349404  0.32170452  0.48508502  1  -1.143185  0  -0.314208  -0.547399  0  2.351749  0
O  O61  1  0.61060433  0.31840523  0.51986302  1  -1.150929  0  -0.317422  -0.542176  0  2.329473  0
O  O62  1  0.60693523  0.46350963  0.41178280  1  -1.146578  0  -0.314849  -0.547096  0  2.344096  0
O  O63  1  0.38961148  0.53639040  0.40982382  1  -1.138412  0  -0.317383  -0.541929  0  2.325481  0
O  O64  1  0.38766447  0.68538078  0.02249262  1  -1.145078  0  -0.316403  -0.541099  0  2.316856  0
O  O65  1  0.60445795  0.68340566  0.98647067  1  -1.14554  0  -0.315648  -0.548446  0  2.358968  0
O  O66  1  0.61642641  0.47227459  0.90859759  1  -1.147383  0  -0.307126  -0.526276  0  2.281525  0
O  O67  1  0.39529183  0.53691382  0.91319891  1  -1.154399  0  -0.314677  -0.551441  0  2.370194  0
O  O68  1  0.60702120  0.32250991  0.01386043  1  -1.146553  0  -0.316037  -0.548818  0  2.364488  0
O  O69  1  0.38591974  0.32415001  0.98452017  1  -1.141174  0  -0.313499  -0.535583  0  2.332898  0
O  O70  1  0.40330215  0.46800072  0.09216386  1  -1.146266  0  -0.316125  -0.548704  0  2.364127  0
O  O71  1  0.62092269  0.53439751  0.09188681  1  -1.142615  0  -0.316941  -0.541978  0  2.309234  0
O  O72  1  0.18660421  0.59280640  0.67357387  1  -0.427923  0  -0.119148  -0.312997  0  1.938018  0
O  O73  1  0.16607632  0.39864320  0.69403674  1  -0.433557  0  -0.131433  -0.320221  0  1.862509  0
O  O74  1  0.22308074  0.37937171  0.84599150  1  -0.420418  0  -0.1215  -0.305804  0  1.891399  0
O  O75  1  0.15401168  0.55827506  0.81332981  1  -0.434362  0  -0.131853  -0.331238  0  1.909605  0
F  F76  1  0.86184773  0.33664204  0.43604907  1  -0.589497  0  -0.033349  -0.059063  0  1.418994  0
F  F77  1  0.13206542  0.67320203  0.55822206  1  -0.58789  0  -0.027823  -0.047576  0  1.46202  0
F  F78  1  0.13947033  0.34890957  0.42852497  1  -0.59146  0  -0.033944  -0.059796  0  1.413942  0
F  F79  1  0.85513016  0.65769971  0.56788872  1  -0.594534  0  -0.032862  -0.063456  0  1.420298  0
F  F80  1  0.25936234  0.11882124  0.50081668  1  -0.602767  0  -0.090235  -0.103704  0  1.394395  0
F  F81  1  0.75225400  0.88243718  0.49805324  1  -0.609027  0  -0.091903  -0.106676  0  1.400478  0
F  F82  1  0.26276668  0.88357415  0.49587006  1  -0.608759  0  -0.088708  -0.101976  0  1.404228  0
F  F83  1  0.74871430  0.11773619  0.49744127  1  -0.605751  0  -0.090689  -0.105422  0  1.408038  0
F  F84  1  0.74842416  0.50430899  0.31222194  1  -0.609121  0  -0.092156  -0.105238  0  1.387093  0
F  F85  1  0.26436254  0.50462896  0.19120876  1  -0.611768  0  -0.091127  -0.103793  0  1.396175  0
F  F86  1  0.75396949  0.50019109  0.19432171  1  -0.606347  0  -0.091565  -0.105809  0  1.393836  0
F  F87  1  0.25937342  0.49734448  0.30849872  1  -0.608218  0  -0.091418  -0.105672  0  1.394715  0
F  F88  1  0.14242435  0.35251195  0.07226597  1  -0.588449  0  -0.032954  -0.059108  0  1.412992  0
F  F89  1  0.86352816  0.65313079  0.92950025  1  -0.594088  0  -0.033433  -0.06257  0  1.411624  0
F  F90  1  0.86376189  0.35219411  0.07083705  1  -0.590026  0  -0.033543  -0.058944  0  1.414373  0
F  F91  1  0.14148640  0.66440475  0.93715643  1  -0.592015  0  -0.031947  -0.055439  0  1.437872  0
F  F92  1  0.74114182  0.11764222  0.00283860  1  -0.607438  0  -0.090281  -0.103356  0  1.396888  0
F  F93  1  0.25149366  0.88915741  0.00158238  1  -0.610457  0  -0.090716  -0.105323  0  1.401324  0
F  F94  1  0.74042703  0.88262792  0.00843304  1  -0.61032  0  -0.091718  -0.105298  0  1.392408  0
F  F95  1  0.25129226  0.12447458  0.00096293  1  -0.608963  0  -0.088927  -0.102362  0  1.402228  0
