# generated using pymatgen
data_Yb2H11C11NO17
_symmetry_space_group_name_H-M   'P 1'
_cell_length_a   8.61981000
_cell_length_b   9.90679229
_cell_length_c   13.39976182
_cell_angle_alpha   84.61523223
_cell_angle_beta   88.08099266
_cell_angle_gamma   79.39366708
_symmetry_Int_Tables_number   1
_chemical_formula_structural   Yb2H11C11NO17
_chemical_formula_sum   'Yb4 H22 C22 N2 O34'
_cell_volume   1119.60124101
_cell_formula_units_Z   2
loop_
 _symmetry_equiv_pos_site_id
 _symmetry_equiv_pos_as_xyz
  1  'x, y, z'
loop_
 _atom_site_type_symbol
 _atom_site_label
 _atom_site_symmetry_multiplicity
 _atom_site_fract_x
 _atom_site_fract_y
 _atom_site_fract_z
 _atom_site_occupancy
 _atom_site_pbe_bader_charge
 _atom_site_pbe_bader_spin_density
 _atom_site_pbe_cm5_charge
 _atom_site_pbe_ddec_charge
 _atom_site_pbe_ddec_spin_density
 _atom_site_pbe_ddec_sum_bond_order
 _atom_site_pbe_magmom
Yb  Yb0  1  0.08593796  0.19412939  0.50087506  1  2.165629  0  1.588202  2.000355  0  2.179173  0
Yb  Yb1  1  0.47621899  0.23823184  0.91200749  1  2.190308  0  1.569415  2.092952  0  2.120534  0
Yb  Yb2  1  0.91406292  0.80585613  0.49912975  1  2.165589  0  1.588159  2.00028  0  2.179371  0
Yb  Yb3  1  0.52377120  0.76178973  0.08799366  1  2.190421  0  1.569451  2.093008  0  2.120666  0
H  H4  1  0.92999681  0.17893576  0.69220177  1  0.615522  0  0.324616  0.415665  0  0.880799  0
H  H5  1  0.98650181  0.02098748  0.67020396  1  0.649861  0  0.30011  0.396307  0  0.945821  0
H  H6  1  0.19397811  0.20488340  0.03614143  1  0.639227  0  0.320374  0.422551  0  0.875462  0
H  H7  1  0.23159666  0.08300199  0.97076613  1  0.626206  0  0.308707  0.407771  0  0.908341  0
H  H8  1  0.19382616  0.33726189  0.79994750  1  0.637277  0  0.340642  0.438404  0  0.837182  0
H  H9  1  0.30154123  0.27082617  0.71230526  1  0.663205  0  0.302863  0.416783  0  0.907662  0
H  H10  1  0.67468840  0.35937085  0.76309853  1  0.62822  0  0.340556  0.434508  0  0.843149  0
H  H11  1  0.60439619  0.24678854  0.70639906  1  0.66221  0  0.298377  0.409376  0  0.929431  0
H  H12  1  0.80620439  0.16610341  0.95562285  1  0.630385  0  0.332009  0.42727  0  0.857998  0
H  H13  1  0.78090249  0.04321080  0.89244650  1  0.659542  0  0.305753  0.40359  0  0.928318  0
H  H14  1  0.73211385  0.12575653  0.26030001  1  0.150604  0  0.128059  0.139093  0  0.953368  0
H  H15  1  0.07001315  0.82105101  0.30779684  1  0.615292  0  0.324631  0.415694  0  0.880772  0
H  H16  1  0.01349818  0.97899700  0.32979795  1  0.649607  0  0.300128  0.396297  0  0.945861  0
H  H17  1  0.80602199  0.79512077  0.96385621  1  0.639182  0  0.320379  0.422493  0  0.875545  0
H  H18  1  0.76840597  0.91700638  0.02922970  1  0.626101  0  0.308702  0.407704  0  0.908416  0
H  H19  1  0.80616928  0.66275257  0.20004582  1  0.63756  0  0.34062  0.43837  0  0.837228  0
H  H20  1  0.69846206  0.72917909  0.28769524  1  0.663146  0  0.302884  0.416847  0  0.907594  0
H  H21  1  0.32531356  0.64063544  0.23689670  1  0.628305  0  0.340565  0.43456  0  0.843099  0
H  H22  1  0.39560507  0.75321566  0.29359856  1  0.662044  0  0.298355  0.409348  0  0.929477  0
H  H23  1  0.19379821  0.83390495  0.04437522  1  0.630539  0  0.332016  0.427298  0  0.858033  0
H  H24  1  0.21908944  0.95679838  0.10755394  1  0.659555  0  0.305873  0.403856  0  0.928081  0
H  H25  1  0.26788632  0.87424249  0.73969573  1  0.150597  0  0.12804  0.139054  0  0.953488  0
C  C26  1  0.18430140  0.12341592  0.26872877  1  1.610249  0  0.228018  0.588171  0  4.185265  0
C  C27  1  0.33945943  0.14110876  0.30924388  1  0.557841  0  0.127145  0.098613  0  3.943432  0
C  C28  1  0.48121220  0.12730366  0.25356030  1  -0.024214  0  0.018414  -0.044669  0  3.887305  0
C  C29  1  0.61946192  0.13763558  0.30117609  1  -0.035114  0  -0.045117  -0.060937  0  3.844725  0
C  C30  1  0.61380489  0.15957739  0.40259169  1  0.02668  0  0.021632  -0.029649  0  3.88624  0
C  C31  1  0.46733640  0.17303677  0.45252417  1  0.541846  0  0.122612  0.082055  0  3.985391  0
C  C32  1  0.44761475  0.19704326  0.56135711  1  1.605981  0  0.229032  0.571547  0  4.204354  0
C  C33  1  0.49266129  0.09707449  0.14584677  1  1.6552  0  0.245433  0.689413  0  4.171321  0
C  C34  1  0.76579453  0.15619410  0.45416715  1  1.648141  0  0.224357  0.649989  0  4.217048  0
C  C35  1  0.96695348  0.49325219  0.55445103  1  1.613842  0  0.213041  0.520558  0  4.215082  0
C  C36  1  0.40845617  0.51931264  0.00038393  1  1.639815  0  0.212943  0.510864  0  4.239434  0
C  C37  1  0.81570101  0.87658311  0.73127290  1  1.610326  0  0.228006  0.588097  0  4.185285  0
C  C38  1  0.66053839  0.85888499  0.69075971  1  0.55803  0  0.127243  0.098885  0  3.943268  0
C  C39  1  0.51878260  0.87269834  0.74643831  1  -0.023879  0  0.018401  -0.044714  0  3.887493  0
C  C40  1  0.38053616  0.86235715  0.69882531  1  -0.035218  0  -0.04519  -0.061085  0  3.844978  0
C  C41  1  0.38619297  0.84041118  0.59741223  1  0.026983  0  0.021687  -0.02941  0  3.885969  0
C  C42  1  0.53266258  0.82695700  0.54747864  1  0.54159  0  0.122526  0.081835  0  3.985153  0
C  C43  1  0.55238731  0.80294748  0.43864212  1  1.605882  0  0.22909  0.571609  0  4.204305  0
C  C44  1  0.50734457  0.90294018  0.85414412  1  1.6546  0  0.245484  0.689282  0  4.171343  0
C  C45  1  0.23420459  0.84378935  0.54583186  1  1.648294  0  0.224274  0.649779  0  4.217066  0
C  C46  1  0.03305068  0.50672406  0.44555658  1  1.593365  0  0.212921  0.520412  0  4.214671  0
C  C47  1  0.59153226  0.48070165  0.99961548  1  1.581581  0  0.213038  0.51117  0  4.239345  0
N  N48  1  0.33549100  0.16403085  0.40613854  1  -1.256191  0  -0.385812  -0.349459  0  3.609304  0
N  N49  1  0.66451052  0.83596193  0.59386504  1  -1.256267  0  -0.385862  -0.349531  0  3.609187  0
O  O50  1  0.06940968  0.13102873  0.33251772  1  -1.184072  0  -0.36011  -0.621385  0  2.312326  0
O  O51  1  0.17751512  0.09701151  0.17897152  1  -1.196412  0  -0.314845  -0.563196  0  2.185213  0
O  O52  1  0.48141166  0.19896797  0.08098825  1  -1.173066  0  -0.398425  -0.662891  0  2.320303  0
O  O53  1  0.52396835  0.97115716  0.12884902  1  -1.20501  0  -0.426415  -0.693258  0  2.358015  0
O  O54  1  0.83916975  0.03696585  0.48573474  1  -1.207916  0  -0.418479  -0.71941  0  2.448129  0
O  O55  1  0.82215740  0.26432140  0.45637705  1  -1.163597  0  -0.377644  -0.607087  0  2.215355  0
O  O56  1  0.57122413  0.19567956  0.60874190  1  -1.166641  0  -0.283161  -0.492098  0  2.211039  0
O  O57  1  0.30561394  0.21591461  0.59659141  1  -1.182099  0  -0.361724  -0.630372  0  2.305841  0
O  O58  1  0.98739564  0.37342364  0.59925599  1  -1.184156  0  -0.386962  -0.597179  0  2.295294  0
O  O59  1  0.89770762  0.60307494  0.58967724  1  -1.17241  0  -0.401909  -0.610626  0  2.296847  0
O  O60  1  0.01434107  0.11505573  0.66227296  1  -1.237262  0  -0.643575  -0.826516  0  2.09694  0
O  O61  1  0.33475816  0.44271365  0.95734122  1  -1.181706  0  -0.391583  -0.592787  0  2.250252  0
O  O62  1  0.34914703  0.62489192  0.04471761  1  -1.181135  0  -0.389278  -0.616462  0  2.288382  0
O  O63  1  0.22082896  0.18420443  0.96679455  1  -1.23402  0  -0.62417  -0.827436  0  2.018409  0
O  O64  1  0.30333199  0.30822682  0.77952755  1  -1.27095  0  -0.644816  -0.864752  0  2.033566  0
O  O65  1  0.63977225  0.27113769  0.77375549  1  -1.268949  0  -0.64915  -0.881779  0  2.051837  0
O  O66  1  0.74071211  0.09654939  0.95035063  1  -1.253672  0  -0.599151  -0.823944  0  2.084879  0
O  O67  1  0.93059307  0.86895891  0.66748319  1  -1.184185  0  -0.360097  -0.621403  0  2.312406  0
O  O68  1  0.82247755  0.90299458  0.82102762  1  -1.196433  0  -0.31482  -0.563088  0  2.185246  0
O  O69  1  0.51858821  0.80105168  0.91901734  1  -1.172928  0  -0.39846  -0.662818  0  2.320147  0
O  O70  1  0.47603892  0.02885652  0.87114043  1  -1.204867  0  -0.426457  -0.69322  0  2.357986  0
O  O71  1  0.16082889  0.96301966  0.51426414  1  -1.208054  0  -0.418441  -0.719286  0  2.448103  0
O  O72  1  0.17784889  0.73565595  0.54362522  1  -1.163578  0  -0.377584  -0.606951  0  2.215127  0
O  O73  1  0.42877320  0.80432145  0.39125749  1  -1.166664  0  -0.283126  -0.492084  0  2.211109  0
O  O74  1  0.69439105  0.78408344  0.40340730  1  -1.181968  0  -0.361759  -0.630409  0  2.305838  0
O  O75  1  0.01261539  0.62655791  0.40075339  1  -1.183753  0  -0.386947  -0.597146  0  2.294795  0
O  O76  1  0.10229030  0.39690847  0.41032552  1  -1.1726  0  -0.401814  -0.610461  0  2.296756  0
O  O77  1  0.98566266  0.88492780  0.33772671  1  -1.236818  0  -0.643574  -0.826505  0  2.096835  0
O  O78  1  0.66523715  0.55730594  0.04265923  1  -1.18177  0  -0.391605  -0.592958  0  2.250116  0
O  O79  1  0.65084663  0.37512971  0.95528348  1  -1.181016  0  -0.389247  -0.616525  0  2.288503  0
O  O80  1  0.77917413  0.81580188  0.03320291  1  -1.233917  0  -0.624202  -0.827359  0  2.018482  0
O  O81  1  0.69666481  0.69178142  0.22047212  1  -1.271166  0  -0.644821  -0.864773  0  2.033482  0
O  O82  1  0.36022827  0.72886960  0.22624344  1  -1.268857  0  -0.649155  -0.881811  0  2.051862  0
O  O83  1  0.25928281  0.90346191  0.04965036  1  -1.253848  0  -0.599293  -0.824285  0  2.084498  0
