# generated using pymatgen
data_ZnPH14C14NO5
_symmetry_space_group_name_H-M   'P 1'
_cell_length_a   9.71796518
_cell_length_b   10.01550948
_cell_length_c   19.17570835
_cell_angle_alpha   105.15445612
_cell_angle_beta   98.97816349
_cell_angle_gamma   90.00259931
_symmetry_Int_Tables_number   1
_chemical_formula_structural   ZnPH14C14NO5
_chemical_formula_sum   'Zn4 P4 H56 C56 N4 O20'
_cell_volume   1777.76940812
_cell_formula_units_Z   4
loop_
 _symmetry_equiv_pos_site_id
 _symmetry_equiv_pos_as_xyz
  1  'x, y, z'
loop_
 _atom_site_type_symbol
 _atom_site_label
 _atom_site_symmetry_multiplicity
 _atom_site_fract_x
 _atom_site_fract_y
 _atom_site_fract_z
 _atom_site_occupancy
 _atom_site_pbe_bader_charge
 _atom_site_pbe_bader_spin_density
 _atom_site_pbe_cm5_charge
 _atom_site_pbe_ddec_charge
 _atom_site_pbe_ddec_spin_density
 _atom_site_pbe_ddec_sum_bond_order
 _atom_site_pbe_magmom
Zn  Zn0  1  0.55884512  0.79169386  0.47215127  1  1.328714  0  0.705631  1.01478  0  2.355258  0
Zn  Zn1  1  0.94126736  0.31963857  0.52809016  1  1.329828  0  0.705458  1.014566  0  2.355213  0
Zn  Zn2  1  0.44115322  0.20830396  0.52784782  1  1.328676  0  0.705623  1.014749  0  2.355304  0
Zn  Zn3  1  0.05873215  0.68035667  0.47190945  1  1.329812  0  0.7054  1.014481  0  2.35535  0
P  P4  1  0.29445392  0.92627430  0.53499579  1  3.379557  0  0.343215  1.313779  0  5.416169  0
P  P5  1  0.20540177  0.39132383  0.46510064  1  3.375156  0  0.343223  1.31351  0  5.414856  0
P  P6  1  0.70554641  0.07372599  0.46500369  1  3.379421  0  0.343272  1.3138  0  5.416019  0
P  P7  1  0.79459756  0.60867338  0.53489682  1  3.375297  0  0.343278  1.313681  0  5.414564  0
H  H8  1  0.20780197  0.12438110  0.71541451  1  0.485695  0  0.332412  0.259176  0  0.873461  0
H  H9  1  0.29209497  0.40915013  0.28475607  1  0.485628  0  0.332877  0.261484  0  0.871649  0
H  H10  1  0.79219845  0.87561583  0.28458370  1  0.48566  0  0.332398  0.259139  0  0.873459  0
H  H11  1  0.70791188  0.59084269  0.71524218  1  0.485594  0  0.332942  0.261534  0  0.871626  0
H  H12  1  0.33917312  0.91760092  0.66280016  1  0.117281  0  0.11744  0.140192  0  1.019406  0
H  H13  1  0.16071032  0.25477105  0.33729226  1  0.119456  0  0.117406  0.140086  0  1.018596  0
H  H14  1  0.66082626  0.08239593  0.33719797  1  0.117614  0  0.117417  0.140154  0  1.019418  0
H  H15  1  0.83928892  0.74522899  0.66270594  1  0.118997  0  0.117426  0.140142  0  1.01855  0
H  H16  1  0.39535763  0.08073473  0.65345362  1  0.139806  0  0.121142  0.154623  0  1.012643  0
H  H17  1  0.10444007  0.42724305  0.34663690  1  0.14708  0  0.120887  0.154185  0  1.01323  0
H  H18  1  0.60464266  0.91926645  0.34654571  1  0.139818  0  0.121088  0.154529  0  1.012755  0
H  H19  1  0.89556231  0.57275671  0.65336104  1  0.146998  0  0.120876  0.154141  0  1.01321  0
H  H20  1  0.05338702  0.10508378  0.57105199  1  0.14135  0  0.12804  0.15273  0  0.99265  0
H  H21  1  0.44650191  0.53410486  0.42914252  1  0.138403  0  0.127637  0.15227  0  0.993157  0
H  H22  1  0.94661444  0.89491429  0.42894735  1  0.141365  0  0.128045  0.152742  0  0.992641  0
H  H23  1  0.55349942  0.46589692  0.57085741  1  0.138394  0  0.127658  0.152311  0  0.993101  0
H  H24  1  0.20872559  0.21214433  0.60381951  1  0.123972  0  0.124374  0.134224  0  0.999748  0
H  H25  1  0.29118705  0.60847331  0.39645903  1  0.121063  0  0.124056  0.133437  0  1.00082  0
H  H26  1  0.79127266  0.78785474  0.39617876  1  0.123903  0  0.12438  0.13421  0  0.999737  0
H  H27  1  0.70881125  0.39152698  0.60354148  1  0.121092  0  0.124061  0.133449  0  1.000823  0
H  H28  1  0.98536688  0.01984074  0.68373245  1  0.084285  0  0.116256  0.104598  0  1.004949  0
H  H29  1  0.51443558  0.33613158  0.31640172  1  0.083596  0  0.116583  0.105518  0  1.003403  0
H  H30  1  0.01463463  0.98015644  0.31626703  1  0.084253  0  0.116282  0.104592  0  1.004938  0
H  H31  1  0.48556919  0.66386687  0.68360209  1  0.083638  0  0.116561  0.105525  0  1.003435  0
H  H32  1  0.03521672  0.90151854  0.60576894  1  0.134334  0  0.119678  0.131546  0  1.015314  0
H  H33  1  0.46453045  0.29569443  0.39430562  1  0.174255  0  0.119242  0.131525  0  1.015207  0
H  H34  1  0.96478166  0.09847945  0.39423134  1  0.134345  0  0.11965  0.131482  0  1.015293  0
H  H35  1  0.53547219  0.70430579  0.60569892  1  0.174004  0  0.119202  0.131514  0  1.015191  0
H  H36  1  0.16924475  0.70426734  0.61579708  1  0.070769  0  0.102471  0.110587  0  1.042647  0
H  H37  1  0.33026615  0.08842745  0.38416570  1  0.069852  0  0.101909  0.109642  0  1.042677  0
H  H38  1  0.83075373  0.29572940  0.38420401  1  0.07075  0  0.102468  0.110582  0  1.042618  0
H  H39  1  0.66973237  0.91156893  0.61583606  1  0.069927  0  0.101912  0.109698  0  1.04267  0
H  H40  1  0.24485597  0.53516884  0.68563112  1  0.07165  0  0.103941  0.110688  0  0.986973  0
H  H41  1  0.25487003  0.84937541  0.31418086  1  0.071269  0  0.104047  0.111066  0  0.986936  0
H  H42  1  0.75513838  0.46482668  0.31436979  1  0.071689  0  0.103944  0.110728  0  0.986949  0
H  H43  1  0.74512935  0.15062302  0.68581883  1  0.07131  0  0.104064  0.111083  0  0.98688  0
H  H44  1  0.23563063  0.58979859  0.81862524  1  0.074538  0  0.107212  0.110516  0  0.983827  0
H  H45  1  0.26452579  0.77112190  0.18125121  1  0.069882  0  0.108302  0.111596  0  0.984988  0
H  H46  1  0.76436350  0.41020243  0.18137598  1  0.074467  0  0.107187  0.110441  0  0.983755  0
H  H47  1  0.73547146  0.22887778  0.81874869  1  0.069906  0  0.108253  0.111562  0  0.984895  0
H  H48  1  0.18716029  0.75193063  0.93106748  1  0.05568  0  0.101267  0.098393  0  1.003703  0
H  H49  1  0.31314123  0.82083008  0.06888243  1  0.088688  0  0.100588  0.097469  0  1.003422  0
H  H50  1  0.81284018  0.24806858  0.06893401  1  0.055659  0  0.101256  0.098413  0  1.003743  0
H  H51  1  0.68685259  0.17917820  0.93111879  1  0.088613  0  0.100552  0.097455  0  1.003393  0
H  H52  1  0.11207820  0.98124746  0.99607655  1  0.040364  0  0.097913  0.093493  0  1.04152  0
H  H53  1  0.38838209  0.98518488  0.00397767  1  0.046981  0  0.097884  0.093136  0  1.042358  0
H  H54  1  0.88792278  0.01876142  0.00392220  1  0.040357  0  0.097919  0.093469  0  1.041469  0
H  H55  1  0.61160761  0.01482376  0.99602494  1  0.046795  0  0.097854  0.093133  0  1.042408  0
H  H56  1  0.03755071  0.15553860  0.92740342  1  0.071902  0  0.103021  0.100951  0  0.984852  0
H  H57  1  0.46288260  0.22825180  0.07279483  1  0.064713  0  0.103255  0.101371  0  0.985361  0
H  H58  1  0.96245131  0.84446985  0.07259489  1  0.071914  0  0.102987  0.10086  0  0.984954  0
H  H59  1  0.53711244  0.77175459  0.92720863  1  0.064378  0  0.103277  0.101378  0  0.985354  0
H  H60  1  0.04205088  0.10542872  0.79583333  1  0.099653  0  0.098124  0.102414  0  1.060311  0
H  H61  1  0.45790212  0.30967310  0.20430782  1  0.129866  0  0.097428  0.101061  0  1.060021  0
H  H62  1  0.95795141  0.89457334  0.20416482  1  0.099875  0  0.098129  0.102436  0  1.060332  0
H  H63  1  0.54210465  0.69032940  0.79569795  1  0.129836  0  0.097461  0.101047  0  1.06005  0
C  C64  1  0.31176057  0.99949966  0.63555466  1  -0.278964  0  -0.076536  -0.382195  0  3.720646  0
C  C65  1  0.18804993  0.36396780  0.36455188  1  -0.290888  0  -0.075816  -0.381363  0  3.720805  0
C  C66  1  0.68823980  0.00049868  0.36444392  1  -0.279216  0  -0.076506  -0.382113  0  3.720533  0
C  C67  1  0.81195239  0.63603179  0.63544487  1  -0.290541  0  -0.075842  -0.381428  0  3.720781  0
C  C68  1  0.04875324  0.27599413  0.66957536  1  1.595802  0  0.204395  0.609925  0  4.211509  0
C  C69  1  0.45109564  0.60652117  0.33064696  1  1.603974  0  0.203598  0.60974  0  4.21347  0
C  C70  1  0.95124414  0.72400236  0.33042446  1  1.595818  0  0.204455  0.609945  0  4.211389  0
C  C71  1  0.54890360  0.39347571  0.66934812  1  1.605237  0  0.203655  0.609848  0  4.213062  0
C  C72  1  0.12283026  0.16317666  0.62040732  1  0.15451  0  -0.071047  -0.266618  0  3.783368  0
C  C73  1  0.37703003  0.54288189  0.37980902  1  0.15031  0  -0.070308  -0.264584  0  3.78309  0
C  C74  1  0.87717012  0.83682274  0.37959231  1  0.154585  0  -0.071119  -0.266675  0  3.783351  0
C  C75  1  0.62296926  0.45711936  0.62019141  1  0.150593  0  -0.070329  -0.264684  0  3.783187  0
C  C76  1  0.07035352  0.95777035  0.66290861  1  0.166304  0  -0.063554  -0.131628  0  3.775198  0
C  C77  1  0.42940904  0.29486396  0.33718385  1  0.131196  0  -0.064257  -0.133322  0  3.774353  0
C  C78  1  0.92964794  0.04222771  0.33709072  1  0.166387  0  -0.063548  -0.131582  0  3.775128  0
C  C79  1  0.57059681  0.70513157  0.66281811  1  0.131392  0  -0.064195  -0.133311  0  3.77434  0
C  C80  1  0.12050132  0.86060757  0.70827911  1  0.024299  0  -0.022895  0.025234  0  3.964086  0
C  C81  1  0.37931229  0.15228467  0.29175229  1  0.032263  0  -0.022986  0.024736  0  3.964506  0
C  C82  1  0.87949802  0.13939070  0.29171939  1  0.024464  0  -0.022923  0.025206  0  3.964093  0
C  C83  1  0.62069357  0.84771191  0.70825071  1  0.032391  0  -0.022839  0.024906  0  3.964422  0
C  C84  1  0.16701474  0.73254529  0.67446506  1  -0.110057  0  -0.089973  -0.128643  0  3.970202  0
C  C85  1  0.33263224  0.05802741  0.32550211  1  -0.118444  0  -0.088461  -0.125409  0  3.96667  0
C  C86  1  0.83298161  0.26745164  0.32553520  1  -0.110172  0  -0.089894  -0.128553  0  3.970219  0
C  C87  1  0.66737148  0.94196937  0.67450006  1  -0.118681  0  -0.088564  -0.125667  0  3.966705  0
C  C88  1  0.20997991  0.63516991  0.71409442  1  -0.021468  0  -0.093832  -0.079131  0  4.030772  0
C  C89  1  0.28989116  0.92097173  0.28580047  1  -0.023377  0  -0.09439  -0.080531  0  4.029391  0
C  C90  1  0.79001648  0.36482667  0.28590650  1  -0.021518  0  -0.093855  -0.079248  0  4.030764  0
C  C91  1  0.71010726  0.07902589  0.71420048  1  -0.023409  0  -0.094442  -0.080478  0  4.02942  0
C  C92  1  0.20503260  0.66571028  0.78796360  1  -0.001105  0  -0.078682  -0.115551  0  3.968972  0
C  C93  1  0.29510193  0.87769897  0.21195908  1  0.004816  0  -0.078705  -0.115044  0  3.969392  0
C  C94  1  0.79496061  0.33428588  0.21203589  1  -0.001004  0  -0.078705  -0.115471  0  3.96895  0
C  C95  1  0.70489750  0.12229804  0.78804023  1  0.004806  0  -0.078642  -0.115085  0  3.969457  0
C  C96  1  0.15920373  0.79556219  0.82517275  1  -0.021264  0  -0.007072  0.076491  0  4.009502  0
C  C97  1  0.34099366  0.97038817  0.17482401  1  -0.112255  0  -0.007848  0.073614  0  4.01038  0
C  C98  1  0.84079765  0.20444028  0.17482889  1  -0.02128  0  -0.00706  0.076504  0  4.009498  0
C  C99  1  0.65900350  0.02961539  0.82517767  1  -0.112219  0  -0.00789  0.073584  0  4.010319  0
C  C100  1  0.15481283  0.82897008  0.90134315  1  -0.059561  0  -0.091772  -0.137953  0  3.995573  0
C  C101  1  0.34546460  0.92760516  0.09865073  1  -0.037426  0  -0.091985  -0.136917  0  3.996446  0
C  C102  1  0.84518624  0.17103614  0.09865708  1  -0.05964  0  -0.091762  -0.138012  0  3.995559  0
C  C103  1  0.65452744  0.07239622  0.90135084  1  -0.037388  0  -0.091909  -0.13679  0  3.996385  0
C  C104  1  0.11211311  0.95601177  0.93732956  1  -0.027906  0  -0.095008  -0.088063  0  4.044033  0
C  C105  1  0.38820981  0.01870126  0.06271239  1  -0.012988  0  -0.094542  -0.087456  0  4.044135  0
C  C106  1  0.88788488  0.04399474  0.06266991  1  -0.027925  0  -0.095009  -0.088075  0  4.044154  0
C  C107  1  0.61178319  0.98130303  0.93729001  1  -0.012977  0  -0.094524  -0.087522  0  4.044142  0
C  C108  1  0.07111518  0.05512762  0.89839866  1  -0.02397  0  -0.091395  -0.072744  0  4.019181  0
C  C109  1  0.42917114  0.15676589  0.10169217  1  -0.033484  0  -0.091522  -0.073201  0  4.018202  0
C  C110  1  0.92888796  0.94487650  0.10159742  1  -0.023821  0  -0.091356  -0.072485  0  4.019368  0
C  C111  1  0.57082928  0.84323525  0.89831020  1  -0.033147  0  -0.09154  -0.073174  0  4.018141  0
C  C112  1  0.07334682  0.02627813  0.82417037  1  -0.087518  0  -0.098257  -0.145196  0  3.993503  0
C  C113  1  0.42677587  0.20212828  0.17591284  1  -0.128178  0  -0.095927  -0.141659  0  3.99026  0
C  C114  1  0.92665646  0.97372332  0.17582616  1  -0.087778  0  -0.098208  -0.145275  0  3.993573  0
C  C115  1  0.57323402  0.79787235  0.82409109  1  -0.128126  0  -0.09599  -0.141693  0  3.990281  0
C  C116  1  0.11703060  0.89625051  0.78531407  1  -0.07567  0  -0.009182  0.024648  0  3.959824  0
C  C117  1  0.38304726  0.11095960  0.21474556  1  -0.034249  0  -0.010381  0.023565  0  3.96002  0
C  C118  1  0.88297186  0.10374800  0.21468468  1  -0.075646  0  -0.009244  0.024605  0  3.959708  0
C  C119  1  0.61695099  0.88904263  0.78525584  1  -0.034185  0  -0.01033  0.023617  0  3.959986  0
N  N120  1  0.18297685  0.06357632  0.66184952  1  -0.976137  0  -0.334016  0.08175  0  3.549214  0
N  N121  1  0.31685420  0.40180401  0.33830056  1  -0.964675  0  -0.334474  0.078775  0  3.549971  0
N  N122  1  0.81702661  0.93642369  0.33814968  1  -0.976231  0  -0.333952  0.08187  0  3.549134  0
N  N123  1  0.68315152  0.59819208  0.66169888  1  -0.964527  0  -0.334533  0.078795  0  3.549999  0
O  O124  1  0.40275298  0.81455803  0.52614029  1  -1.443641  0  -0.378999  -0.75513  0  2.354967  0
O  O125  1  0.09725941  0.28836371  0.47400541  1  -1.442261  0  -0.378566  -0.754632  0  2.355935  0
O  O126  1  0.59724739  0.18544137  0.47385933  1  -1.443744  0  -0.378979  -0.75513  0  2.354992  0
O  O127  1  0.90274097  0.71163517  0.52599369  1  -1.442234  0  -0.378599  -0.754698  0  2.355954  0
O  O128  1  0.32181143  0.04365969  0.50074189  1  -1.448654  0  -0.384559  -0.768859  0  2.386031  0
O  O129  1  0.17793709  0.54298531  0.49934506  1  -1.449368  0  -0.385251  -0.769067  0  2.384072  0
O  O130  1  0.67818895  0.95633866  0.49925669  1  -1.448695  0  -0.384589  -0.768858  0  2.385963  0
O  O131  1  0.82206750  0.45701300  0.50065452  1  -1.44937  0  -0.385289  -0.769083  0  2.38399  0
O  O132  1  0.14456321  0.86793363  0.50749286  1  -1.45659  0  -0.380155  -0.748036  0  2.349151  0
O  O133  1  0.35533639  0.36057051  0.49256273  1  -1.454547  0  -0.379954  -0.748714  0  2.34992  0
O  O134  1  0.85543816  0.13206622  0.49250618  1  -1.456459  0  -0.380173  -0.748049  0  2.349178  0
O  O135  1  0.64466381  0.63943192  0.50743579  1  -1.454543  0  -0.379968  -0.74881  0  2.349882  0
O  O136  1  0.97523948  0.35581785  0.63641840  1  -1.178034  0  -0.333782  -0.594654  0  2.326545  0
O  O137  1  0.52461592  0.71954618  0.36381779  1  -1.176282  0  -0.333862  -0.594609  0  2.328704  0
O  O138  1  0.02476198  0.64418179  0.36358250  1  -1.178049  0  -0.333775  -0.59461  0  2.326476  0
O  O139  1  0.47538220  0.28045503  0.63617952  1  -1.177974  0  -0.333855  -0.594637  0  2.328842  0
O  O140  1  0.06654527  0.28621206  0.73643536  1  -1.151197  0  -0.325661  -0.535874  0  2.06583  0
O  O141  1  0.43319289  0.54988022  0.26379505  1  -1.158481  0  -0.325286  -0.53626  0  2.066568  0
O  O142  1  0.93345316  0.71378346  0.26356350  1  -1.151233  0  -0.325657  -0.535846  0  2.065781  0
O  O143  1  0.56680337  0.45012060  0.73620700  1  -1.158395  0  -0.325351  -0.536348  0  2.065993  0
