# generated using pymatgen
data_AgH10C13SN3O4
_symmetry_space_group_name_H-M   'P 1'
_cell_length_a   6.97600015
_cell_length_b   8.41859326
_cell_length_c   24.42171834
_cell_angle_alpha   90.00009596
_cell_angle_beta   89.99983605
_cell_angle_gamma   110.00899415
_symmetry_Int_Tables_number   1
_chemical_formula_structural   AgH10C13SN3O4
_chemical_formula_sum   'Ag4 H40 C52 S4 N12 O16'
_cell_volume   1347.66895370
_cell_formula_units_Z   4
loop_
 _symmetry_equiv_pos_site_id
 _symmetry_equiv_pos_as_xyz
  1  'x, y, z'
loop_
 _atom_site_type_symbol
 _atom_site_label
 _atom_site_symmetry_multiplicity
 _atom_site_fract_x
 _atom_site_fract_y
 _atom_site_fract_z
 _atom_site_occupancy
 _atom_site_hle17_bader_spin_density
 _atom_site_hle17_ddec_charge
 _atom_site_hle17_ddec_spin_density
 _atom_site_hle17_ddec_sum_bond_order
 _atom_site_hle17_magmom
 _atom_site_hse06_10hf_bader_spin_density
 _atom_site_hse06_10hf_ddec_charge
 _atom_site_hse06_10hf_ddec_spin_density
 _atom_site_hse06_10hf_ddec_sum_bond_order
 _atom_site_hse06_10hf_magmom
 _atom_site_hse06_bader_spin_density
 _atom_site_hse06_ddec_charge
 _atom_site_hse06_ddec_spin_density
 _atom_site_hse06_ddec_sum_bond_order
 _atom_site_hse06_magmom
 _atom_site_pbe_bader_spin_density
 _atom_site_pbe_cm5_charge
 _atom_site_pbe_ddec_charge
 _atom_site_pbe_ddec_spin_density
 _atom_site_pbe_ddec_sum_bond_order
 _atom_site_pbe_magmom
Ag  Ag0  1  0.60148038  0.62129766  0.45445894  1  0  0.560422  0  1.426272  0  0  0.419941  0  1.890187  0  0  0.452395  0  1.835918  0  0  0.453931  0.397887  0  1.927382  0
Ag  Ag1  1  0.89852179  0.87870273  0.95445729  1  0  0.560395  0  1.42631  0  0  0.419918  0  1.890216  0  0  0.452368  0  1.835954  0  0  0.453926  0.397861  0  1.927396  0
Ag  Ag2  1  0.39852210  0.37870352  0.54554345  1  0  0.560443  0  1.426339  0  0  0.419973  0  1.89027  0  0  0.452425  0  1.836003  0  0  0.453939  0.397919  0  1.927461  0
Ag  Ag3  1  0.10147679  0.12129590  0.04554183  1  0  0.560393  0  1.426272  0  0  0.419922  0  1.890187  0  0  0.452377  0  1.835921  0  0  0.453928  0.397863  0  1.927378  0
H  H4  1  0.44199048  0.11797443  0.24809541  1  0  0.11303  0  0.946216  0  0  0.123906  0  1.004713  0  0  0.127167  0  1.00275  0  0  0.110002  0.12149  0  1.006285  0
H  H5  1  0.05801579  0.38202677  0.74809405  1  0  0.113039  0  0.946184  0  0  0.123902  0  1.004698  0  0  0.127162  0  1.002735  0  0  0.109999  0.121503  0  1.006249  0
H  H6  1  0.55800831  0.88203177  0.75190575  1  0  0.113021  0  0.946226  0  0  0.1239  0  1.004711  0  0  0.127168  0  1.002737  0  0  0.109985  0.121481  0  1.006286  0
H  H7  1  0.94199141  0.61797191  0.25190466  1  0  0.113012  0  0.946237  0  0  0.123884  0  1.00474  0  0  0.127155  0  1.002763  0  0  0.109991  0.121462  0  1.006314  0
H  H8  1  0.32451915  0.80633664  0.26012307  1  0  0.094834  0  0.952733  0  0  0.106202  0  1.01176  0  0  0.108769  0  1.010967  0  0  0.103857  0.104307  0  1.01247  0
H  H9  1  0.17547732  0.69366414  0.76012232  1  0  0.094823  0  0.952726  0  0  0.106186  0  1.011761  0  0  0.108755  0  1.010964  0  0  0.103852  0.104292  0  1.012465  0
H  H10  1  0.67547717  0.19366703  0.73987727  1  0  0.094802  0  0.952734  0  0  0.106165  0  1.01177  0  0  0.108734  0  1.010972  0  0  0.103846  0.104269  0  1.012475  0
H  H11  1  0.82452608  0.30633579  0.23987680  1  0  0.094805  0  0.952784  0  0  0.106174  0  1.011818  0  0  0.108735  0  1.01103  0  0  0.10384  0.104278  0  1.012521  0
H  H12  1  0.26483636  0.67842996  0.35264685  1  0  0.098578  0  0.966686  0  0  0.10699  0  1.031431  0  0  0.11049  0  1.029092  0  0  0.101256  0.104451  0  1.033204  0
H  H13  1  0.23515449  0.82156974  0.85264571  1  0  0.098615  0  0.966633  0  0  0.107014  0  1.031397  0  0  0.110514  0  1.029056  0  0  0.101259  0.104472  0  1.033168  0
H  H14  1  0.73515606  0.32157116  0.64735390  1  0  0.098594  0  0.966646  0  0  0.106998  0  1.031406  0  0  0.110497  0  1.029068  0  0  0.101263  0.104455  0  1.033179  0
H  H15  1  0.76484502  0.17842764  0.14735381  1  0  0.098545  0  0.96669  0  0  0.106954  0  1.031443  0  0  0.110453  0  1.029105  0  0  0.101234  0.104415  0  1.033217  0
H  H16  1  0.31586969  0.86174160  0.43629866  1  0  0.118108  0  0.931517  0  0  0.127267  0  0.993544  0  0  0.130948  0  0.990675  0  0  0.112698  0.124551  0  0.995798  0
H  H17  1  0.18412525  0.63825958  0.93629786  1  0  0.118094  0  0.931597  0  0  0.127301  0  0.993572  0  0  0.130982  0  0.990705  0  0  0.11272  0.124582  0  0.995827  0
H  H18  1  0.68412181  0.13826077  0.56370169  1  0  0.118096  0  0.931579  0  0  0.127273  0  0.993598  0  0  0.130954  0  0.99073  0  0  0.112715  0.124554  0  0.995858  0
H  H19  1  0.81587856  0.36173782  0.06370167  1  0  0.118097  0  0.931557  0  0  0.127272  0  0.993584  0  0  0.130954  0  0.990714  0  0  0.112724  0.124556  0  0.995835  0
H  H20  1  0.84088957  0.99803406  0.47759123  1  0  0.093078  0  0.960971  0  0  0.09543  0  1.035172  0  0  0.099106  0  1.030957  0  0  0.117386  0.092745  0  1.038184  0
H  H21  1  0.65911332  0.50196512  0.97759078  1  0  0.093006  0  0.960977  0  0  0.095399  0  1.035152  0  0  0.099072  0  1.030938  0  0  0.11735  0.092713  0  1.038155  0
H  H22  1  0.15911281  0.00196333  0.52240912  1  0  0.093017  0  0.961064  0  0  0.09544  0  1.035198  0  0  0.099119  0  1.030988  0  0  0.117369  0.092748  0  1.038218  0
H  H23  1  0.34088957  0.49803354  0.02240874  1  0  0.093015  0  0.960956  0  0  0.095375  0  1.035168  0  0  0.099051  0  1.030953  0  0  0.11735  0.092691  0  1.038172  0
H  H24  1  0.03897526  0.30141070  0.33248528  1  0  0.103892  0  0.950781  0  0  0.117495  0  1.007807  0  0  0.120462  0  1.005234  0  0  0.109376  0.115249  0  1.009788  0
H  H25  1  0.46102115  0.19858938  0.83248428  1  0  0.103855  0  0.95079  0  0  0.117458  0  1.007826  0  0  0.120424  0  1.005254  0  0  0.109355  0.115232  0  1.009786  0
H  H26  1  0.96102096  0.69858918  0.66751589  1  0  0.103851  0  0.950799  0  0  0.117456  0  1.00784  0  0  0.120423  0  1.005268  0  0  0.109346  0.115228  0  1.009805  0
H  H27  1  0.53897128  0.80141174  0.16751402  1  0  0.103912  0  0.950809  0  0  0.117509  0  1.007842  0  0  0.120476  0  1.005268  0  0  0.109385  0.115254  0  1.009839  0
H  H28  1  0.92437307  0.03206114  0.27789980  1  0  0.112522  0  0.96378  0  0  0.122254  0  1.02149  0  0  0.125857  0  1.020426  0  0  0.10397  0.119701  0  1.02236  0
H  H29  1  0.57562975  0.46793798  0.77789970  1  0  0.112612  0  0.963757  0  0  0.122318  0  1.021489  0  0  0.125924  0  1.020421  0  0  0.104012  0.119766  0  1.022354  0
H  H30  1  0.07562746  0.96793876  0.72210014  1  0  0.112567  0  0.963814  0  0  0.12229  0  1.02153  0  0  0.125893  0  1.020466  0  0  0.103977  0.119737  0  1.022395  0
H  H31  1  0.42436985  0.53206318  0.22209983  1  0  0.112505  0  0.963754  0  0  0.122219  0  1.021488  0  0  0.125823  0  1.020423  0  0  0.10396  0.119666  0  1.022352  0
H  H32  1  0.76712966  0.75857140  0.32705960  1  0  0.074393  0  0.954679  0  0  0.080219  0  1.023646  0  0  0.083345  0  1.020264  0  0  0.108929  0.077902  0  1.026076  0
H  H33  1  0.73287834  0.74142620  0.82705842  1  0  0.074424  0  0.954614  0  0  0.080235  0  1.023592  0  0  0.083371  0  1.020198  0  0  0.108934  0.077921  0  1.026017  0
H  H34  1  0.23287560  0.24142601  0.67294074  1  0  0.074421  0  0.954583  0  0  0.08023  0  1.023563  0  0  0.083367  0  1.020169  0  0  0.108947  0.077915  0  1.025986  0
H  H35  1  0.26713174  0.25857250  0.17294029  1  0  0.074373  0  0.954672  0  0  0.080196  0  1.023644  0  0  0.083321  0  1.020264  0  0  0.108925  0.077881  0  1.02607  0
H  H36  1  0.00802215  0.56190259  0.45308499  1  0  0.33989  0  0.927942  0  0  0.322491  0  0.988205  0  0  0.331675  0  0.980376  0  0  0.294956  0.315975  0  0.9938  0
H  H37  1  0.49197357  0.93809737  0.95308493  1  0  0.339806  0  0.927958  0  0  0.322426  0  0.988215  0  0  0.33161  0  0.980386  0  0  0.294919  0.315909  0  0.993812  0
H  H38  1  0.99197212  0.43809602  0.54691577  1  0  0.339883  0  0.927949  0  0  0.322492  0  0.988196  0  0  0.331674  0  0.980373  0  0  0.294961  0.315976  0  0.993788  0
H  H39  1  0.50802460  0.06190378  0.04691419  1  0  0.33985  0  0.927939  0  0  0.322472  0  0.988187  0  0  0.331657  0  0.980356  0  0  0.294929  0.315954  0  0.993785  0
H  H40  1  0.93963780  0.46919067  0.38829183  1  0  0.330462  0  0.92373  0  0  0.311542  0  0.989442  0  0  0.319513  0  0.983163  0  0  0.296933  0.305914  0  0.99387  0
H  H41  1  0.56036036  0.03081373  0.88829435  1  0  0.330383  0  0.923875  0  0  0.311476  0  0.989563  0  0  0.319448  0  0.983282  0  0  0.296968  0.305851  0  0.993981  0
H  H42  1  0.06036232  0.53081176  0.61170647  1  0  0.330359  0  0.923886  0  0  0.311463  0  0.989565  0  0  0.319434  0  0.983287  0  0  0.296953  0.305836  0  0.993988  0
H  H43  1  0.43963647  0.96919120  0.11170682  1  0  0.330399  0  0.923781  0  0  0.311516  0  0.98946  0  0  0.319489  0  0.983175  0  0  0.296934  0.30589  0  0.993884  0
C  C44  1  0.44780147  0.16073525  0.33592790  1  0  -0.145207  0  3.783924  0  0  -0.125177  0  4.02892  0  0  -0.131327  0  4.052527  0  0  -0.01725  -0.121158  0  4.013355  0
C  C45  1  0.05219685  0.33926611  0.83592733  1  0  -0.145359  0  3.784116  0  0  -0.125329  0  4.029101  0  0  -0.131481  0  4.05271  0  0  -0.017328  -0.121318  0  4.013548  0
C  C46  1  0.55219434  0.83926715  0.66407327  1  0  -0.145321  0  3.784108  0  0  -0.125281  0  4.029106  0  0  -0.131434  0  4.052715  0  0  -0.017307  -0.121257  0  4.013542  0
C  C47  1  0.94780317  0.66073253  0.16407219  1  0  -0.145455  0  3.784164  0  0  -0.125409  0  4.029153  0  0  -0.131563  0  4.052765  0  0  -0.017345  -0.121398  0  4.013606  0
C  C48  1  0.41742437  0.06299364  0.28893528  1  0  -0.052293  0  3.730298  0  0  -0.078923  0  3.982914  0  0  -0.078447  0  4.001294  0  0  -0.079856  -0.079191  0  3.970654  0
C  C49  1  0.08257959  0.43700638  0.78893475  1  0  -0.052292  0  3.730373  0  0  -0.078902  0  3.982984  0  0  -0.078426  0  4.001365  0  0  -0.079857  -0.079178  0  3.970712  0
C  C50  1  0.58257575  0.93700878  0.71106506  1  0  -0.052308  0  3.730349  0  0  -0.078939  0  3.982971  0  0  -0.078468  0  4.001351  0  0  -0.079884  -0.079206  0  3.970712  0
C  C51  1  0.91742710  0.56299104  0.21106478  1  0  -0.052205  0  3.730342  0  0  -0.078844  0  3.982979  0  0  -0.078374  0  4.001354  0  0  -0.079867  -0.079101  0  3.970715  0
C  C52  1  0.34946959  0.88736404  0.29612629  1  0  -0.048264  0  3.709173  0  0  -0.064895  0  3.963302  0  0  -0.065872  0  3.98249  0  0  -0.079544  -0.064217  0  3.950391  0
C  C53  1  0.15052749  0.61263556  0.79612428  1  0  -0.048203  0  3.709153  0  0  -0.064835  0  3.963273  0  0  -0.065813  0  3.982461  0  0  -0.0795  -0.064158  0  3.950358  0
C  C54  1  0.65052529  0.11263962  0.70387529  1  0  -0.048211  0  3.709106  0  0  -0.064837  0  3.963231  0  0  -0.065816  0  3.982421  0  0  -0.079502  -0.064157  0  3.950308  0
C  C55  1  0.84947581  0.38736057  0.20387443  1  0  -0.048308  0  3.709072  0  0  -0.064941  0  3.963207  0  0  -0.065913  0  3.9824  0  0  -0.079562  -0.064257  0  3.95028  0
C  C56  1  0.31347290  0.81533621  0.34841785  1  0  -0.056992  0  3.711664  0  0  -0.072942  0  3.966871  0  0  -0.074121  0  3.985362  0  0  -0.080036  -0.072173  0  3.954523  0
C  C57  1  0.18652280  0.68466476  0.84841626  1  0  -0.056945  0  3.71147  0  0  -0.07288  0  3.966684  0  0  -0.074056  0  3.985176  0  0  -0.080011  -0.072112  0  3.954328  0
C  C58  1  0.68652249  0.18466871  0.65158291  1  0  -0.056894  0  3.711581  0  0  -0.072827  0  3.966796  0  0  -0.074003  0  3.985284  0  0  -0.079995  -0.072054  0  3.954437  0
C  C59  1  0.81348009  0.31533389  0.15158245  1  0  -0.056846  0  3.71144  0  0  -0.07277  0  3.966658  0  0  -0.073946  0  3.985146  0  0  -0.079928  -0.072009  0  3.954311  0
C  C60  1  0.34355845  0.91656095  0.39536092  1  0  -0.034516  0  3.653255  0  0  -0.059273  0  3.903961  0  0  -0.058215  0  3.921595  0  0  -0.067068  -0.060036  0  3.892314  0
C  C61  1  0.15643685  0.58344014  0.89536053  1  0  -0.034682  0  3.653229  0  0  -0.059496  0  3.903972  0  0  -0.058441  0  3.921606  0  0  -0.067183  -0.06025  0  3.892317  0
C  C62  1  0.65643695  0.08344397  0.60463902  1  0  -0.034644  0  3.653346  0  0  -0.059431  0  3.904064  0  0  -0.05838  0  3.921706  0  0  -0.067181  -0.060184  0  3.892423  0
C  C63  1  0.84356696  0.41655726  0.10463900  1  0  -0.034568  0  3.653266  0  0  -0.059373  0  3.904013  0  0  -0.058321  0  3.921657  0  0  -0.067155  -0.060122  0  3.892363  0
C  C64  1  0.41217555  0.09130009  0.38854950  1  0  -0.060225  0  3.787852  0  0  -0.044987  0  4.020233  0  0  -0.051809  0  4.045165  0  0  -0.010331  -0.040601  0  4.003788  0
C  C65  1  0.08782375  0.40870141  0.88854771  1  0  -0.060067  0  3.787782  0  0  -0.044809  0  4.020149  0  0  -0.05163  0  4.045083  0  0  -0.010284  -0.040426  0  4.003708  0
C  C66  1  0.58781985  0.90870483  0.61145208  1  0  -0.060164  0  3.787723  0  0  -0.044912  0  4.020115  0  0  -0.05173  0  4.045044  0  0  -0.010282  -0.040544  0  4.003699  0
C  C67  1  0.91218006  0.59129600  0.11145140  1  0  -0.060087  0  3.787705  0  0  -0.04481  0  4.020087  0  0  -0.051632  0  4.04502  0  0  -0.010242  -0.040437  0  4.003669  0
C  C68  1  0.45204249  0.22508447  0.43146214  1  0  0.550881  0  3.886224  0  0  0.501345  0  4.169193  0  0  0.532996  0  4.171247  0  0  0.226081  0.479826  0  4.167126  0
C  C69  1  0.04795839  0.27491839  0.93146318  1  0  0.550663  0  3.886784  0  0  0.501127  0  4.16977  0  0  0.532775  0  4.171829  0  0  0.225968  0.479601  0  4.167718  0
C  C70  1  0.54795773  0.77492174  0.56853657  1  0  0.550838  0  3.886526  0  0  0.501318  0  4.169497  0  0  0.532967  0  4.171551  0  0  0.226037  0.479796  0  4.167451  0
C  C71  1  0.95204306  0.72508025  0.06853757  1  0  0.550816  0  3.886357  0  0  0.501226  0  4.16941  0  0  0.532875  0  4.171466  0  0  0.225988  0.479697  0  4.167364  0
C  C72  1  0.86235292  0.00966697  0.43349452  1  0  0.13167  0  3.657132  0  0  0.091188  0  3.906212  0  0  0.099852  0  3.923178  0  0  0.053829  0.085693  0  3.894684  0
C  C73  1  0.63765245  0.49033504  0.93349438  1  0  0.131737  0  3.656985  0  0  0.091186  0  3.906133  0  0  0.099851  0  3.923099  0  0  0.053868  0.085698  0  3.894592  0
C  C74  1  0.13765294  0.99033548  0.56650501  1  0  0.13179  0  3.656994  0  0  0.091234  0  3.906124  0  0  0.099891  0  3.923096  0  0  0.053879  0.085749  0  3.894592  0
C  C75  1  0.36235291  0.50966615  0.06650473  1  0  0.131732  0  3.656997  0  0  0.091203  0  3.906105  0  0  0.099868  0  3.923069  0  0  0.05384  0.08572  0  3.894564  0
C  C76  1  0.94614434  0.16957746  0.40962725  1  0  -0.122626  0  3.74852  0  0  -0.093635  0  3.983343  0  0  -0.107333  0  4.009247  0  0  -0.016223  -0.084982  0  3.966172  0
C  C77  1  0.55385303  0.33042194  0.90962627  1  0  -0.122651  0  3.748545  0  0  -0.093691  0  3.9834  0  0  -0.107389  0  4.009306  0  0  -0.016236  -0.085049  0  3.966247  0
C  C78  1  0.05385280  0.83042116  0.59037391  1  0  -0.122631  0  3.74853  0  0  -0.093705  0  3.983409  0  0  -0.107403  0  4.009315  0  0  -0.016227  -0.085059  0  3.966253  0
C  C79  1  0.44613981  0.66957666  0.09037285  1  0  -0.122668  0  3.74854  0  0  -0.093629  0  3.983322  0  0  -0.107327  0  4.009226  0  0  -0.016209  -0.084981  0  3.96616  0
C  C80  1  0.96925837  0.17991013  0.35267139  1  0  -0.022719  0  3.706557  0  0  -0.057382  0  3.960625  0  0  -0.051762  0  3.978818  0  0  -0.068459  -0.060684  0  3.948302  0
C  C81  1  0.53074288  0.32009041  0.85267083  1  0  -0.022602  0  3.706603  0  0  -0.057269  0  3.96067  0  0  -0.05165  0  3.978863  0  0  -0.068426  -0.060588  0  3.948345  0
C  C82  1  0.03074165  0.82008851  0.64732937  1  0  -0.02267  0  3.706581  0  0  -0.057347  0  3.960697  0  0  -0.051725  0  3.978886  0  0  -0.068468  -0.060663  0  3.94837  0
C  C83  1  0.46925580  0.67991200  0.14732870  1  0  -0.022695  0  3.706623  0  0  -0.057388  0  3.960688  0  0  -0.051769  0  3.978881  0  0  -0.068472  -0.060686  0  3.948384  0
C  C84  1  0.90742095  0.03098538  0.32228489  1  0  -0.125319  0  3.737157  0  0  -0.133187  0  3.986602  0  0  -0.142587  0  4.010063  0  0  -0.087595  -0.127232  0  3.970925  0
C  C85  1  0.59258333  0.46901132  0.82228437  1  0  -0.125487  0  3.737238  0  0  -0.133326  0  3.98666  0  0  -0.142728  0  4.010121  0  0  -0.087679  -0.127368  0  3.970983  0
C  C86  1  0.09258245  0.96901454  0.67771587  1  0  -0.125432  0  3.737226  0  0  -0.133285  0  3.98666  0  0  -0.142686  0  4.010121  0  0  -0.087604  -0.127324  0  3.970978  0
C  C87  1  0.40741761  0.53098606  0.17771516  1  0  -0.125343  0  3.737074  0  0  -0.133186  0  3.98652  0  0  -0.142586  0  4.009979  0  0  -0.087586  -0.127222  0  3.970831  0
C  C88  1  0.82086664  0.87758195  0.34954042  1  0  0.127685  0  3.713266  0  0  0.098193  0  3.964502  0  0  0.105799  0  3.983369  0  0  0.046028  0.093443  0  3.951597  0
C  C89  1  0.67913880  0.62241695  0.84953881  1  0  0.12758  0  3.713232  0  0  0.098104  0  3.964443  0  0  0.105702  0  3.983308  0  0  0.046002  0.093348  0  3.951537  0
C  C90  1  0.17913625  0.12241670  0.65046033  1  0  0.127668  0  3.713186  0  0  0.09821  0  3.964397  0  0  0.105808  0  3.98326  0  0  0.045997  0.093453  0  3.951486  0
C  C91  1  0.32086553  0.37758172  0.15045949  1  0  0.127733  0  3.713197  0  0  0.098249  0  3.964415  0  0  0.105855  0  3.983283  0  0  0.046048  0.093492  0  3.951512  0
C  C92  1  0.99896997  0.31873378  0.44693628  1  0  0.622412  0  3.83893  0  0  0.57138  0  4.124675  0  0  0.602206  0  4.124282  0  0  0.239848  0.550575  0  4.124379  0
C  C93  1  0.50102820  0.18127201  0.94693894  1  0  0.622294  0  3.838995  0  0  0.571349  0  4.124615  0  0  0.602172  0  4.124225  0  0  0.239871  0.550538  0  4.12433  0
C  C94  1  0.00102687  0.68127114  0.55306202  1  0  0.62231  0  3.838868  0  0  0.571417  0  4.124432  0  0  0.602241  0  4.124041  0  0  0.23991  0.550608  0  4.124146  0
C  C95  1  0.49897294  0.81873294  0.05306345  1  0  0.622386  0  3.838936  0  0  0.571385  0  4.12464  0  0  0.60221  0  4.124251  0  0  0.239867  0.55057  0  4.124357  0
S  S96  1  0.53155705  0.38340930  0.34301875  1  0  1.223266  0  5.386619  0  0  1.135045  0  5.89357  0  0  1.180646  0  5.878698  0  0  0.554575  1.103503  0  5.902943  0
S  S97  1  0.96844572  0.11659123  0.84301893  1  0  1.223243  0  5.386682  0  0  1.135014  0  5.893631  0  0  1.180616  0  5.878762  0  0  0.554627  1.103477  0  5.902996  0
S  S98  1  0.46844594  0.61659314  0.65698160  1  0  1.223182  0  5.386632  0  0  1.134951  0  5.893594  0  0  1.180552  0  5.878724  0  0  0.554558  1.103421  0  5.902943  0
S  S99  1  0.03155184  0.88340488  0.15698101  1  0  1.223108  0  5.386427  0  0  1.134888  0  5.893388  0  0  1.18049  0  5.87852  0  0  0.554541  1.103359  0  5.902744  0
N  N100  1  0.50341229  0.38333099  0.40997515  1  0  -0.694194  0  3.163432  0  0  -0.614822  0  3.495374  0  0  -0.646769  0  3.495064  0  0  -0.419154  -0.592851  0  3.494667  0
N  N101  1  0.99659134  0.11666970  0.90997448  1  0  -0.694112  0  3.16337  0  0  -0.614755  0  3.495336  0  0  -0.646704  0  3.495032  0  0  -0.419177  -0.592771  0  3.494601  0
N  N102  1  0.49659214  0.61667146  0.59002520  1  0  -0.694273  0  3.163235  0  0  -0.61493  0  3.495222  0  0  -0.646876  0  3.494909  0  0  -0.419224  -0.592952  0  3.494505  0
N  N103  1  0.00340283  0.88332512  0.09002505  1  0  -0.694128  0  3.163324  0  0  -0.614786  0  3.495354  0  0  -0.646733  0  3.495045  0  0  -0.419171  -0.5928  0  3.494616  0
N  N104  1  0.79765377  0.86625992  0.40430071  1  0  -0.309836  0  3.235367  0  0  -0.236271  0  3.514833  0  0  -0.254963  0  3.530711  0  0  -0.330932  -0.22362  0  3.503742  0
N  N105  1  0.70235406  0.63373912  0.90429907  1  0  -0.309723  0  3.235242  0  0  -0.236136  0  3.514706  0  0  -0.254829  0  3.530589  0  0  -0.330893  -0.223486  0  3.503613  0
N  N106  1  0.20235445  0.13374129  0.59570046  1  0  -0.30983  0  3.235245  0  0  -0.236269  0  3.514743  0  0  -0.254961  0  3.530626  0  0  -0.330921  -0.22362  0  3.503654  0
N  N107  1  0.29765263  0.36625829  0.09569964  1  0  -0.309838  0  3.235281  0  0  -0.236264  0  3.514768  0  0  -0.254957  0  3.530646  0  0  -0.33093  -0.223617  0  3.503682  0
N  N108  1  0.00518585  0.46717590  0.42558935  1  0  -0.684794  0  3.098348  0  0  -0.647604  0  3.33661  0  0  -0.671502  0  3.330481  0  0  -0.570596  -0.631183  0  3.340573  0
N  N109  1  0.49481303  0.03282189  0.92558782  1  0  -0.684662  0  3.098183  0  0  -0.647515  0  3.336367  0  0  -0.671416  0  3.330244  0  0  -0.570663  -0.631086  0  3.340324  0
N  N110  1  0.99481263  0.53281895  0.57441222  1  0  -0.68469  0  3.09816  0  0  -0.647564  0  3.336363  0  0  -0.671463  0  3.330238  0  0  -0.570685  -0.631137  0  3.34032  0
N  N111  1  0.50518453  0.96717421  0.07441007  1  0  -0.684696  0  3.098376  0  0  -0.647571  0  3.336573  0  0  -0.671471  0  3.330445  0  0  -0.570587  -0.631144  0  3.340538  0
O  O112  1  0.39829434  0.45736724  0.31526198  1  0  -0.591103  0  1.921485  0  0  -0.541708  0  2.157654  0  0  -0.563436  0  2.146266  0  0  -0.306051  -0.526191  0  2.164773  0
O  O113  1  0.10170662  0.04263661  0.81526078  1  0  -0.591081  0  1.921556  0  0  -0.541685  0  2.157732  0  0  -0.56341  0  2.146339  0  0  -0.306044  -0.526171  0  2.164853  0
O  O114  1  0.60171029  0.54264277  0.68473919  1  0  -0.591048  0  1.92162  0  0  -0.54163  0  2.157773  0  0  -0.563361  0  2.146392  0  0  -0.306018  -0.526124  0  2.1649  0
O  O115  1  0.89828324  0.95735819  0.18473915  1  0  -0.591062  0  1.92141  0  0  -0.541648  0  2.157567  0  0  -0.563374  0  2.146177  0  0  -0.306021  -0.526129  0  2.164674  0
O  O116  1  0.74769735  0.45876865  0.32900001  1  0  -0.622579  0  1.967483  0  0  -0.567478  0  2.21249  0  0  -0.590042  0  2.201153  0  0  -0.307567  -0.551468  0  2.219679  0
O  O117  1  0.75230688  0.04122807  0.82899992  1  0  -0.622539  0  1.967444  0  0  -0.567432  0  2.212445  0  0  -0.589998  0  2.201111  0  0  -0.30757  -0.551424  0  2.219638  0
O  O118  1  0.25230555  0.54123001  0.67099993  1  0  -0.622532  0  1.967428  0  0  -0.567427  0  2.212429  0  0  -0.589992  0  2.201094  0  0  -0.307567  -0.551423  0  2.219622  0
O  O119  1  0.24769221  0.95877182  0.17099961  1  0  -0.622459  0  1.967333  0  0  -0.567368  0  2.212344  0  0  -0.589933  0  2.201006  0  0  -0.307547  -0.551361  0  2.219532  0
O  O120  1  0.43786562  0.19271191  0.48167032  1  0  -0.521404  0  2.06403  0  0  -0.450241  0  2.321601  0  0  -0.476943  0  2.311733  0  0  -0.287374  -0.431672  0  2.327736  0
O  O121  1  0.06213236  0.30728853  0.98166645  1  0  -0.521214  0  2.064591  0  0  -0.450065  0  2.322164  0  0  -0.476764  0  2.312297  0  0  -0.287234  -0.431498  0  2.328301  0
O  O122  1  0.56212967  0.80728922  0.51833290  1  0  -0.521209  0  2.064522  0  0  -0.450064  0  2.322091  0  0  -0.476761  0  2.31222  0  0  -0.287229  -0.4315  0  2.328237  0
O  O123  1  0.93787433  0.69270889  0.01833021  1  0  -0.521332  0  2.064213  0  0  -0.450122  0  2.321773  0  0  -0.47682  0  2.311902  0  0  -0.287245  -0.431549  0  2.327905  0
O  O124  1  0.03210448  0.30015118  0.49682261  1  0  -0.603048  0  1.996626  0  0  -0.542371  0  2.23548  0  0  -0.5661  0  2.225837  0  0  -0.305586  -0.525965  0  2.241767  0
O  O125  1  0.46788998  0.19984801  0.99681956  1  0  -0.602935  0  1.996901  0  0  -0.542282  0  2.2357  0  0  -0.566009  0  2.226058  0  0  -0.305566  -0.525877  0  2.241994  0
O  O126  1  0.96788589  0.69984488  0.50318060  1  0  -0.602993  0  1.996797  0  0  -0.542348  0  2.235588  0  0  -0.566077  0  2.225948  0  0  -0.305624  -0.525933  0  2.24186  0
O  O127  1  0.53210860  0.80015062  0.00317710  1  0  -0.602993  0  1.996563  0  0  -0.542349  0  2.235421  0  0  -0.56608  0  2.22578  0  0  -0.305598  -0.525935  0  2.24171  0
