# generated using pymatgen
data_NiH18C17N2O5
_symmetry_space_group_name_H-M   'P 1'
_cell_length_a   8.51271024
_cell_length_b   9.31242079
_cell_length_c   11.61948789
_cell_angle_alpha   91.60106143
_cell_angle_beta   101.73037435
_cell_angle_gamma   109.78147139
_symmetry_Int_Tables_number   1
_chemical_formula_structural   NiH18C17N2O5
_chemical_formula_sum   'Ni2 H36 C34 N4 O10'
_cell_volume   843.97333280
_cell_formula_units_Z   2
loop_
 _symmetry_equiv_pos_site_id
 _symmetry_equiv_pos_as_xyz
  1  'x, y, z'
loop_
 _atom_site_type_symbol
 _atom_site_label
 _atom_site_symmetry_multiplicity
 _atom_site_fract_x
 _atom_site_fract_y
 _atom_site_fract_z
 _atom_site_occupancy
 _atom_site_hle17_ddec_charge
 _atom_site_hle17_ddec_spin_density
 _atom_site_hle17_ddec_sum_bond_order
 _atom_site_hle17_magmom
 _atom_site_hse06_10hf_ddec_charge
 _atom_site_hse06_10hf_ddec_spin_density
 _atom_site_hse06_10hf_ddec_sum_bond_order
 _atom_site_hse06_10hf_magmom
 _atom_site_hse06_ddec_charge
 _atom_site_hse06_ddec_spin_density
 _atom_site_hse06_ddec_sum_bond_order
 _atom_site_hse06_magmom
 _atom_site_pbe_cm5_charge
 _atom_site_pbe_ddec_charge
 _atom_site_pbe_ddec_spin_density
 _atom_site_pbe_ddec_sum_bond_order
 _atom_site_pbe_magmom
Ni  Ni0  1  0.74530591  0.67585302  0.41895315  1  0.816235  1.862584  2.014281  1.497  0.813326  1.863771  2.408967  1.614  0.908401  1.926098  2.330608  1.703  0.640908  0.746079  1.810397  2.465445  1.537
Ni  Ni1  1  0.25469454  0.32414703  0.58104801  1  0.81622  -1.862591  2.014419  -1.497  0.813281  -1.863768  2.409154  -1.614  0.908322  -1.926093  2.330781  -1.703  0.640885  0.746014  -1.810392  2.465635  -1.537
H  H2  1  0.67953173  0.41780800  0.32860291  1  0.402449  -0.00033  0.919459  -0.002  0.371362  0.000168  0.985584  0.0  0.383947  9e-06  0.967941  -0.001  0.277779  0.362512  0.000334  0.997931  0.0
H  H3  1  0.32046826  0.58219091  0.67139815  1  0.402472  0.00033  0.919436  0.002  0.371386  -0.000168  0.985558  0.0  0.383972  -9e-06  0.967914  0.001  0.277796  0.362536  -0.000334  0.997906  0.0
H  H4  1  0.63970970  0.39599750  0.45862914  1  0.409128  -0.000436  0.904025  -0.001  0.380499  2.3e-05  0.966734  0.0  0.392648  -2e-06  0.949493  0.0  0.283625  0.371926  3.3e-05  0.978722  0.0
H  H5  1  0.36028625  0.60400024  0.54137129  1  0.409121  0.000437  0.904044  0.001  0.380426  -2.3e-05  0.966828  0.0  0.392574  2e-06  0.949592  0.0  0.283594  0.371853  -3.3e-05  0.978816  0.0
H  H6  1  0.36875261  0.86481469  0.54187088  1  0.117935  -0.000339  0.954799  0.0  0.127084  -0.000245  1.01529  0.0  0.130795  -0.00017  1.012962  0.0  0.110548  0.124615  -0.000123  1.017  0.001
H  H7  1  0.63124183  0.13518534  0.45813025  1  0.117923  0.000342  0.954768  0.0  0.127074  0.000245  1.015243  0.0  0.130783  0.00017  1.012913  0.0  0.110516  0.124605  0.000123  1.016952  -0.001
H  H8  1  0.51179185  0.66616929  0.02881991  1  0.115023  -0.000209  0.946649  0.0  0.123565  -1.3e-05  1.007425  0.0  0.128006  -1.6e-05  1.004119  0.0  0.104016  0.120215  -8e-06  1.010424  0.0
H  H9  1  0.48820740  0.33383077  0.97117935  1  0.115011  0.000212  0.946667  0.0  0.123564  1.3e-05  1.007438  0.0  0.127989  1.6e-05  1.00415  0.0  0.104014  0.120215  9e-06  1.010438  0.0
H  H10  1  0.87433076  0.92525288  0.29221188  1  0.085183  0.000862  0.970762  0.002  0.091954  0.000617  1.037327  0.002  0.09382  0.000425  1.035589  0.001  0.116701  0.090185  0.000818  1.039668  0.002
H  H11  1  0.12567209  0.07474717  0.70779136  1  0.085165  -0.000859  0.970794  -0.002  0.091938  -0.000617  1.037352  -0.002  0.093802  -0.000425  1.035619  -0.001  0.116692  0.090171  -0.000818  1.039693  -0.002
H  H12  1  0.09882476  0.02762686  0.17763935  1  0.098797  0.000312  0.969461  0.0  0.107669  0.000376  1.032547  0.0  0.109846  0.000262  1.033782  0.0  0.101392  0.105821  0.000486  1.032337  0.0
H  H13  1  0.90117328  0.97237320  0.82235973  1  0.098808  -0.000312  0.96945  0.0  0.10768  -0.000376  1.032542  0.0  0.109857  -0.000262  1.033776  0.0  0.101406  0.105834  -0.000487  1.03233  0.0
H  H14  1  0.27453451  0.65495548  0.27510876  1  0.115349  0.000302  0.964224  0.0  0.123094  0.000351  1.028004  0.0  0.125956  0.000227  1.028242  0.0  0.106314  0.120347  0.000485  1.029685  0.001
H  H15  1  0.72546745  0.34504231  0.72488912  1  0.115349  -0.000304  0.964256  0.0  0.123102  -0.000351  1.028006  0.0  0.125965  -0.000227  1.028242  0.0  0.106326  0.120351  -0.000485  1.029704  -0.001
H  H16  1  0.04329941  0.56939554  0.38854318  1  0.098251  0.00103  0.935995  0.002  0.105842  0.000668  0.99762  0.001  0.107588  0.000486  0.996314  0.001  0.12075  0.104435  0.000855  0.998874  0.002
H  H17  1  0.95670419  0.43060339  0.61145670  1  0.098253  -0.001025  0.935997  -0.002  0.105827  -0.000668  0.997649  -0.001  0.107568  -0.000486  0.996341  -0.001  0.120721  0.104422  -0.000855  0.998901  -0.002
H  H18  1  0.64801294  0.59871407  0.65029585  1  0.094319  0.000955  0.949331  0.002  0.098019  0.000713  1.017862  0.001  0.100526  0.000532  1.015191  0.001  0.120825  0.09607  0.00087  1.019988  0.002
H  H19  1  0.35198599  0.40128826  0.34970687  1  0.094332  -0.000962  0.949279  -0.002  0.098021  -0.000713  1.017852  -0.001  0.100536  -0.000532  1.015162  -0.001  0.120804  0.096067  -0.00087  1.019986  -0.002
H  H20  1  0.79495703  0.61294453  0.86061107  1  0.104163  0.000382  0.953477  0.0  0.115088  0.00044  1.012433  0.0  0.117526  0.000312  1.012808  0.0  0.1042  0.11331  0.000572  1.012718  0.001
H  H21  1  0.20504461  0.38705552  0.13939199  1  0.104145  -0.000383  0.953524  0.0  0.115067  -0.00044  1.012481  0.0  0.117505  -0.000312  1.012857  0.0  0.104193  0.113287  -0.000572  1.012768  -0.001
H  H22  1  0.27432716  0.83817505  0.76118843  1  0.110905  0.000216  0.940691  0.0  0.122905  0.000243  0.99754  0.0  0.126086  0.000173  0.996292  0.0  0.110963  0.120721  0.000334  0.998519  0.0
H  H23  1  0.72567644  0.16182388  0.23881145  1  0.110856  -0.000214  0.940614  0.0  0.122834  -0.000243  0.997492  0.0  0.126013  -0.000173  0.996246  0.0  0.110943  0.120654  -0.000334  0.998474  0.0
H  H24  1  0.10728246  0.82718819  0.55817018  1  0.080089  0.000696  0.971618  0.002  0.084438  0.000466  1.043157  0.001  0.087296  0.000355  1.039829  0.001  0.116007  0.082383  0.00057  1.045724  0.001
H  H25  1  0.89271634  0.17281072  0.44182984  1  0.080082  -0.000696  0.971645  -0.002  0.084427  -0.000466  1.04319  -0.001  0.087285  -0.000356  1.039861  -0.001  0.116005  0.082372  -0.00057  1.045759  -0.001
H  H26  1  0.42214708  0.83321227  0.15540554  1  0.093375  4.5e-05  0.930965  0.0  0.108813  4.8e-05  0.992901  0.0  0.111035  1.9e-05  0.991399  0.0  0.097335  0.106995  9e-05  0.994115  0.0
H  H27  1  0.57785217  0.16678780  0.84459286  1  0.093385  -4.4e-05  0.930945  0.0  0.108849  -4.8e-05  0.992868  0.0  0.111074  -1.9e-05  0.991364  0.0  0.097357  0.107033  -9e-05  0.994081  0.0
H  H28  1  0.41882585  0.02183591  0.17438679  1  0.08784  -0.00032  0.921058  0.0  0.107488  -0.000115  0.976915  0.0  0.109046  -0.000106  0.975836  0.0  0.099121  0.105991  -0.000141  0.978185  0.0
H  H29  1  0.58117220  0.97816415  0.82561229  1  0.08782  0.000324  0.921054  0.0  0.107473  0.000115  0.976927  0.0  0.109031  0.000106  0.975851  0.0  0.099121  0.105977  0.000141  0.978198  0.0
H  H30  1  0.22829623  0.66166756  0.95358594  1  0.093223  -0.000309  0.936863  0.0  0.108958  -0.000126  0.999941  0.0  0.110242  -0.000111  0.999776  0.0  0.097546  0.108077  -0.000159  0.999991  0.0
H  H31  1  0.77170782  0.33833252  0.04641403  1  0.093276  0.000303  0.936851  0.0  0.109019  0.000125  0.999923  0.0  0.110302  0.000111  0.999758  0.0  0.097561  0.108137  0.000159  0.999974  0.0
H  H32  1  0.05294277  0.67490687  0.00826099  1  0.075714  -3e-05  0.938358  0.0  0.094369  5e-06  0.994335  0.0  0.095584  2e-06  0.994638  0.0  0.091833  0.093562  6e-06  0.993998  0.0
H  H33  1  0.94705963  0.32509205  0.99173871  1  0.07583  2.4e-05  0.938388  0.0  0.094494  -5e-06  0.994339  0.0  0.095708  -2e-06  0.994642  0.0  0.09187  0.093688  -6e-06  0.994003  0.0
H  H34  1  0.17613149  0.96661967  0.00008185  1  0.057983  4.6e-05  0.936535  0.0  0.078067  1.9e-05  0.995923  0.0  0.079031  1.2e-05  0.996212  0.0  0.086986  0.077118  2.5e-05  0.996316  0.0
H  H35  1  0.82386897  0.03338041  0.99991501  1  0.057989  -3.9e-05  0.936579  0.0  0.078088  -1.9e-05  0.995944  0.0  0.079051  -1.2e-05  0.996232  0.0  0.087013  0.077138  -2.5e-05  0.996338  0.0
H  H36  1  0.35645826  0.94311994  0.96246127  1  0.063873  3.5e-05  0.947788  0.0  0.084717  1.9e-05  1.007196  0.0  0.08505  1.4e-05  1.008315  0.0  0.092102  0.084366  2.2e-05  1.006561  0.0
H  H37  1  0.64354504  0.05688129  0.03753776  1  0.063876  -3.1e-05  0.947647  0.0  0.084685  -1.9e-05  1.007115  0.0  0.085012  -1.4e-05  1.008243  0.0  0.092077  0.084334  -2.2e-05  1.00648  0.0
C  C38  1  0.57579062  0.83267523  0.47023281  1  0.654104  -0.006629  3.881994  -0.011  0.613592  -0.001484  4.174268  -0.005  0.650121  -0.001466  4.168828  -0.004  0.199396  0.587967  -0.001741  4.177108  -0.006
C  C39  1  0.42420666  0.16732594  0.52977135  1  0.653913  0.006637  3.881959  0.011  0.613437  0.001483  4.174195  0.005  0.649966  0.001467  4.168758  0.004  0.199313  0.587813  0.001741  4.177032  0.006
C  C40  1  0.47884970  0.92478954  0.50563448  1  -0.152191  0.01075  3.659457  0.011  -0.169627  0.002725  3.906443  0.003  -0.173505  0.002543  3.918347  0.002  -0.078293  -0.168185  0.004306  3.900041  0.004
C  C41  1  0.52114518  0.07521164  0.49436589  1  -0.152151  -0.010753  3.659389  -0.011  -0.169533  -0.002725  3.906314  -0.003  -0.173406  -0.002543  3.918217  -0.002  -0.078217  -0.168088  -0.004306  3.899909  -0.004
C  C42  1  0.51991767  0.55385286  0.04539782  1  -0.173372  0.00779  3.682642  0.009  -0.193179  0.00193  3.938017  0.002  -0.197518  0.001485  3.949797  0.002  -0.091221  -0.190739  0.002479  3.930921  0.003
C  C43  1  0.48008068  0.44614491  0.95459953  1  -0.173315  -0.007795  3.682651  -0.009  -0.19315  -0.001931  3.938029  -0.002  -0.197478  -0.001485  3.949819  -0.002  -0.09118  -0.190714  -0.00248  3.930936  -0.003
C  C44  1  0.57710998  0.52864421  0.17082486  1  0.657393  -0.001919  3.92091  -0.004  0.620015  0.001112  4.213595  0.0  0.655831  0.000651  4.206135  0.0  0.196536  0.595308  0.001582  4.217639  0.0
C  C45  1  0.42289002  0.47135472  0.82917276  1  0.657416  0.001919  3.920926  0.004  0.620044  -0.001112  4.213609  0.0  0.655863  -0.000651  4.206142  0.0  0.196548  0.595338  -0.001582  4.217659  0.0
C  C46  1  0.96627583  0.86961623  0.28588503  1  0.133064  -0.010246  3.695128  -0.012  0.103624  -0.00185  3.950083  -0.003  0.113717  -0.002475  3.968044  -0.004  0.044479  0.095785  -0.001607  3.939591  -0.003
C  C47  1  0.03372822  0.13038383  0.71411666  1  0.133113  0.010241  3.695236  0.012  0.103671  0.00185  3.950173  0.003  0.113759  0.002475  3.968135  0.004  0.044524  0.095831  0.001608  3.939684  0.003
C  C48  1  0.09120876  0.92455411  0.22184745  1  -0.177778  0.011302  3.717816  0.013  -0.192961  0.003404  3.96098  0.005  -0.202096  0.00328  3.982775  0.004  -0.089704  -0.186532  0.003811  3.946639  0.005
C  C49  1  0.90878973  0.07544710  0.77815173  1  -0.177775  -0.011305  3.717795  -0.013  -0.192964  -0.003404  3.960963  -0.005  -0.202097  -0.003281  3.982758  -0.004  -0.089742  -0.186535  -0.003811  3.946624  -0.005
C  C50  1  0.20541032  0.84763274  0.21509453  1  0.153136  -0.011341  3.732535  -0.013  0.170858  -0.003418  3.965575  -0.004  0.176954  -0.003216  3.987846  -0.004  0.009793  0.166723  -0.004172  3.950113  -0.005
C  C51  1  0.79459057  0.15236848  0.78490414  1  0.15309  0.011346  3.732619  0.013  0.17082  0.003418  3.965676  0.004  0.176915  0.003216  3.987949  0.004  0.009793  0.166689  0.004172  3.950214  0.005
C  C52  1  0.18737238  0.71755726  0.27588768  1  -0.180676  0.011148  3.707053  0.013  -0.198321  0.003178  3.951958  0.004  -0.207683  0.003069  3.9732  0.004  -0.087459  -0.192375  0.003601  3.939294  0.005
C  C53  1  0.81262927  0.28244282  0.72411107  1  -0.180645  -0.011141  3.707157  -0.013  -0.198283  -0.003178  3.952048  -0.004  -0.207644  -0.003069  3.97329  -0.004  -0.087442  -0.192341  -0.0036  3.939385  -0.005
C  C54  1  0.05964379  0.66939170  0.33934865  1  0.135545  -0.010662  3.662947  -0.013  0.110161  -0.002255  3.919395  -0.003  0.120825  -0.002745  3.936906  -0.004  0.049151  0.102454  -0.002248  3.908036  -0.003
C  C55  1  0.94035816  0.33060607  0.66065182  1  0.135474  0.010649  3.663024  0.013  0.110098  0.002255  3.919476  0.003  0.120769  0.002745  3.936979  0.004  0.049118  0.102395  0.002248  3.908113  0.003
C  C56  1  0.78663464  0.65285090  0.67872481  1  0.13009  -0.008806  3.683817  -0.011  0.103026  -0.001313  3.942915  -0.002  0.112891  -0.001866  3.96062  -0.003  0.044285  0.096034  -0.001276  3.931696  -0.002
C  C57  1  0.21336549  0.34715144  0.32127808  1  0.130005  0.008828  3.683767  0.011  0.102926  0.001314  3.942858  0.002  0.112789  0.001865  3.960566  0.003  0.044294  0.095934  0.001276  3.931635  0.002
C  C58  1  0.87021677  0.66021074  0.79600534  1  -0.190019  0.009585  3.729606  0.012  -0.20446  0.002922  3.973177  0.004  -0.213059  0.00284  3.993568  0.004  -0.08853  -0.198913  0.003216  3.960844  0.004
C  C59  1  0.12978323  0.33978819  0.20399314  1  -0.1899  -0.009586  3.729667  -0.012  -0.204319  -0.002922  3.9732  -0.004  -0.21292  -0.002839  3.993597  -0.004  -0.088486  -0.198773  -0.003216  3.960866  -0.004
C  C60  1  0.04924257  0.72516191  0.82987923  1  0.156508  -0.009797  3.720358  -0.011  0.170988  -0.00291  3.957926  -0.003  0.177453  -0.002787  3.979124  -0.003  0.015023  0.166746  -0.003565  3.943802  -0.004
C  C61  1  0.95076104  0.27483702  0.17012065  1  0.156459  0.009792  3.720425  0.011  0.170942  0.00291  3.957985  0.003  0.177404  0.002786  3.979186  0.003  0.01497  0.166702  0.003564  3.943858  0.004
C  C62  1  0.13511331  0.78567259  0.74164708  1  -0.158853  0.009259  3.680767  0.011  -0.174052  0.002374  3.925878  0.003  -0.181758  0.002457  3.944551  0.003  -0.080851  -0.169457  0.002562  3.914248  0.004
C  C63  1  0.86488909  0.21432633  0.25835348  1  -0.158747  -0.009259  3.680686  -0.011  -0.173909  -0.002375  3.925768  -0.003  -0.181615  -0.002457  3.944444  -0.003  -0.0808  -0.169318  -0.002562  3.914129  -0.004
C  C64  1  0.04289383  0.77716472  0.62691260  1  0.133463  -0.009899  3.700153  -0.012  0.103009  -0.002483  3.965121  -0.004  0.113088  -0.002875  3.981116  -0.004  0.049237  0.095829  -0.002297  3.955591  -0.003
C  C65  1  0.95710736  0.22283418  0.37308950  1  0.133436  0.009893  3.700252  0.012  0.102984  0.002483  3.965192  0.004  0.113062  0.002874  3.981187  0.004  0.049227  0.095802  0.002297  3.955666  0.003
C  C66  1  0.33802940  0.90160890  0.14253146  1  -0.168745  0.000538  3.687924  0.001  -0.212599  3e-05  3.9433  0.0  -0.214133  1.3e-05  3.953998  0.0  -0.158069  -0.211038  6e-05  3.935806  0.0
C  C67  1  0.66197029  0.09839231  0.85746703  1  -0.168676  -0.000547  3.687925  -0.001  -0.21258  -2.9e-05  3.943359  0.0  -0.214117  -1.3e-05  3.95406  0.0  -0.158061  -0.211017  -6e-05  3.93586  0.0
C  C68  1  0.14487631  0.72985817  0.95454745  1  -0.165567  0.000431  3.696491  0.001  -0.207626  -2.6e-05  3.946875  0.0  -0.209481  -1.9e-05  3.958456  0.0  -0.160242  -0.20603  -3.2e-05  3.938369  0.0
C  C69  1  0.85512774  0.27014192  0.04545167  1  -0.165768  -0.000407  3.696619  -0.001  -0.207865  2.7e-05  3.947047  0.0  -0.209714  1.8e-05  3.958621  0.0  -0.160299  -0.206271  3.2e-05  3.938548  0.0
C  C70  1  0.25539277  0.89366720  0.01062298  1  -0.084994  -0.000931  3.670258  -0.001  -0.126391  -0.000297  3.932359  0.0  -0.127511  -0.000275  3.946667  0.0  -0.156765  -0.125519  -0.000379  3.922452  -0.001
C  C71  1  0.74460888  0.10633288  0.98937492  1  -0.085002  0.000908  3.670237  0.001  -0.126369  0.000297  3.93236  0.0  -0.127485  0.000275  3.946669  0.0  -0.156778  -0.125498  0.000379  3.922451  0.001
N  N72  1  0.95019712  0.74407751  0.34428778  1  -0.293073  0.068029  3.324955  0.098  -0.251855  0.040904  3.61495  0.061  -0.282959  0.033139  3.635008  0.051  -0.335498  -0.23039  0.04765  3.602  0.069
N  N73  1  0.04980603  0.25592025  0.65571544  1  -0.293085  -0.068026  3.32515  -0.098  -0.251842  -0.040903  3.615112  -0.061  -0.282934  -0.033139  3.635157  -0.051  -0.33549  -0.230369  -0.04765  3.602161  -0.069
N  N74  1  0.87132140  0.70969763  0.59435076  1  -0.297147  0.060506  3.308881  0.088  -0.256628  0.038106  3.60132  0.057  -0.286792  0.031094  3.622801  0.048  -0.330505  -0.235728  0.043991  3.587283  0.064
N  N75  1  0.12867664  0.29030242  0.40565004  1  -0.297129  -0.060505  3.30892  -0.088  -0.256592  -0.038104  3.601345  -0.057  -0.286749  -0.031093  3.622816  -0.048  -0.330489  -0.235688  -0.043991  3.587306  -0.064
O  O76  1  0.73159560  0.45042961  0.41684680  1  -0.81349  0.052127  1.964028  0.077  -0.790174  0.035009  2.18197  0.053  -0.824087  0.027209  2.148114  0.042  -0.583674  -0.764483  0.041747  2.205357  0.061
O  O77  1  0.26840275  0.54956814  0.58315485  1  -0.813483  -0.052126  1.964046  -0.077  -0.790115  -0.035008  2.182114  -0.053  -0.824022  -0.027209  2.148247  -0.042  -0.583658  -0.764417  -0.041747  2.205502  -0.061
O  O78  1  0.52074252  0.68711844  0.47839327  1  -0.613834  0.039163  2.035369  0.058  -0.565872  0.028086  2.277772  0.044  -0.603059  0.021346  2.269407  0.034  -0.299705  -0.538121  0.034721  2.281884  0.053
O  O79  1  0.47925400  0.31288388  0.52161081  1  -0.613681  -0.039169  2.035272  -0.058  -0.565829  -0.028088  2.277755  -0.044  -0.603013  -0.021348  2.269389  -0.034  -0.29969  -0.53807  -0.034723  2.281861  -0.053
O  O80  1  0.71150216  0.89412730  0.43330407  1  -0.566129  0.055179  1.958307  0.083  -0.538518  0.03549  2.207061  0.056  -0.57601  0.026689  2.201778  0.043  -0.297581  -0.509909  0.044573  2.209233  0.068
O  O81  1  0.28849272  0.10587387  0.56669801  1  -0.566067  -0.05518  1.958354  -0.083  -0.538446  -0.035489  2.207076  -0.056  -0.575934  -0.02669  2.201794  -0.043  -0.297533  -0.509833  -0.044574  2.20925  -0.068
O  O82  1  0.59517361  0.63842713  0.24759144  1  -0.613437  0.051627  2.03608  0.078  -0.586443  0.031676  2.302172  0.05  -0.624837  0.024163  2.29343  0.039  -0.320894  -0.557708  0.039172  2.306886  0.06
O  O83  1  0.40482519  0.36157179  0.75240687  1  -0.613469  -0.051624  2.036174  -0.078  -0.586476  -0.031676  2.302276  -0.05  -0.624864  -0.024165  2.293529  -0.039  -0.320922  -0.557736  -0.039173  2.306995  -0.06
O  O84  1  0.60361521  0.40478195  0.19277818  1  -0.62387  -0.000168  1.934877  0.0  -0.573846  0.000159  2.146942  0.0  -0.598841  -0.000149  2.137748  0.0  -0.327876  -0.556478  0.000451  2.153069  0.001
O  O85  1  0.39638764  0.59521813  0.80721989  1  -0.623886  0.000167  1.934828  0.0  -0.573863  -0.000159  2.14689  0.0  -0.598861  0.000149  2.137699  0.0  -0.327875  -0.556493  -0.000452  2.153018  -0.001
