# generated using pymatgen
data_TlH4C7N3O
_symmetry_space_group_name_H-M   'P 1'
_cell_length_a   4.15200512
_cell_length_b   12.00135663
_cell_length_c   17.01047049
_cell_angle_alpha   89.99964543
_cell_angle_beta   94.90913259
_cell_angle_gamma   90.00024457
_symmetry_Int_Tables_number   1
_chemical_formula_structural   TlH4C7N3O
_chemical_formula_sum   'Tl4 H16 C28 N12 O4'
_cell_volume   844.51716762
_cell_formula_units_Z   4
loop_
 _symmetry_equiv_pos_site_id
 _symmetry_equiv_pos_as_xyz
  1  'x, y, z'
loop_
 _atom_site_type_symbol
 _atom_site_label
 _atom_site_symmetry_multiplicity
 _atom_site_fract_x
 _atom_site_fract_y
 _atom_site_fract_z
 _atom_site_occupancy
 _atom_site_hle17_bader_spin_density
 _atom_site_hle17_ddec_charge
 _atom_site_hle17_ddec_spin_density
 _atom_site_hle17_ddec_sum_bond_order
 _atom_site_hle17_magmom
 _atom_site_hse06_10hf_bader_spin_density
 _atom_site_hse06_10hf_ddec_charge
 _atom_site_hse06_10hf_ddec_spin_density
 _atom_site_hse06_10hf_ddec_sum_bond_order
 _atom_site_hse06_10hf_magmom
 _atom_site_hse06_bader_spin_density
 _atom_site_hse06_ddec_charge
 _atom_site_hse06_ddec_spin_density
 _atom_site_hse06_ddec_sum_bond_order
 _atom_site_hse06_magmom
 _atom_site_pbe_bader_spin_density
 _atom_site_pbe_cm5_charge
 _atom_site_pbe_ddec_charge
 _atom_site_pbe_ddec_spin_density
 _atom_site_pbe_ddec_sum_bond_order
 _atom_site_pbe_magmom
Tl  Tl0  1  0.39961419  0.53518544  0.61186154  1  0  0.772193  0  0.862928  0  0  0.629223  0  1.176771  0  0  0.664617  0  1.153804  0  0  0.401298  0.602373  0  1.193372  0
Tl  Tl1  1  0.10038312  0.03518388  0.88814054  1  0  0.772199  0  0.862951  0  0  0.629242  0  1.176815  0  0  0.664628  0  1.15384  0  0  0.401305  0.602411  0  1.193411  0
Tl  Tl2  1  0.60038152  0.46481201  0.38813894  1  0  0.772204  0  0.862926  0  0  0.629229  0  1.176775  0  0  0.664626  0  1.153811  0  0  0.401298  0.602364  0  1.19341  0
Tl  Tl3  1  0.89961735  0.96481940  0.11185884  1  0  0.772162  0  0.862988  0  0  0.629191  0  1.176855  0  0  0.664579  0  1.153885  0  0  0.401303  0.60238  0  1.193396  0
H  H4  1  0.53751842  0.04681340  0.57709080  1  0  0.110844  0  0.962004  0  0  0.119704  0  1.023688  0  0  0.122918  0  1.022986  0  0  0.104882  0.117427  0  1.024295  0
H  H5  1  0.96246743  0.54681482  0.92291028  1  0  0.11077  0  0.961971  0  0  0.11966  0  1.023639  0  0  0.122876  0  1.022935  0  0  0.104862  0.117384  0  1.024245  0
H  H6  1  0.46247484  0.95318572  0.42290905  1  0  0.110827  0  0.962035  0  0  0.119701  0  1.023706  0  0  0.122917  0  1.023001  0  0  0.104873  0.117422  0  1.024316  0
H  H7  1  0.03751609  0.45318512  0.07708822  1  0  0.110787  0  0.962038  0  0  0.119661  0  1.023715  0  0  0.122874  0  1.023013  0  0  0.104866  0.117384  0  1.02433  0
H  H8  1  0.33725929  0.97953644  0.69983256  1  0  0.072972  0  0.946014  0  0  0.080804  0  1.012652  0  0  0.083278  0  1.010043  0  0  0.109237  0.078995  0  1.014588  0
H  H9  1  0.16273114  0.47954240  0.80016924  1  0  0.072993  0  0.946054  0  0  0.080833  0  1.012679  0  0  0.083308  0  1.01007  0  0  0.109246  0.079025  0  1.014612  0
H  H10  1  0.66273390  0.02045851  0.30016611  1  0  0.072945  0  0.946031  0  0  0.080767  0  1.012665  0  0  0.083241  0  1.010056  0  0  0.109215  0.078959  0  1.014599  0
H  H11  1  0.83726456  0.52045921  0.19983124  1  0  0.073  0  0.946019  0  0  0.080805  0  1.012682  0  0  0.08328  0  1.010073  0  0  0.109226  0.078997  0  1.014614  0
H  H12  1  0.65366364  0.26452529  0.82243141  1  0  0.08244  0  0.940025  0  0  0.088147  0  1.006765  0  0  0.091086  0  1.003991  0  0  0.112151  0.086036  0  1.008742  0
H  H13  1  0.84634177  0.76453370  0.67757142  1  0  0.082491  0  0.940003  0  0  0.088206  0  1.006749  0  0  0.091146  0  1.003973  0  0  0.112144  0.086093  0  1.008724  0
H  H14  1  0.34632244  0.73547049  0.17756948  1  0  0.082477  0  0.939985  0  0  0.088211  0  1.006716  0  0  0.091153  0  1.003936  0  0  0.112147  0.086095  0  1.008695  0
H  H15  1  0.15366837  0.23546791  0.32242814  1  0  0.082518  0  0.939984  0  0  0.08823  0  1.006731  0  0  0.091171  0  1.003954  0  0  0.112167  0.086117  0  1.008706  0
H  H16  1  0.87653382  0.34383284  0.70317742  1  0  0.088377  0  0.984852  0  0  0.094726  0  1.057956  0  0  0.097413  0  1.057662  0  0  0.101255  0.092822  0  1.058292  0
H  H17  1  0.62346777  0.84383822  0.79682675  1  0  0.088469  0  0.984752  0  0  0.094822  0  1.057839  0  0  0.097507  0  1.057546  0  0  0.101323  0.09292  0  1.058183  0
H  H18  1  0.12346676  0.65616461  0.29682373  1  0  0.088453  0  0.984845  0  0  0.094815  0  1.057915  0  0  0.097504  0  1.057622  0  0  0.101315  0.092914  0  1.05825  0
H  H19  1  0.37653036  0.15616422  0.20317376  1  0  0.088335  0  0.984901  0  0  0.094679  0  1.058009  0  0  0.097363  0  1.057717  0  0  0.101232  0.092772  0  1.058354  0
C  C20  1  0.84187720  0.24544458  0.55609988  1  0  0.028886  0  3.841277  0  0  0.024147  0  4.098903  0  0  0.018991  0  4.116732  0  0  0.091526  0.027397  0  4.086738  0
C  C21  1  0.65812554  0.74544789  0.94390240  1  0  0.02895  0  3.841188  0  0  0.024213  0  4.098767  0  0  0.019042  0  4.116632  0  0  0.091587  0.027464  0  4.086605  0
C  C22  1  0.15812334  0.75455203  0.44390068  1  0  0.028961  0  3.841083  0  0  0.024196  0  4.098782  0  0  0.019021  0  4.11665  0  0  0.09159  0.027445  0  4.086615  0
C  C23  1  0.34188699  0.25455788  0.05609661  1  0  0.028775  0  3.841323  0  0  0.024174  0  4.098754  0  0  0.018995  0  4.116628  0  0  0.09147  0.027422  0  4.086594  0
C  C24  1  0.77047229  0.18894540  0.48299005  1  0  0.266996  0  3.756126  0  0  0.249571  0  4.033706  0  0  0.264314  0  4.048006  0  0  0.183597  0.23953  0  4.024096  0
C  C25  1  0.72953092  0.68894255  0.01701371  1  0  0.267073  0  3.756044  0  0  0.249637  0  4.033622  0  0  0.264378  0  4.047928  0  0  0.183686  0.239595  0  4.024016  0
C  C26  1  0.22953328  0.81105538  0.51701413  1  0  0.267096  0  3.756215  0  0  0.249685  0  4.033794  0  0  0.264429  0  4.048099  0  0  0.183641  0.239649  0  4.02419  0
C  C27  1  0.27048161  0.31106239  0.98298530  1  0  0.266914  0  3.756021  0  0  0.249437  0  4.033572  0  0  0.264177  0  4.047886  0  0  0.183603  0.239402  0  4.023969  0
C  C28  1  0.72399693  0.20289232  0.62858257  1  0  0.098443  0  3.796723  0  0  0.104438  0  4.037034  0  0  0.110129  0  4.060443  0  0  0.012375  0.100796  0  4.021199  0
C  C29  1  0.77600535  0.70289311  0.87142047  1  0  0.098472  0  3.796607  0  0  0.104524  0  4.036838  0  0  0.110216  0  4.060249  0  0  0.01248  0.100876  0  4.021006  0
C  C30  1  0.27600600  0.79710679  0.37141745  1  0  0.09855  0  3.796673  0  0  0.104494  0  4.037079  0  0  0.110191  0  4.060488  0  0  0.012411  0.100849  0  4.021245  0
C  C31  1  0.22400237  0.29710934  0.12857904  1  0  0.098583  0  3.796818  0  0  0.104543  0  4.037079  0  0  0.110234  0  4.060499  0  0  0.012567  0.100898  0  4.021242  0
C  C32  1  0.56989629  0.09874315  0.62966304  1  0  -0.156651  0  3.693352  0  0  -0.175674  0  3.941157  0  0  -0.184331  0  3.962346  0  0  -0.087271  -0.170068  0  3.926901  0
C  C33  1  0.93009500  0.59874499  0.87033791  1  0  -0.156432  0  3.69348  0  0  -0.175502  0  3.941264  0  0  -0.184157  0  3.96245  0  0  -0.087233  -0.169896  0  3.927009  0
C  C34  1  0.43009939  0.90125679  0.37033685  1  0  -0.156696  0  3.693505  0  0  -0.175713  0  3.941318  0  0  -0.18437  0  3.962503  0  0  -0.087288  -0.170108  0  3.927067  0
C  C35  1  0.06990064  0.40125579  0.12966139  1  0  -0.156459  0  3.693597  0  0  -0.175494  0  3.941378  0  0  -0.184148  0  3.962568  0  0  -0.087232  -0.169897  0  3.927127  0
C  C36  1  0.45744995  0.06049126  0.69937318  1  0  0.126175  0  3.7614  0  0  0.101655  0  4.009876  0  0  0.108976  0  4.02894  0  0  0.039285  0.096979  0  3.996539  0
C  C37  1  0.04254047  0.56049566  0.80062984  1  0  0.125992  0  3.761549  0  0  0.101454  0  4.010046  0  0  0.108774  0  4.029107  0  0  0.039242  0.096778  0  3.996702  0
C  C38  1  0.54254092  0.93950619  0.30062721  1  0  0.126183  0  3.761413  0  0  0.10168  0  4.009883  0  0  0.109001  0  4.028945  0  0  0.039328  0.097001  0  3.99655  0
C  C39  1  0.95746004  0.43950595  0.19937013  1  0  0.125987  0  3.761566  0  0  0.101484  0  4.010035  0  0  0.108806  0  4.029095  0  0  0.039246  0.096809  0  3.996688  0
C  C40  1  0.63408788  0.21874153  0.76667271  1  0  0.116212  0  3.760683  0  0  0.095263  0  4.005984  0  0  0.101685  0  4.025188  0  0  0.037751  0.091204  0  3.992568  0
C  C41  1  0.86590979  0.71874615  0.73333077  1  0  0.115919  0  3.760667  0  0  0.094945  0  4.005991  0  0  0.101365  0  4.025199  0  0  0.037596  0.09089  0  3.992569  0
C  C42  1  0.36590058  0.78125758  0.23332764  1  0  0.116012  0  3.760748  0  0  0.095037  0  4.006045  0  0  0.101457  0  4.025252  0  0  0.037659  0.090979  0  3.99263  0
C  C43  1  0.13409552  0.28125547  0.26666870  1  0  0.115887  0  3.760787  0  0  0.094923  0  4.006091  0  0  0.101341  0  4.025299  0  0  0.037603  0.090869  0  3.992665  0
C  C44  1  0.75582795  0.26323521  0.69995302  1  0  -0.166102  0  3.724153  0  0  -0.184367  0  3.973819  0  0  -0.193324  0  3.99766  0  0  -0.088326  -0.178572  0  3.957834  0
C  C45  1  0.74416778  0.76323907  0.80004964  1  0  -0.166136  0  3.723848  0  0  -0.184425  0  3.973544  0  0  -0.193377  0  3.997382  0  0  -0.088362  -0.178633  0  3.957568  0
C  C46  1  0.24416293  0.73676307  0.30004737  1  0  -0.16619  0  3.72421  0  0  -0.184436  0  3.973889  0  0  -0.193395  0  3.997731  0  0  -0.088377  -0.178641  0  3.957903  0
C  C47  1  0.25583515  0.23676337  0.19995038  1  0  -0.16606  0  3.724059  0  0  -0.184322  0  3.973751  0  0  -0.193271  0  3.99759  0  0  -0.08836  -0.178531  0  3.957769  0
N  N48  1  0.01800903  0.33811269  0.55698842  1  0  -0.103913  0  3.226505  0  0  -0.066003  0  3.500712  0  0  -0.06113  0  3.51634  0  0  -0.182759  -0.067895  0  3.488543  0
N  N49  1  0.48198220  0.83811230  0.94301401  1  0  -0.103971  0  3.22629  0  0  -0.066073  0  3.500507  0  0  -0.061198  0  3.51614  0  0  -0.182843  -0.067971  0  3.488354  0
N  N50  1  0.98198671  0.66188309  0.44301265  1  0  -0.103974  0  3.226514  0  0  -0.066051  0  3.500732  0  0  -0.061174  0  3.516365  0  0  -0.182826  -0.067941  0  3.488561  0
N  N51  1  0.51802063  0.16188931  0.05698424  1  0  -0.103854  0  3.226143  0  0  -0.065982  0  3.500311  0  0  -0.061103  0  3.515947  0  0  -0.182766  -0.067878  0  3.488155  0
N  N52  1  0.72001859  0.14710953  0.42099997  1  0  -0.404304  0  2.582695  0  0  -0.375235  0  2.807276  0  0  -0.388005  0  2.817522  0  0  -0.297326  -0.366465  0  2.800367  0
N  N53  1  0.77997438  0.64710954  0.07900203  1  0  -0.404403  0  2.582831  0  0  -0.375326  0  2.807427  0  0  -0.388093  0  2.817669  0  0  -0.297434  -0.366559  0  2.800523  0
N  N54  1  0.27998182  0.85288624  0.57899824  1  0  -0.40442  0  2.583046  0  0  -0.375338  0  2.807613  0  0  -0.388108  0  2.817855  0  0  -0.297386  -0.366575  0  2.800713  0
N  N55  1  0.22003335  0.35289623  0.92099748  1  0  -0.404218  0  2.582769  0  0  -0.375128  0  2.80734  0  0  -0.387896  0  2.817588  0  0  -0.29731  -0.366362  0  2.800439  0
N  N56  1  0.48708036  0.11839444  0.76734324  1  0  -0.407083  0  3.233586  0  0  -0.333564  0  3.482666  0  0  -0.35346  0  3.505692  0  0  -0.327812  -0.319486  0  3.466352  0
N  N57  1  0.01291794  0.61840023  0.73265908  1  0  -0.406903  0  3.233474  0  0  -0.333368  0  3.482532  0  0  -0.353262  0  3.505558  0  0  -0.327772  -0.319286  0  3.466204  0
N  N58  1  0.51290809  0.88160384  0.23265711  1  0  -0.406921  0  3.233492  0  0  -0.333402  0  3.482581  0  0  -0.353297  0  3.505607  0  0  -0.327771  -0.319329  0  3.466269  0
N  N59  1  0.98708740  0.38160138  0.26734097  1  0  -0.406906  0  3.233469  0  0  -0.333381  0  3.482518  0  0  -0.353275  0  3.505543  0  0  -0.327774  -0.319297  0  3.466187  0
O  O60  1  0.11295247  0.37349321  0.49017644  1  0  -0.525481  0  1.994549  0  0  -0.452826  0  2.24589  0  0  -0.483157  0  2.253136  0  0  -0.209847  -0.431058  0  2.239462  0
O  O61  1  0.38704271  0.87349398  0.00982712  1  0  -0.52547  0  1.994171  0  0  -0.452826  0  2.245552  0  0  -0.483143  0  2.252757  0  0  -0.209822  -0.431069  0  2.239132  0
O  O62  1  0.88704808  0.62650173  0.50982412  1  0  -0.525494  0  1.994446  0  0  -0.452853  0  2.245818  0  0  -0.483167  0  2.25302  0  0  -0.209832  -0.431091  0  2.239394  0
O  O63  1  0.61296015  0.12651180  0.99017172  1  0  -0.525479  0  1.994203  0  0  -0.452865  0  2.245648  0  0  -0.483167  0  2.252818  0  0  -0.209864  -0.431112  0  2.239235  0
