# generated using pymatgen
data_HoH9C10(N2O5)2
_symmetry_space_group_name_H-M   'P 1'
_cell_length_a   9.22706912
_cell_length_b   10.86704568
_cell_length_c   14.25900000
_cell_angle_alpha   104.89251571
_cell_angle_beta   90.00000000
_cell_angle_gamma   90.00000000
_symmetry_Int_Tables_number   1
_chemical_formula_structural   HoH9C10(N2O5)2
_chemical_formula_sum   'Ho4 H36 C40 N16 O40'
_cell_volume   1381.73766955
_cell_formula_units_Z   4
loop_
 _symmetry_equiv_pos_site_id
 _symmetry_equiv_pos_as_xyz
  1  'x, y, z'
loop_
 _atom_site_type_symbol
 _atom_site_label
 _atom_site_symmetry_multiplicity
 _atom_site_fract_x
 _atom_site_fract_y
 _atom_site_fract_z
 _atom_site_occupancy
 _atom_site_hle17_bader_spin_density
 _atom_site_hle17_ddec_charge
 _atom_site_hle17_ddec_spin_density
 _atom_site_hle17_ddec_sum_bond_order
 _atom_site_hle17_magmom
 _atom_site_hse06_10hf_bader_spin_density
 _atom_site_hse06_10hf_ddec_charge
 _atom_site_hse06_10hf_ddec_spin_density
 _atom_site_hse06_10hf_ddec_sum_bond_order
 _atom_site_hse06_10hf_magmom
 _atom_site_hse06_bader_spin_density
 _atom_site_hse06_ddec_charge
 _atom_site_hse06_ddec_spin_density
 _atom_site_hse06_ddec_sum_bond_order
 _atom_site_hse06_magmom
 _atom_site_pbe_bader_charge
 _atom_site_pbe_bader_spin_density
 _atom_site_pbe_cm5_charge
 _atom_site_pbe_ddec_charge
 _atom_site_pbe_ddec_spin_density
 _atom_site_pbe_ddec_sum_bond_order
 _atom_site_pbe_magmom
Ho  Ho0  1  0.37371997  0.04228711  0.76456861  1  0  2.204653  0  1.707433  0  0  2.041881  0  2.206266  0  0  2.088779  0  2.165794  0  2.173541  0  1.556959  2.006285  0  2.23829  0
Ho  Ho1  1  0.87371948  0.45771204  0.73543200  1  0  2.204645  0  1.707438  0  0  2.041866  0  2.206281  0  0  2.088765  0  2.165808  0  2.173527  0  1.556958  2.00627  0  2.238309  0
Ho  Ho2  1  0.62628012  0.95771214  0.23543279  1  0  2.20468  0  1.707385  0  0  2.041949  0  2.206143  0  0  2.088799  0  2.165743  0  2.173535  0  1.556973  2.006355  0  2.238168  0
Ho  Ho3  1  0.12628062  0.54228912  0.26456837  1  0  2.204693  0  1.707404  0  0  2.041885  0  2.206296  0  0  2.088778  0  2.165828  0  2.173529  0  1.556985  2.006292  0  2.238318  0
H  H4  1  0.60596165  0.72057866  0.01627222  1  0  0.421564  0  0.850945  0  0  0.388599  0  0.93012  0  0  0.402109  0  0.915526  0  0.653083  0  0.313542  0.378974  0  0.94049  0
H  H5  1  0.10596214  0.77942259  0.48372753  1  0  0.421545  0  0.851013  0  0  0.388576  0  0.93018  0  0  0.402086  0  0.915587  0  0.653103  0  0.313535  0.378951  0  0.94055  0
H  H6  1  0.39403953  0.27942249  0.98372534  1  0  0.421524  0  0.851014  0  0  0.388598  0  0.930117  0  0  0.402111  0  0.915517  0  0.653101  0  0.313534  0.378972  0  0.940489  0
H  H7  1  0.89403795  0.22058142  0.51627479  1  0  0.421492  0  0.851043  0  0  0.388555  0  0.93017  0  0  0.402067  0  0.91557  0  0.653087  0  0.313504  0.378928  0  0.940541  0
H  H8  1  0.10911699  0.68509405  0.92519746  1  0  0.314976  0  0.867739  0  0  0.288586  0  0.937787  0  0  0.2975  0  0.930068  0  0.54548  0  0.339965  0.282171  0  0.943489  0
H  H9  1  0.60911866  0.81490625  0.57480351  1  0  0.314972  0  0.86764  0  0  0.288583  0  0.937696  0  0  0.297499  0  0.929974  0  0.545257  0  0.339962  0.282169  0  0.943398  0
H  H10  1  0.89088202  0.31490710  0.07480291  1  0  0.314956  0  0.867629  0  0  0.288572  0  0.937687  0  0  0.297487  0  0.929967  0  0.545494  0  0.339947  0.282157  0  0.943391  0
H  H11  1  0.39088252  0.18509490  0.42519755  1  0  0.314981  0  0.867714  0  0  0.288595  0  0.937759  0  0  0.29751  0  0.93004  0  0.545475  0  0.339969  0.28218  0  0.94346  0
H  H12  1  0.09649760  0.80527857  0.73111117  1  0  0.302044  0  0.93664  0  0  0.270708  0  1.014078  0  0  0.281126  0  1.005288  0  0.566275  0  0.320686  0.263367  0  1.020316  0
H  H13  1  0.59649819  0.69472268  0.76888789  1  0  0.302038  0  0.93661  0  0  0.2707  0  1.014046  0  0  0.281117  0  1.00526  0  0.566278  0  0.320703  0.263358  0  1.020284  0
H  H14  1  0.90350358  0.19472448  0.26888887  1  0  0.302022  0  0.936659  0  0  0.270714  0  1.014052  0  0  0.281133  0  1.005263  0  0.566273  0  0.320686  0.263372  0  1.020291  0
H  H15  1  0.40350299  0.30527657  0.23111281  1  0  0.302056  0  0.936606  0  0  0.270715  0  1.014046  0  0  0.281133  0  1.005259  0  0.566318  0  0.32071  0.263375  0  1.020284  0
H  H16  1  0.44398930  0.40947654  0.84285910  1  0  0.159459  0  0.946533  0  0  0.163497  0  1.012027  0  0  0.16842  0  1.008249  0  0.175825  0  0.122318  0.16  0  1.0148  0
H  H17  1  0.94398989  0.09052356  0.65713959  1  0  0.159438  0  0.946532  0  0  0.16349  0  1.012013  0  0  0.168417  0  1.008231  0  0.175822  0  0.122293  0.159992  0  1.014788  0
H  H18  1  0.55601079  0.59052461  0.15714127  1  0  0.159483  0  0.94649  0  0  0.163491  0  1.012018  0  0  0.168415  0  1.00824  0  0.175814  0  0.122317  0.159997  0  1.014787  0
H  H19  1  0.05600912  0.90947855  0.34286026  1  0  0.159472  0  0.946502  0  0  0.163512  0  1.011997  0  0  0.168439  0  1.008213  0  0.175878  0  0.122301  0.160015  0  1.014771  0
H  H20  1  0.84152182  0.05860302  0.94879041  1  0  0.151985  0  0.944575  0  0  0.159462  0  1.004693  0  0  0.163791  0  1.001896  0  0.155167  0  0.119394  0.156273  0  1.006898  0
H  H21  1  0.34152340  0.44139898  0.55120935  1  0  0.151989  0  0.94452  0  0  0.15946  0  1.00465  0  0  0.16379  0  1.001852  0  0.155173  0  0.119375  0.156269  0  1.006855  0
H  H22  1  0.15847719  0.94139813  0.05120855  1  0  0.151989  0  0.944558  0  0  0.159482  0  1.004664  0  0  0.163791  0  1.001894  0  0.15516  0  0.119398  0.156292  0  1.006869  0
H  H23  1  0.65847670  0.55860217  0.44879102  1  0  0.151996  0  0.944554  0  0  0.159466  0  1.004679  0  0  0.163802  0  1.001874  0  0.155161  0  0.119392  0.156276  0  1.006884  0
H  H24  1  0.58606367  0.92922523  0.87294025  1  0  0.446505  0  0.850008  0  0  0.412645  0  0.917306  0  0  0.424103  0  0.900636  0  0.650249  0  0.297985  0.404523  0  0.929069  0
H  H25  1  0.08606200  0.57077507  0.62706072  1  0  0.44647  0  0.850067  0  0  0.412621  0  0.917352  0  0  0.424079  0  0.90068  0  0.650252  0  0.297983  0.404498  0  0.929116  0
H  H26  1  0.41393751  0.07077592  0.12705871  1  0  0.446502  0  0.850019  0  0  0.412631  0  0.917326  0  0  0.424085  0  0.900662  0  0.650081  0  0.298009  0.404509  0  0.92909  0
H  H27  1  0.91393701  0.42922608  0.37294035  1  0  0.446477  0  0.850053  0  0  0.41263  0  0.917335  0  0  0.424088  0  0.900662  0  0.650253  0  0.297981  0.404507  0  0.929098  0
H  H28  1  0.55634026  0.07326687  0.93466142  1  0  0.44181  0  0.855092  0  0  0.411033  0  0.917612  0  0  0.422154  0  0.901348  0  0.643434  0  0.300075  0.403214  0  0.929006  0
H  H29  1  0.05633967  0.42673418  0.56533886  1  0  0.441753  0  0.855126  0  0  0.410964  0  0.917662  0  0  0.422084  0  0.9014  0  0.643405  0  0.300046  0.403149  0  0.92905  0
H  H30  1  0.44366201  0.92673618  0.06533862  1  0  0.441693  0  0.855196  0  0  0.410887  0  0.917755  0  0  0.422006  0  0.901495  0  0.643423  0  0.300027  0.403073  0  0.929139  0
H  H31  1  0.94366043  0.57326697  0.43466361  1  0  0.441818  0  0.855071  0  0  0.410975  0  0.917671  0  0  0.422095  0  0.90141  0  0.64342  0  0.300071  0.403163  0  0.929051  0
H  H32  1  0.34642094  0.89126681  0.55925667  1  0  0.439047  0  0.866243  0  0  0.404392  0  0.934372  0  0  0.416665  0  0.916704  0  0.658669  0  0.293632  0.395719  0  0.946858  0
H  H33  1  0.84642153  0.60873158  0.94074323  1  0  0.439043  0  0.866245  0  0  0.404393  0  0.934366  0  0  0.416666  0  0.916699  0  0.658677  0  0.293631  0.39572  0  0.946853  0
H  H34  1  0.65357698  0.10873148  0.44074384  1  0  0.439045  0  0.866245  0  0  0.404377  0  0.934392  0  0  0.41665  0  0.916724  0  0.658605  0  0.29365  0.395704  0  0.946878  0
H  H35  1  0.15357856  0.39126861  0.05925625  1  0  0.439056  0  0.866229  0  0  0.404388  0  0.934383  0  0  0.416663  0  0.916712  0  0.658613  0  0.293649  0.395715  0  0.946869  0
H  H36  1  0.20870983  0.98324723  0.58326342  1  0  0.439401  0  0.832788  0  0  0.4142  0  0.893135  0  0  0.423296  0  0.879638  0  0.65347  0  0.315425  0.407461  0  0.903225  0
H  H37  1  0.70871150  0.51675307  0.91673685  1  0  0.439419  0  0.832773  0  0  0.414225  0  0.893099  0  0  0.423319  0  0.879605  0  0.653473  0  0.315436  0.407485  0  0.903194  0
H  H38  1  0.79129027  0.01675297  0.41673676  1  0  0.439404  0  0.832782  0  0  0.414205  0  0.893126  0  0  0.423301  0  0.879628  0  0.653479  0  0.315428  0.407466  0  0.903217  0
H  H39  1  0.29129076  0.48324808  0.08326422  1  0  0.439426  0  0.832777  0  0  0.414233  0  0.893089  0  0  0.423329  0  0.879592  0  0.653468  0  0.315451  0.407495  0  0.90318  0
C  C40  1  0.16422333  0.29413966  0.73942094  1  0  0.707816  0  3.889963  0  0  0.659522  0  4.183325  0  0  0.695294  0  4.170259  0  1.648167  0  0.236641  0.635476  0  4.190916  0
C  C41  1  0.66422500  0.20586139  0.76057933  1  0  0.707824  0  3.889995  0  0  0.659552  0  4.18333  0  0  0.695325  0  4.170265  0  1.648336  0  0.236615  0.635505  0  4.19092  0
C  C42  1  0.83577568  0.70586054  0.26057994  1  0  0.707806  0  3.890065  0  0  0.659524  0  4.183413  0  0  0.695298  0  4.170343  0  1.64819  0  0.236597  0.635477  0  4.191002  0
C  C43  1  0.33577401  0.79414071  0.23942192  1  0  0.707811  0  3.890007  0  0  0.659528  0  4.183359  0  0  0.695301  0  4.170286  0  1.648292  0  0.236585  0.635482  0  4.19095  0
C  C44  1  0.21079283  0.41799967  0.80471156  1  0  0.030001  0  3.750837  0  0  0.030889  0  4.013355  0  0  0.029255  0  4.030117  0  0.46396  0  0.095987  0.031993  0  4.001628  0
C  C45  1  0.71079342  0.08199948  0.69528975  1  0  0.02995  0  3.7509  0  0  0.030802  0  4.013477  0  0  0.029168  0  4.030238  0  0.463931  0  0.095975  0.031907  0  4.001747  0
C  C46  1  0.78920727  0.58199958  0.19528984  1  0  0.029984  0  3.75086  0  0  0.030855  0  4.013399  0  0  0.02922  0  4.030159  0  0.463977  0  0.095991  0.03196  0  4.001672  0
C  C47  1  0.28920776  0.91800072  0.30471183  1  0  0.029933  0  3.750936  0  0  0.030831  0  4.013442  0  0  0.029198  0  4.0302  0  0.463962  0  0.095976  0.031936  0  4.001715  0
C  C48  1  0.34319565  0.46229877  0.84957537  1  0  -0.146078  0  3.622487  0  0  -0.190638  0  3.89717  0  0  -0.192348  0  3.913973  0  0.026797  0  -0.080769  -0.189149  0  3.885521  0
C  C49  1  0.84319516  0.03770133  0.65042332  1  0  -0.146006  0  3.622501  0  0  -0.190597  0  3.897207  0  0  -0.192304  0  3.914009  0  0.026767  0  -0.08076  -0.189106  0  3.885556  0
C  C50  1  0.65680444  0.53770143  0.15042411  1  0  -0.146068  0  3.622493  0  0  -0.190629  0  3.897216  0  0  -0.192332  0  3.914016  0  0.026842  0  -0.080787  -0.189141  0  3.885565  0
C  C51  1  0.15680385  0.96229887  0.34957546  1  0  -0.146099  0  3.622496  0  0  -0.190679  0  3.897177  0  0  -0.192389  0  3.913982  0  0.026752  0  -0.080777  -0.18919  0  3.885528  0
C  C52  1  0.31439236  0.58649300  0.90309471  1  0  0.031067  0  3.70068  0  0  0.017708  0  3.969662  0  0  0.016274  0  3.987007  0  0.333328  0  0.093747  0.018898  0  3.957759  0
C  C53  1  0.81439295  0.91350349  0.59690341  1  0  0.030954  0  3.700815  0  0  0.01761  0  3.969738  0  0  0.016169  0  3.987102  0  0.333555  0  0.093696  0.018801  0  3.957834  0
C  C54  1  0.68560666  0.41350434  0.09690351  1  0  0.030977  0  3.700805  0  0  0.017657  0  3.969725  0  0  0.016216  0  3.987096  0  0.333517  0  0.093694  0.018848  0  3.957822  0
C  C55  1  0.18560715  0.08649385  0.40309551  1  0  0.031099  0  3.7007  0  0  0.017756  0  3.969647  0  0  0.016317  0  3.987007  0  0.333548  0  0.093764  0.018947  0  3.957743  0
C  C56  1  0.40583418  0.68807157  0.96270331  1  0  0.662058  0  3.8173  0  0  0.606777  0  4.122376  0  0  0.641227  0  4.110811  0  1.579273  0  0.247912  0.583014  0  4.130136  0
C  C57  1  0.90583368  0.81191920  0.53729720  1  0  0.661906  0  3.817307  0  0  0.606711  0  4.122251  0  0  0.641153  0  4.11071  0  1.579293  0  0.247944  0.582947  0  4.130007  0
C  C58  1  0.59416700  0.31192005  0.03729659  1  0  0.66187  0  3.817283  0  0  0.606607  0  4.122323  0  0  0.641044  0  4.110792  0  1.579211  0  0.247914  0.582843  0  4.130081  0
C  C59  1  0.09416641  0.18807338  0.46270429  1  0  0.661994  0  3.817478  0  0  0.606732  0  4.122501  0  0  0.641179  0  4.110949  0  1.579285  0  0.247919  0.582969  0  4.130257  0
C  C60  1  0.14131356  0.18251159  0.94063658  1  0  0.664162  0  3.884929  0  0  0.60965  0  4.186512  0  0  0.644048  0  4.176529  0  1.602106  0  0.229621  0.586365  0  4.192385  0
C  C61  1  0.64131198  0.31749041  0.55935897  1  0  0.664271  0  3.884794  0  0  0.609767  0  4.186349  0  0  0.644168  0  4.17636  0  1.601742  0  0.229677  0.586481  0  4.19222  0
C  C62  1  0.85868762  0.81749051  0.05935976  1  0  0.664193  0  3.884976  0  0  0.609685  0  4.186545  0  0  0.644081  0  4.176561  0  1.601822  0  0.229613  0.586399  0  4.192418  0
C  C63  1  0.35868703  0.68250979  0.44064121  1  0  0.664283  0  3.884823  0  0  0.609755  0  4.186414  0  0  0.644158  0  4.176426  0  1.601734  0  0.22968  0.58647  0  4.192287  0
C  C64  1  0.06258000  0.06747560  0.88619137  1  0  0.043383  0  3.783456  0  0  0.042211  0  4.048243  0  0  0.041441  0  4.065319  0  0.457645  0  0.090479  0.042857  0  4.036218  0
C  C65  1  0.56257842  0.43252450  0.61380732  1  0  0.043438  0  3.783381  0  0  0.042243  0  4.04819  0  0  0.041477  0  4.065258  0  0.458198  0  0.090475  0.04289  0  4.036165  0
C  C66  1  0.93742009  0.93252460  0.11380600  1  0  0.043437  0  3.783442  0  0  0.042244  0  4.048258  0  0  0.041479  0  4.065317  0  0.458536  0  0.090487  0.042891  0  4.036232  0
C  C67  1  0.43741950  0.56747570  0.38619427  1  0  0.043349  0  3.783384  0  0  0.042153  0  4.048208  0  0  0.041379  0  4.065284  0  0.458557  0  0.090436  0.042799  0  4.036183  0
C  C68  1  0.92612723  0.01585314  0.89819456  1  0  -0.172251  0  3.636559  0  0  -0.209496  0  3.901644  0  0  -0.213238  0  3.919607  0  -0.034649  0  -0.086831  -0.206699  0  3.889345  0
C  C69  1  0.42612448  0.48414600  0.60180885  1  0  -0.172428  0  3.636413  0  0  -0.209668  0  3.901502  0  0  -0.213415  0  3.91946  0  -0.034333  0  -0.086898  -0.206868  0  3.889204  0
C  C70  1  0.07387286  0.98414801  0.10180510  1  0  -0.17233  0  3.63645  0  0  -0.209578  0  3.901525  0  0  -0.213309  0  3.919498  0  -0.034658  0  -0.08688  -0.20678  0  3.889226  0
C  C71  1  0.57387562  0.51585515  0.39819222  1  0  -0.172301  0  3.636397  0  0  -0.209536  0  3.901475  0  0  -0.213283  0  3.919432  0  -0.034379  0  -0.086851  -0.206738  0  3.889175  0
C  C72  1  0.92654340  0.89551266  0.83274908  1  0  0.045691  0  3.696681  0  0  0.03236  0  3.964521  0  0  0.032483  0  3.981975  0  0.381179  0  0.092844  0.031844  0  3.95302  0
C  C73  1  0.42654606  0.60448954  0.66725156  1  0  0.045736  0  3.696634  0  0  0.032424  0  3.964446  0  0  0.032548  0  3.981902  0  0.380671  0  0.092957  0.031908  0  3.952946  0
C  C74  1  0.07345344  0.10448944  0.16725077  1  0  0.045734  0  3.696627  0  0  0.03239  0  3.964497  0  0  0.032515  0  3.98195  0  0.380983  0  0.092908  0.031874  0  3.952995  0
C  C75  1  0.57345620  0.39551161  0.33274810  1  0  0.045636  0  3.696669  0  0  0.032341  0  3.964467  0  0  0.032464  0  3.981925  0  0.380847  0  0.092888  0.031826  0  3.952966  0
C  C76  1  0.82557851  0.78566901  0.81263669  1  0  0.675527  0  3.909493  0  0  0.618739  0  4.219733  0  0  0.653812  0  4.207928  0  1.64367  0  0.227317  0.594859  0  4.227021  0
C  C77  1  0.32558009  0.71433129  0.68736498  1  0  0.675545  0  3.909603  0  0  0.618769  0  4.219826  0  0  0.653842  0  4.20802  0  1.64359  0  0.227315  0.594889  0  4.227116  0
C  C78  1  0.17442050  0.21433214  0.18736298  1  0  0.675563  0  3.909486  0  0  0.618763  0  4.21974  0  0  0.653835  0  4.207935  0  1.643726  0  0.227361  0.594886  0  4.227027  0
C  C79  1  0.67442000  0.28566796  0.31263571  1  0  0.675492  0  3.909599  0  0  0.618702  0  4.219847  0  0  0.653775  0  4.208039  0  1.64394  0  0.227257  0.594822  0  4.227138  0
N  N80  1  0.17163738  0.60969235  0.88817946  1  0  -0.103966  0  3.444499  0  0  -0.04805  0  3.683349  0  0  -0.057323  0  3.699356  0  -0.7724  0  -0.241133  -0.041847  0  3.672668  0
N  N81  1  0.67163797  0.89030890  0.61181959  1  0  -0.103887  0  3.444408  0  0  -0.047995  0  3.683267  0  0  -0.057263  0  3.699273  0  -0.772282  0  -0.241096  -0.041795  0  3.672587  0
N  N82  1  0.82836163  0.39030880  0.11182020  1  0  -0.103854  0  3.444358  0  0  -0.047959  0  3.683208  0  0  -0.057228  0  3.699216  0  -0.772596  0  -0.24107  -0.041759  0  3.672527  0
N  N83  1  0.32836212  0.10969320  0.38817956  1  0  -0.103949  0  3.444446  0  0  -0.048059  0  3.683325  0  0  -0.05733  0  3.699332  0  -0.772613  0  -0.241129  -0.041856  0  3.672645  0
N  N84  1  0.10783164  0.50938687  0.82944369  1  0  -0.289437  0  3.097675  0  0  -0.267151  0  3.374093  0  0  -0.272879  0  3.389951  0  -0.676494  0  -0.275552  -0.262808  0  3.363557  0
N  N85  1  0.60783115  0.99061343  0.67055728  1  0  -0.28944  0  3.097562  0  0  -0.267143  0  3.374004  0  0  -0.272872  0  3.38986  0  -0.676501  0  -0.27556  -0.262801  0  3.36347  0
N  N86  1  0.89216954  0.49061333  0.17055649  1  0  -0.28947  0  3.097554  0  0  -0.267174  0  3.373991  0  0  -0.272901  0  3.389847  0  -0.676511  0  -0.275566  -0.262832  0  3.363457  0
N  N87  1  0.39216895  0.00938772  0.32944379  1  0  -0.289399  0  3.097625  0  0  -0.267126  0  3.37406  0  0  -0.272845  0  3.389912  0  -0.676502  0  -0.275535  -0.262785  0  3.363525  0
N  N88  1  0.13812837  0.98535825  0.81590427  1  0  -0.35008  0  3.201504  0  0  -0.324452  0  3.483605  0  0  -0.331204  0  3.499122  0  -0.71384  0  -0.323461  -0.319327  0  3.472635  0
N  N89  1  0.63812787  0.51464110  0.68409441  1  0  -0.350075  0  3.201309  0  0  -0.324432  0  3.483406  0  0  -0.331184  0  3.49892  0  -0.71414  0  -0.323446  -0.319307  0  3.472436  0
N  N90  1  0.86187173  0.01464004  0.18409343  1  0  -0.350038  0  3.201435  0  0  -0.324405  0  3.483537  0  0  -0.331148  0  3.499048  0  -0.714396  0  -0.323449  -0.319282  0  3.472567  0
N  N91  1  0.36187114  0.48535910  0.31590647  1  0  -0.350035  0  3.201343  0  0  -0.324385  0  3.483446  0  0  -0.331135  0  3.498962  0  -0.714389  0  -0.323421  -0.319263  0  3.472478  0
N  N92  1  0.05539462  0.88304077  0.78515438  1  0  -0.117364  0  3.486715  0  0  -0.060395  0  3.723878  0  0  -0.07074  0  3.741222  0  -0.790863  0  -0.249643  -0.053596  0  3.712447  0
N  N93  1  0.55539629  0.61695953  0.71484448  1  0  -0.117289  0  3.486637  0  0  -0.060345  0  3.723833  0  0  -0.070692  0  3.741178  0  -0.790658  0  -0.249687  -0.053546  0  3.712402  0
N  N94  1  0.94460331  0.11695848  0.21484421  1  0  -0.117376  0  3.486737  0  0  -0.060427  0  3.723905  0  0  -0.070775  0  3.74125  0  -0.790705  0  -0.249654  -0.053627  0  3.712474  0
N  N95  1  0.44460380  0.38304162  0.28515658  1  0  -0.1173  0  3.486671  0  0  -0.06037  0  3.723882  0  0  -0.070716  0  3.741228  0  -0.790869  0  -0.249685  -0.05357  0  3.712451  0
O  O96  1  0.07438874  0.26513190  0.00428694  1  0  -0.593011  0  1.992435  0  0  -0.534143  0  2.208662  0  0  -0.558341  0  2.198419  0  -1.180559  0  -0.28935  -0.517191  0  2.215352  0
O  O97  1  0.57438824  0.23486724  0.49571016  1  0  -0.593108  0  1.992436  0  0  -0.534208  0  2.20863  0  0  -0.558409  0  2.198388  0  -1.18051  0  -0.289385  -0.517255  0  2.215321  0
O  O98  1  0.92561136  0.73486925  0.99570922  1  0  -0.593058  0  1.992421  0  0  -0.534208  0  2.208667  0  0  -0.558404  0  2.198422  0  -1.180587  0  -0.289374  -0.517257  0  2.215357  0
O  O99  1  0.42561077  0.76513200  0.50429123  1  0  -0.593112  0  1.992395  0  0  -0.534213  0  2.208608  0  0  -0.558413  0  2.198362  0  -1.180509  0  -0.289394  -0.517262  0  2.215298  0
O  O100  1  0.27688099  0.18691170  0.91896950  1  0  -0.700603  0  2.037587  0  0  -0.639774  0  2.280463  0  0  -0.666301  0  2.271461  0  -1.182225  0  -0.344455  -0.621022  0  2.285962  0
O  O101  1  0.77687724  0.31308745  0.58103111  1  0  -0.700649  0  2.037583  0  0  -0.639811  0  2.280434  0  0  -0.666335  0  2.271428  0  -1.182166  0  -0.344472  -0.62107  0  2.285962  0
O  O102  1  0.72312128  0.81308850  0.08102998  1  0  -0.700637  0  2.03767  0  0  -0.63977  0  2.280513  0  0  -0.666286  0  2.271512  0  -1.18219  0  -0.344431  -0.621021  0  2.286018  0
O  O103  1  0.22312177  0.68691275  0.41897047  1  0  -0.700652  0  2.037656  0  0  -0.639778  0  2.280497  0  0  -0.666301  0  2.271495  0  -1.182183  0  -0.344462  -0.621026  0  2.285995  0
O  O104  1  0.03649046  0.29091838  0.70496995  1  0  -0.712422  0  2.055415  0  0  -0.664011  0  2.311341  0  0  -0.689103  0  2.300685  0  -1.174612  0  -0.39336  -0.646732  0  2.318024  0
O  O105  1  0.53649105  0.20908268  0.79502892  1  0  -0.712402  0  2.055366  0  0  -0.663997  0  2.311289  0  0  -0.689083  0  2.300615  0  -1.174722  0  -0.393339  -0.646721  0  2.317971  0
O  O106  1  0.96350963  0.70908182  0.29502953  1  0  -0.712409  0  2.055419  0  0  -0.663996  0  2.311341  0  0  -0.68909  0  2.300679  0  -1.174605  0  -0.393353  -0.646719  0  2.318022  0
O  O107  1  0.46350796  0.79091943  0.20497093  1  0  -0.712407  0  2.055395  0  0  -0.663998  0  2.311299  0  0  -0.689098  0  2.300678  0  -1.174683  0  -0.393337  -0.646723  0  2.317982  0
O  O108  1  0.24793788  0.19923314  0.72232756  1  0  -0.711084  0  2.077323  0  0  -0.658595  0  2.336844  0  0  -0.683882  0  2.325193  0  -1.215509  0  -0.409539  -0.640725  0  2.343923  0
O  O109  1  0.74793847  0.30076791  0.77767132  1  0  -0.711047  0  2.077349  0  0  -0.658562  0  2.336866  0  0  -0.683851  0  2.325214  0  -1.215566  0  -0.409496  -0.640691  0  2.343944  0
O  O110  1  0.75206329  0.80076801  0.27767141  1  0  -0.711053  0  2.07735  0  0  -0.658577  0  2.336867  0  0  -0.683854  0  2.325215  0  -1.21554  0  -0.409485  -0.640707  0  2.343945  0
O  O111  1  0.25206162  0.69923324  0.22232975  1  0  -0.71103  0  2.077354  0  0  -0.658545  0  2.336879  0  0  -0.683828  0  2.325225  0  -1.215522  0  -0.409471  -0.640676  0  2.343957  0
O  O112  1  0.53931318  0.65020838  0.97587617  1  0  -0.552831  0  2.122485  0  0  -0.496676  0  2.351569  0  0  -0.519626  0  2.335468  0  -1.162395  0  -0.312965  -0.480724  0  2.362984  0
O  O113  1  0.03930934  0.84978621  0.52412298  1  0  -0.552764  0  2.122645  0  0  -0.496585  0  2.351655  0  0  -0.51953  0  2.335559  0  -1.1622  0  -0.312923  -0.480633  0  2.363068  0
O  O114  1  0.46069125  0.34978706  0.02412098  1  0  -0.552719  0  2.122532  0  0  -0.496551  0  2.351538  0  0  -0.519497  0  2.335443  0  -1.162122  0  -0.312917  -0.480599  0  2.362953  0
O  O115  1  0.96068859  0.15021208  0.47587963  1  0  -0.55273  0  2.122633  0  0  -0.496558  0  2.35164  0  0  -0.519511  0  2.335542  0  -1.162367  0  -0.312904  -0.480605  0  2.363053  0
O  O116  1  0.35736050  0.79696493  0.99459534  1  0  -0.538504  0  1.95975  0  0  -0.486932  0  2.168395  0  0  -0.507165  0  2.157563  0  -1.14919  0  -0.265726  -0.473212  0  2.175891  0
O  O117  1  0.85736109  0.70302203  0.50540021  1  0  -0.53836  0  1.959538  0  0  -0.486855  0  2.168164  0  0  -0.507094  0  2.157344  0  -1.149499  0  -0.265729  -0.473136  0  2.175656  0
O  O118  1  0.64264068  0.20302384  0.00539839  1  0  -0.538391  0  1.959632  0  0  -0.486869  0  2.168286  0  0  -0.507103  0  2.157468  0  -1.149485  0  -0.265726  -0.473146  0  2.17578  0
O  O119  1  0.14263901  0.29696769  0.49459721  1  0  -0.538508  0  1.959762  0  0  -0.486973  0  2.168413  0  0  -0.507209  0  2.157586  0  -1.149258  0  -0.265776  -0.473253  0  2.175907  0
O  O120  1  0.87961084  0.67945704  0.76681793  1  0  -0.723966  0  2.048577  0  0  -0.676866  0  2.321019  0  0  -0.701604  0  2.310597  0  -1.208505  0  -0.397512  -0.659449  0  2.327678  0
O  O121  1  0.37960916  0.82054326  0.73318163  1  0  -0.723958  0  2.048691  0  0  -0.676836  0  2.3211  0  0  -0.701573  0  2.310677  0  -1.208469  0  -0.3975  -0.659418  0  2.32776  0
O  O122  1  0.12039034  0.32054316  0.23318224  1  0  -0.723968  0  2.048649  0  0  -0.676849  0  2.321074  0  0  -0.701587  0  2.310652  0  -1.208567  0  -0.397506  -0.659433  0  2.327731  0
O  O123  1  0.62039093  0.17945504  0.26681887  1  0  -0.723955  0  2.048657  0  0  -0.676857  0  2.321109  0  0  -0.701589  0  2.310686  0  -1.208479  0  -0.397482  -0.659442  0  2.327769  0
O  O124  1  0.69485011  0.80357604  0.84087448  1  0  -0.602473  0  2.014821  0  0  -0.540445  0  2.235261  0  0  -0.564545  0  2.224537  0  -1.187318  0  -0.293965  -0.523577  0  2.242197  0
O  O125  1  0.19484952  0.69642235  0.65913033  1  0  -0.602422  0  2.014803  0  0  -0.540457  0  2.2353  0  0  -0.564558  0  2.224575  0  -1.187263  0  -0.29396  -0.52359  0  2.24224  0
O  O126  1  0.30514998  0.19642511  0.15912519  1  0  -0.602503  0  2.014763  0  0  -0.54046  0  2.235212  0  0  -0.564558  0  2.224489  0  -1.187338  0  -0.294025  -0.5236  0  2.242154  0
O  O127  1  0.80514949  0.30357690  0.34086966  1  0  -0.60238  0  2.014804  0  0  -0.540414  0  2.235297  0  0  -0.564516  0  2.224573  0  -1.187601  0  -0.293938  -0.523544  0  2.242233  0
O  O128  1  0.51364631  0.99991260  0.88592734  1  0  -0.939928  0  1.886504  0  0  -0.891995  0  2.09637  0  0  -0.912076  0  2.063544  0  -1.26805  0  -0.671456  -0.877466  0  2.118933  0
O  O129  1  0.01364464  0.50008865  0.61407312  1  0  -0.93984  0  1.886584  0  0  -0.891899  0  2.096449  0  0  -0.911978  0  2.063628  0  -1.268057  0  -0.671409  -0.87737  0  2.119008  0
O  O130  1  0.48635704  0.00009046  0.11407270  1  0  -0.939791  0  1.886548  0  0  -0.891831  0  2.096493  0  0  -0.911899  0  2.063679  0  -1.267916  0  -0.671412  -0.877302  0  2.119038  0
O  O131  1  0.98635329  0.49991250  0.38592725  1  0  -0.939943  0  1.886511  0  0  -0.89195  0  2.096489  0  0  -0.912028  0  2.063665  0  -1.268072  0  -0.671447  -0.877423  0  2.119048  0
O  O132  1  0.30972565  0.97577247  0.60079016  1  0  -0.927199  0  1.900574  0  0  -0.883305  0  2.10988  0  0  -0.901468  0  2.077471  0  -1.294684  0  -0.658864  -0.86983  0  2.133046  0
O  O133  1  0.80972624  0.52422687  0.89920992  1  0  -0.927219  0  1.90059  0  0  -0.883318  0  2.109874  0  0  -0.90148  0  2.077463  0  -1.294701  0  -0.658874  -0.869843  0  2.133037  0
O  O134  1  0.69027444  0.02422772  0.39921002  1  0  -0.927205  0  1.900602  0  0  -0.883302  0  2.109909  0  0  -0.901461  0  2.077509  0  -1.294634  0  -0.658883  -0.869825  0  2.133071  0
O  O135  1  0.19027494  0.47577333  0.10079096  1  0  -0.927249  0  1.900587  0  0  -0.88334  0  2.109874  0  0  -0.901506  0  2.077467  0  -1.294616  0  -0.658914  -0.869862  0  2.133031  0
