# generated using pymatgen
data_LiBH15C5NO
_symmetry_space_group_name_H-M   'P 1'
_cell_length_a   7.49741029
_cell_length_b   10.95348929
_cell_length_c   11.04825253
_cell_angle_alpha   117.58572910
_cell_angle_beta   89.99999366
_cell_angle_gamma   89.99998796
_symmetry_Int_Tables_number   1
_chemical_formula_structural   LiBH15C5NO
_chemical_formula_sum   'Li4 B4 H60 C20 N4 O4'
_cell_volume   804.16911836
_cell_formula_units_Z   4
loop_
 _symmetry_equiv_pos_site_id
 _symmetry_equiv_pos_as_xyz
  1  'x, y, z'
loop_
 _atom_site_type_symbol
 _atom_site_label
 _atom_site_symmetry_multiplicity
 _atom_site_fract_x
 _atom_site_fract_y
 _atom_site_fract_z
 _atom_site_occupancy
 _atom_site_hle17_bader_spin_density
 _atom_site_hle17_ddec_charge
 _atom_site_hle17_ddec_spin_density
 _atom_site_hle17_ddec_sum_bond_order
 _atom_site_hle17_magmom
 _atom_site_hse06_10hf_bader_spin_density
 _atom_site_hse06_10hf_ddec_charge
 _atom_site_hse06_10hf_ddec_spin_density
 _atom_site_hse06_10hf_ddec_sum_bond_order
 _atom_site_hse06_10hf_magmom
 _atom_site_hse06_bader_spin_density
 _atom_site_hse06_ddec_charge
 _atom_site_hse06_ddec_spin_density
 _atom_site_hse06_ddec_sum_bond_order
 _atom_site_hse06_magmom
 _atom_site_pbe_bader_spin_density
 _atom_site_pbe_cm5_charge
 _atom_site_pbe_ddec_charge
 _atom_site_pbe_ddec_spin_density
 _atom_site_pbe_ddec_sum_bond_order
 _atom_site_pbe_magmom
Li  Li0  1  0.89572248  0.63000579  0.55203965  1  0  0.807895  0  0.444622  0  0  0.756809  0  0.557989  0  0  0.763592  0  0.548815  0  0  0.437261  0.752112  0  0.564289  0
Li  Li1  1  0.39572184  0.36999398  0.94796034  1  0  0.807902  0  0.444608  0  0  0.756817  0  0.557978  0  0  0.7636  0  0.548803  0  0  0.437262  0.75212  0  0.564278  0
Li  Li2  1  0.10427858  0.36999448  0.44795981  1  0  0.807898  0  0.444606  0  0  0.756816  0  0.55797  0  0  0.763599  0  0.548794  0  0  0.437262  0.752118  0  0.56427  0
Li  Li3  1  0.60427789  0.63000630  0.05204002  1  0  0.807895  0  0.444626  0  0  0.756811  0  0.557991  0  0  0.763594  0  0.548816  0  0  0.437259  0.752113  0  0.564292  0
B  B4  1  0.78828143  0.39671670  0.44777971  1  0  -0.128141  0  3.728323  0  0  -0.346822  0  4.034496  0  0  -0.339175  0  4.043677  0  0  -0.647021  -0.351551  0  4.027723  0
B  B5  1  0.28828078  0.60328302  0.05221962  1  0  -0.128144  0  3.728398  0  0  -0.34683  0  4.034563  0  0  -0.339183  0  4.043743  0  0  -0.647024  -0.351561  0  4.027796  0
B  B6  1  0.21171963  0.60328358  0.55221975  1  0  -0.128088  0  3.728354  0  0  -0.346769  0  4.034525  0  0  -0.339122  0  4.043706  0  0  -0.646996  -0.351499  0  4.027756  0
B  B7  1  0.71171895  0.39671726  0.94778075  1  0  -0.128134  0  3.728356  0  0  -0.346814  0  4.03452  0  0  -0.339166  0  4.0437  0  0  -0.647018  -0.351544  0  4.027751  0
H  H8  1  0.90399203  0.61124035  0.23552068  1  0  0.064051  0  0.945487  0  0  0.076829  0  1.012373  0  0  0.077375  0  1.012129  0  0  0.111058  0.076324  0  1.012718  0
H  H9  1  0.40399008  0.38875934  0.26447863  1  0  0.064057  0  0.94549  0  0  0.076812  0  1.01238  0  0  0.077357  0  1.012136  0  0  0.111049  0.076306  0  1.012726  0
H  H10  1  0.09601036  0.38875890  0.76447922  1  0  0.064028  0  0.945476  0  0  0.076812  0  1.012381  0  0  0.077359  0  1.012139  0  0  0.111048  0.076307  0  1.012727  0
H  H11  1  0.59600831  0.61124093  0.73552083  1  0  0.064069  0  0.945487  0  0  0.076818  0  1.01238  0  0  0.077364  0  1.012136  0  0  0.111067  0.076313  0  1.012724  0
H  H12  1  0.61310092  0.56922041  0.29175650  1  0  0.067805  0  0.91668  0  0  0.082509  0  0.979374  0  0  0.082734  0  0.979588  0  0  0.118414  0.082251  0  0.979327  0
H  H13  1  0.11310164  0.43078038  0.20824423  1  0  0.067797  0  0.916687  0  0  0.082502  0  0.979387  0  0  0.082727  0  0.979601  0  0  0.118414  0.082244  0  0.979339  0
H  H14  1  0.38689747  0.43078090  0.70824433  1  0  0.067804  0  0.916712  0  0  0.082508  0  0.979406  0  0  0.082734  0  0.979619  0  0  0.118418  0.082249  0  0.979357  0
H  H15  1  0.88689942  0.56921989  0.79175613  1  0  0.067811  0  0.916682  0  0  0.082514  0  0.979376  0  0  0.082739  0  0.97959  0  0  0.118422  0.082255  0  0.979328  0
H  H16  1  0.40113037  0.75599995  0.32054953  1  0  0.089927  0  0.924071  0  0  0.110599  0  0.977489  0  0  0.110752  0  0.978556  0  0  0.118312  0.110408  0  0.976841  0
H  H17  1  0.90113110  0.24400180  0.17945163  1  0  0.089926  0  0.924067  0  0  0.110583  0  0.977492  0  0  0.110737  0  0.978557  0  0  0.118306  0.110393  0  0.976844  0
H  H18  1  0.59886936  0.24400135  0.67945131  1  0  0.089922  0  0.924068  0  0  0.11059  0  0.977496  0  0  0.110742  0  0.978561  0  0  0.118306  0.1104  0  0.976848  0
H  H19  1  0.09886862  0.75599951  0.82055012  1  0  0.089926  0  0.924081  0  0  0.110595  0  0.977501  0  0  0.110747  0  0.978569  0  0  0.118312  0.110404  0  0.976853  0
H  H20  1  0.84658281  0.92502973  0.38924044  1  0  0.049447  0  0.913075  0  0  0.067189  0  0.974714  0  0  0.068335  0  0.973644  0  0  0.094474  0.06623  0  0.975651  0
H  H21  1  0.34658365  0.07496790  0.11075704  1  0  0.049433  0  0.913083  0  0  0.067179  0  0.974744  0  0  0.068328  0  0.973665  0  0  0.094469  0.06622  0  0.975679  0
H  H22  1  0.15341691  0.07496848  0.61075808  1  0  0.049442  0  0.913096  0  0  0.067194  0  0.974738  0  0  0.06834  0  0.973667  0  0  0.094482  0.066235  0  0.975672  0
H  H23  1  0.65341741  0.92503030  0.88924058  1  0  0.04944  0  0.913093  0  0  0.067182  0  0.974735  0  0  0.068328  0  0.973664  0  0  0.094475  0.066223  0  0.975671  0
H  H24  1  0.53736538  0.88009907  0.45426540  1  0  0.041506  0  0.942125  0  0  0.054363  0  1.016774  0  0  0.0557  0  1.014981  0  0  0.089877  0.053294  0  1.018198  0
H  H25  1  0.03736621  0.11990173  0.04573444  1  0  0.041497  0  0.942136  0  0  0.054369  0  1.016749  0  0  0.055706  0  1.014955  0  0  0.089879  0.053299  0  1.018175  0
H  H26  1  0.46263435  0.11990120  0.54573496  1  0  0.041476  0  0.942163  0  0  0.054363  0  1.016777  0  0  0.055698  0  1.014981  0  0  0.089874  0.053293  0  1.018202  0
H  H27  1  0.96263485  0.88009957  0.95426549  1  0  0.041487  0  0.94215  0  0  0.054356  0  1.016783  0  0  0.055691  0  1.014991  0  0  0.089877  0.053286  0  1.018208  0
H  H28  1  0.91309514  0.82596147  0.21509021  1  0  0.075937  0  0.930221  0  0  0.094179  0  0.989478  0  0  0.094302  0  0.990389  0  0  0.113238  0.094017  0  0.988945  0
H  H29  1  0.41309592  0.17403821  0.28490910  1  0  0.075945  0  0.93014  0  0  0.094191  0  0.989416  0  0  0.094313  0  0.990327  0  0  0.113226  0.094027  0  0.988886  0
H  H30  1  0.08690325  0.17403777  0.78490878  1  0  0.075942  0  0.930145  0  0  0.094188  0  0.989416  0  0  0.094311  0  0.990325  0  0  0.113228  0.094024  0  0.988886  0
H  H31  1  0.58690514  0.82596207  0.71509126  1  0  0.075951  0  0.930196  0  0  0.094188  0  0.989462  0  0  0.094312  0  0.990372  0  0  0.11324  0.094026  0  0.988931  0
H  H32  1  0.04047250  0.73464379  0.36796275  1  0  0.073841  0  0.933459  0  0  0.089615  0  0.99129  0  0  0.08976  0  0.991104  0  0  0.113344  0.089412  0  0.991533  0
H  H33  1  0.54047190  0.26535598  0.13203662  1  0  0.073863  0  0.933506  0  0  0.089621  0  0.991323  0  0  0.089766  0  0.991137  0  0  0.113352  0.089418  0  0.991566  0
H  H34  1  0.95952856  0.26535648  0.63203671  1  0  0.073828  0  0.933468  0  0  0.089615  0  0.991303  0  0  0.089761  0  0.991117  0  0  0.113347  0.089412  0  0.991546  0
H  H35  1  0.45952916  0.73464326  0.86796328  1  0  0.073847  0  0.933477  0  0  0.089603  0  0.991308  0  0  0.089748  0  0.991122  0  0  0.113336  0.0894  0  0.991552  0
H  H36  1  0.53983560  0.65925272  0.46502100  1  0  0.084305  0  0.926014  0  0  0.100961  0  0.98436  0  0  0.100532  0  0.985569  0  0  0.120641  0.101163  0  0.983632  0
H  H37  1  0.03983503  0.34074808  0.03497884  1  0  0.084281  0  0.925972  0  0  0.100938  0  0.984323  0  0  0.100509  0  0.985531  0  0  0.120621  0.10114  0  0.983593  0
H  H38  1  0.46016546  0.34074859  0.53497983  1  0  0.084302  0  0.926004  0  0  0.100953  0  0.984357  0  0  0.100524  0  0.985567  0  0  0.12063  0.101153  0  0.983629  0
H  H39  1  0.96016469  0.65925219  0.96502062  1  0  0.084291  0  0.926013  0  0  0.100944  0  0.984357  0  0  0.100516  0  0.985566  0  0  0.120629  0.101145  0  0.983628  0
H  H40  1  0.65308936  0.92310243  0.15516874  1  0  0.094438  0  0.947937  0  0  0.111676  0  1.015005  0  0  0.11365  0  1.01358  0  0  0.103875  0.110156  0  1.016144  0
H  H41  1  0.15309015  0.07689731  0.34483061  1  0  0.094377  0  0.948005  0  0  0.111628  0  1.015062  0  0  0.113598  0  1.013638  0  0  0.103858  0.110109  0  1.016199  0
H  H42  1  0.34690904  0.07689682  0.84483116  1  0  0.094426  0  0.947885  0  0  0.111679  0  1.014945  0  0  0.11365  0  1.013522  0  0  0.103893  0.110158  0  1.016084  0
H  H43  1  0.84691091  0.92310296  0.65516975  1  0  0.094415  0  0.947999  0  0  0.111661  0  1.015059  0  0  0.113634  0  1.013634  0  0  0.103861  0.11014  0  1.016198  0
H  H44  1  0.43629850  0.89483247  0.20358042  1  0  0.098763  0  0.946998  0  0  0.120372  0  1.008473  0  0  0.120818  0  1.009614  0  0  0.108523  0.119959  0  1.00777  0
H  H45  1  0.93629926  0.10516824  0.29641935  1  0  0.098771  0  0.947011  0  0  0.12039  0  1.008478  0  0  0.120835  0  1.009619  0  0  0.108532  0.119976  0  1.007777  0
H  H46  1  0.56370123  0.10516781  0.79641995  1  0  0.098755  0  0.947007  0  0  0.120372  0  1.00848  0  0  0.120816  0  1.009622  0  0  0.108521  0.119958  0  1.007777  0
H  H47  1  0.06370180  0.89483306  0.70358057  1  0  0.09877  0  0.946999  0  0  0.120391  0  1.008464  0  0  0.120837  0  1.009605  0  0  0.108527  0.119977  0  1.007763  0
H  H48  1  0.71907084  0.49543739  0.54414688  1  0  -0.180184  0  1.07145  0  0  -0.119402  0  1.162721  0  0  -0.122318  0  1.164145  0  0  0.030062  -0.117484  0  1.161726  0
H  H49  1  0.21907015  0.50456242  0.95585405  1  0  -0.180196  0  1.071473  0  0  -0.11941  0  1.162738  0  0  -0.122325  0  1.164161  0  0  0.030057  -0.117493  0  1.161743  0
H  H50  1  0.28092889  0.50456186  0.45585393  1  0  -0.180219  0  1.071462  0  0  -0.119434  0  1.162732  0  0  -0.12235  0  1.164155  0  0  0.030057  -0.117516  0  1.161737  0
H  H51  1  0.78092957  0.49543786  0.04414722  1  0  -0.180192  0  1.071436  0  0  -0.11941  0  1.16271  0  0  -0.122326  0  1.164134  0  0  0.030062  -0.117492  0  1.161715  0
H  H52  1  0.89483955  0.43813259  0.38979940  1  0  -0.218766  0  1.118604  0  0  -0.155119  0  1.205569  0  0  -0.157824  0  1.206591  0  0  0.037194  -0.153381  0  1.204884  0
H  H53  1  0.39483891  0.56186710  0.11020082  1  0  -0.218762  0  1.118615  0  0  -0.155118  0  1.205588  0  0  -0.157824  0  1.20661  0  0  0.037195  -0.153381  0  1.204902  0
H  H54  1  0.10516018  0.56186769  0.61020096  1  0  -0.218771  0  1.118617  0  0  -0.155125  0  1.205583  0  0  -0.15783  0  1.206604  0  0  0.037182  -0.153388  0  1.204897  0
H  H55  1  0.60515948  0.43813318  0.88980046  1  0  -0.218765  0  1.118593  0  0  -0.15512  0  1.205563  0  0  -0.157826  0  1.206585  0  0  0.037191  -0.153382  0  1.204877  0
H  H56  1  0.86466381  0.32609128  0.49130133  1  0  -0.181502  0  1.084843  0  0  -0.11835  0  1.168823  0  0  -0.121488  0  1.170735  0  0  0.028719  -0.116236  0  1.167412  0
H  H57  1  0.36466315  0.67390739  0.00869842  1  0  -0.181493  0  1.084881  0  0  -0.118338  0  1.168853  0  0  -0.121476  0  1.170765  0  0  0.028725  -0.116225  0  1.167441  0
H  H58  1  0.13533725  0.67390797  0.50869857  1  0  -0.181505  0  1.084895  0  0  -0.118358  0  1.168883  0  0  -0.121497  0  1.170796  0  0  0.028719  -0.116245  0  1.167472  0
H  H59  1  0.63533658  0.32609186  0.99130147  1  0  -0.181503  0  1.084902  0  0  -0.118354  0  1.168889  0  0  -0.121492  0  1.1708  0  0  0.028719  -0.116241  0  1.167478  0
H  H60  1  0.67468488  0.32845580  0.36553983  1  0  -0.130206  0  1.023212  0  0  -0.06705  0  1.107387  0  0  -0.071226  0  1.110832  0  0  0.023799  -0.064193  0  1.104872  0
H  H61  1  0.17468554  0.67154497  0.13445999  1  0  -0.1302  0  1.023219  0  0  -0.067044  0  1.107392  0  0  -0.07122  0  1.110837  0  0  0.0238  -0.064187  0  1.104876  0
H  H62  1  0.32531484  0.67154550  0.63446101  1  0  -0.130207  0  1.023216  0  0  -0.067052  0  1.107388  0  0  -0.071229  0  1.110832  0  0  0.023795  -0.064196  0  1.104872  0
H  H63  1  0.82531419  0.32845531  0.86554037  1  0  -0.1302  0  1.023215  0  0  -0.067043  0  1.107386  0  0  -0.07122  0  1.11083  0  0  0.023801  -0.064187  0  1.10487  0
H  H64  1  0.58672656  0.01252869  0.33075406  1  0  0.068775  0  0.952867  0  0  0.08696  0  1.025079  0  0  0.088169  0  1.024334  0  0  0.087625  0.085974  0  1.025712  0
H  H65  1  0.08672578  0.98747210  0.16924668  1  0  0.06878  0  0.952848  0  0  0.086969  0  1.025062  0  0  0.088176  0  1.024318  0  0  0.087616  0.085983  0  1.025695  0
H  H66  1  0.41327316  0.98747159  0.66924721  1  0  0.068769  0  0.952841  0  0  0.086955  0  1.025061  0  0  0.088164  0  1.024316  0  0  0.087616  0.08597  0  1.025694  0
H  H67  1  0.91327394  0.01252817  0.83075369  1  0  0.06877  0  0.952854  0  0  0.086954  0  1.025073  0  0  0.088162  0  1.024329  0  0  0.087613  0.085968  0  1.025706  0
C  C68  1  0.61542437  0.66924079  0.38502780  1  0  0.076667  0  3.588449  0  0  0.021259  0  3.852493  0  0  0.027953  0  3.858455  0  0  -0.05374  0.016777  0  3.848413  0
C  C69  1  0.11542513  0.33076000  0.11497293  1  0  0.076732  0  3.588434  0  0  0.021299  0  3.852493  0  0  0.027993  0  3.858455  0  0  -0.053724  0.01682  0  3.848409  0
C  C70  1  0.38457536  0.33076052  0.61497303  1  0  0.076646  0  3.588495  0  0  0.021247  0  3.852529  0  0  0.027937  0  3.858489  0  0  -0.053744  0.016769  0  3.848445  0
C  C71  1  0.88457593  0.66924028  0.88502743  1  0  0.076689  0  3.588437  0  0  0.021288  0  3.85246  0  0  0.027984  0  3.85842  0  0  -0.05374  0.01681  0  3.848376  0
C  C72  1  0.53893794  0.78206382  0.35759159  1  0  -0.041159  0  3.672822  0  0  -0.097384  0  3.932698  0  0  -0.094978  0  3.943892  0  0  -0.069183  -0.098922  0  3.925057  0
C  C73  1  0.03893873  0.21793699  0.14240916  1  0  -0.041154  0  3.672857  0  0  -0.097346  0  3.932649  0  0  -0.09494  0  3.943841  0  0  -0.069159  -0.098885  0  3.925007  0
C  C74  1  0.46106178  0.21793646  0.64240878  1  0  -0.041112  0  3.672829  0  0  -0.097366  0  3.932685  0  0  -0.094951  0  3.943861  0  0  -0.069173  -0.098906  0  3.925042  0
C  C75  1  0.96106233  0.78206432  0.85759167  1  0  -0.041135  0  3.672813  0  0  -0.097365  0  3.932677  0  0  -0.094961  0  3.943871  0  0  -0.069178  -0.098904  0  3.925034  0
C  C76  1  0.83279274  0.82342213  0.29717020  1  0  -0.03885  0  3.685349  0  0  -0.093792  0  3.946567  0  0  -0.091312  0  3.957851  0  0  -0.067895  -0.095338  0  3.938793  0
C  C77  1  0.33279220  0.17657654  0.20282775  1  0  -0.038792  0  3.685291  0  0  -0.093827  0  3.946575  0  0  -0.091343  0  3.957856  0  0  -0.067883  -0.095375  0  3.938807  0
C  C78  1  0.16720698  0.17657711  0.70282788  1  0  -0.038825  0  3.685269  0  0  -0.093823  0  3.946565  0  0  -0.09134  0  3.957848  0  0  -0.067891  -0.095368  0  3.938793  0
C  C79  1  0.66720753  0.82342270  0.79717124  1  0  -0.038821  0  3.685364  0  0  -0.093785  0  3.946575  0  0  -0.091304  0  3.957857  0  0  -0.067911  -0.095334  0  3.938809  0
C  C80  1  0.90396000  0.71153210  0.32829893  1  0  0.064999  0  3.631993  0  0  0.005431  0  3.903945  0  0  0.012497  0  3.9086  0  0  -0.060941  0.000675  0  3.900786  0
C  C81  1  0.40396076  0.28846759  0.17170038  1  0  0.064927  0  3.632079  0  0  0.005461  0  3.903931  0  0  0.012527  0  3.908586  0  0  -0.060946  0.000706  0  3.90077  0
C  C82  1  0.09603973  0.28846714  0.67170006  1  0  0.065049  0  3.631897  0  0  0.005439  0  3.903948  0  0  0.012497  0  3.908616  0  0  -0.060953  0.000682  0  3.900788  0
C  C83  1  0.59604030  0.71153165  0.82829861  1  0  0.064932  0  3.632048  0  0  0.005449  0  3.903904  0  0  0.012515  0  3.908557  0  0  -0.060949  0.000694  0  3.900744  0
C  C84  1  0.57651358  0.91407483  0.23533239  1  0  -0.186889  0  3.728038  0  0  -0.28331  0  3.992057  0  0  -0.281635  0  4.001617  0  0  -0.145246  -0.284128  0  3.98547  0
C  C85  1  0.07651438  0.08592596  0.26466744  1  0  -0.186861  0  3.7281  0  0  -0.283328  0  3.992142  0  0  -0.281651  0  4.001701  0  0  -0.145253  -0.284147  0  3.985556  0
C  C86  1  0.42348615  0.08592544  0.76466797  1  0  -0.186846  0  3.727973  0  0  -0.283302  0  3.991981  0  0  -0.28163  0  4.001543  0  0  -0.145247  -0.28412  0  3.985396  0
C  C87  1  0.92348534  0.91407534  0.73533248  1  0  -0.186881  0  3.728098  0  0  -0.283316  0  3.9921  0  0  -0.281639  0  4.001657  0  0  -0.145243  -0.284133  0  3.985513  0
N  N88  1  0.64504926  0.79842193  0.25359502  1  0  -0.26465  0  3.296168  0  0  -0.181912  0  3.555697  0  0  -0.194954  0  3.57484  0  0  -0.403277  -0.172824  0  3.542234  0
N  N89  1  0.14505137  0.20157782  0.24640524  1  0  -0.264667  0  3.296137  0  0  -0.181881  0  3.555628  0  0  -0.194922  0  3.574768  0  0  -0.403273  -0.172792  0  3.542163  0
N  N90  1  0.35494914  0.20157732  0.74640578  1  0  -0.264716  0  3.296175  0  0  -0.18191  0  3.555673  0  0  -0.194947  0  3.574802  0  0  -0.403281  -0.172821  0  3.542208  0
N  N91  1  0.85494969  0.79842142  0.75359466  1  0  -0.264656  0  3.296182  0  0  -0.181913  0  3.555698  0  0  -0.194953  0  3.574841  0  0  -0.403252  -0.172824  0  3.542235  0
O  O92  1  0.79732050  0.70149277  0.43195797  1  0  -0.388015  0  2.289651  0  0  -0.315614  0  2.540663  0  0  -0.331263  0  2.541796  0  0  -0.289113  -0.304695  0  2.539654  0
O  O93  1  0.29731995  0.29850694  0.06804136  1  0  -0.388014  0  2.289684  0  0  -0.315635  0  2.540673  0  0  -0.331286  0  2.541807  0  0  -0.289101  -0.304717  0  2.539663  0
O  O94  1  0.20268056  0.29850750  0.56804240  1  0  -0.387992  0  2.289639  0  0  -0.315586  0  2.540665  0  0  -0.331235  0  2.541802  0  0  -0.289089  -0.304668  0  2.539654  0
O  O95  1  0.70267978  0.70149334  0.93195900  1  0  -0.38801  0  2.289674  0  0  -0.315632  0  2.540648  0  0  -0.331283  0  2.541781  0  0  -0.289101  -0.304714  0  2.539637  0
