# generated using pymatgen
data_ZnH6C5N8
_symmetry_space_group_name_H-M   'P 1'
_cell_length_a   9.57607213
_cell_length_b   9.57605878
_cell_length_c   20.38816529
_cell_angle_alpha   89.99678730
_cell_angle_beta   90.00330226
_cell_angle_gamma   120.00071112
_symmetry_Int_Tables_number   1
_chemical_formula_structural   ZnH6C5N8
_chemical_formula_sum   'Zn6 H36 C30 N48'
_cell_volume   1619.12312789
_cell_formula_units_Z   6
loop_
 _symmetry_equiv_pos_site_id
 _symmetry_equiv_pos_as_xyz
  1  'x, y, z'
loop_
 _atom_site_type_symbol
 _atom_site_label
 _atom_site_symmetry_multiplicity
 _atom_site_fract_x
 _atom_site_fract_y
 _atom_site_fract_z
 _atom_site_occupancy
 _atom_site_pbe_bader_charge
 _atom_site_pbe_bader_spin_density
 _atom_site_pbe_cm5_charge
 _atom_site_pbe_ddec_charge
 _atom_site_pbe_ddec_spin_density
 _atom_site_pbe_ddec_sum_bond_order
 _atom_site_pbe_magmom
Zn  Zn0  1  0.93465921  0.50987107  0.41718675  1  1.184677  0  0.744631  0.661621  0  2.617195  0
Zn  Zn1  1  0.49008572  0.42475321  0.75051684  1  1.180603  0  0.744662  0.661811  0  2.616839  0
Zn  Zn2  1  0.57522371  0.06533602  0.08385026  1  1.186956  0  0.744722  0.661372  0  2.617383  0
Zn  Zn3  1  0.50987265  0.93465727  0.58281204  1  1.18478  0  0.744601  0.661598  0  2.617157  0
Zn  Zn4  1  0.06533351  0.57522417  0.91615069  1  1.186988  0  0.744718  0.661409  0  2.617361  0
Zn  Zn5  1  0.42475623  0.49008955  0.24948372  1  1.180389  0  0.744718  0.661834  0  2.616947  0
H  H6  1  0.98674525  0.64042627  0.56033887  1  0.504702  0  0.28114  0.277112  0  1.048618  0
H  H7  1  0.35956337  0.34631540  0.89369524  1  0.495936  0  0.281282  0.277175  0  1.048153  0
H  H8  1  0.65369457  0.01327324  0.22704393  1  0.501282  0  0.281243  0.277279  0  1.048213  0
H  H9  1  0.64042658  0.98674341  0.43965999  1  0.504693  0  0.281123  0.277042  0  1.048674  0
H  H10  1  0.01327059  0.65369250  0.77295802  1  0.501316  0  0.281215  0.27722  0  1.048258  0
H  H11  1  0.34631466  0.35956567  0.10630525  1  0.495943  0  0.281305  0.277201  0  1.04818  0
H  H12  1  0.14282782  0.80606564  0.59939678  1  0.486001  0  0.285945  0.283951  0  1.023552  0
H  H13  1  0.19394634  0.33676502  0.93277606  1  0.488876  0  0.286169  0.284027  0  1.023952  0
H  H14  1  0.66325164  0.85719616  0.26612165  1  0.47788  0  0.286135  0.284147  0  1.023428  0
H  H15  1  0.80606577  0.14282517  0.40060233  1  0.485994  0  0.28593  0.283918  0  1.023565  0
H  H16  1  0.85719511  0.66324955  0.73387914  1  0.477899  0  0.28612  0.284097  0  1.023452  0
H  H17  1  0.33676341  0.19394880  0.06722534  1  0.488914  0  0.286165  0.284016  0  1.023961  0
H  H18  1  0.93548541  0.05784305  0.24183175  1  0.471286  0  0.295247  0.300612  0  0.986043  0
H  H19  1  0.94215866  0.87766651  0.57515497  1  0.46843  0  0.295534  0.300948  0  0.985376  0
H  H20  1  0.12233067  0.06450470  0.90848766  1  0.472763  0  0.295627  0.301205  0  0.985535  0
H  H21  1  0.05784639  0.93547998  0.75816737  1  0.471278  0  0.295282  0.300675  0  0.986013  0
H  H22  1  0.06450169  0.12232900  0.09151165  1  0.472811  0  0.295597  0.301214  0  0.985501  0
H  H23  1  0.87766926  0.94216186  0.42484592  1  0.468427  0  0.295509  0.300975  0  0.985358  0
H  H24  1  0.13091822  0.16716852  0.21516655  1  0.454081  0  0.29899  0.297629  0  0.982335  0
H  H25  1  0.83282053  0.96376539  0.54847900  1  0.445457  0  0.298882  0.296838  0  0.983157  0
H  H26  1  0.03620465  0.86907453  0.88180831  1  0.436344  0  0.299008  0.297202  0  0.98186  0
H  H27  1  0.16716859  0.13091370  0.78483085  1  0.454  0  0.299017  0.29764  0  0.982334  0
H  H28  1  0.86907152  0.03620486  0.11819127  1  0.436338  0  0.298976  0.297213  0  0.981858  0
H  H29  1  0.96376961  0.83282397  0.45152237  1  0.445412  0  0.298869  0.296854  0  0.983088  0
H  H30  1  0.27309083  0.76384896  0.31089548  1  0.08092  0  0.114246  0.139368  0  0.937504  0
H  H31  1  0.23611156  0.50917169  0.64423048  1  0.074132  0  0.114367  0.139414  0  0.937353  0
H  H32  1  0.49079487  0.72689940  0.97758622  1  0.074399  0  0.114208  0.139128  0  0.93766  0
H  H33  1  0.76384890  0.27309289  0.68910464  1  0.080938  0  0.114244  0.139368  0  0.93751  0
H  H34  1  0.72689719  0.49079738  0.02241495  1  0.074355  0  0.114191  0.1391  0  0.937676  0
H  H35  1  0.50917423  0.23611355  0.35576855  1  0.07418  0  0.114356  0.139404  0  0.93738  0
H  H36  1  0.41777098  0.71230600  0.33710110  1  0.13288  0  0.111482  0.128602  0  1.028436  0
H  H37  1  0.28766321  0.70537819  0.67044622  1  0.098544  0  0.1113  0.128447  0  1.028146  0
H  H38  1  0.29457369  0.58227644  0.00379602  1  0.098439  0  0.111343  0.128238  0  1.028545  0
H  H39  1  0.71230338  0.41777179  0.66289758  1  0.132874  0  0.111467  0.128604  0  1.028406  0
H  H40  1  0.58227343  0.29457507  0.99620551  1  0.098405  0  0.111332  0.128216  0  1.028557  0
H  H41  1  0.70538241  0.28766712  0.32955339  1  0.098169  0  0.111309  0.128451  0  1.028125  0
C  C42  1  0.19291012  0.76039185  0.50726178  1  1.527732  0  0.314435  0.515972  0  4.105035  0
C  C43  1  0.23960483  0.43252288  0.84062735  1  1.470076  0  0.314526  0.516608  0  4.105702  0
C  C44  1  0.56749882  0.80711483  0.17397146  1  1.481832  0  0.31479  0.51627  0  4.105408  0
C  C45  1  0.76039287  0.19290956  0.49273831  1  1.528084  0  0.314401  0.515863  0  4.105142  0
C  C46  1  0.80711019  0.56749663  0.82603025  1  1.481847  0  0.314816  0.516264  0  4.105326  0
C  C47  1  0.43252189  0.23960925  0.15937264  1  1.470237  0  0.31449  0.516553  0  4.105661  0
C  C48  1  0.28459744  0.73330539  0.41427269  1  1.019615  0  0.208621  0.341642  0  4.026368  0
C  C49  1  0.26667135  0.55123159  0.74760943  1  0.99914  0  0.208325  0.342154  0  4.026902  0
C  C50  1  0.44874506  0.71544978  0.08096269  1  0.996677  0  0.207954  0.341062  0  4.028319  0
C  C51  1  0.73330580  0.28459635  0.58572644  1  1.019651  0  0.20866  0.341679  0  4.026372  0
C  C52  1  0.71544596  0.44874470  0.91903845  1  0.996579  0  0.208014  0.341089  0  4.028079  0
C  C53  1  0.55123357  0.26667526  0.25239012  1  0.999222  0  0.208361  0.342159  0  4.026789  0
C  C54  1  0.29337396  0.68598204  0.34501169  1  -0.030908  0  -0.136473  -0.322172  0  3.950568  0
C  C55  1  0.31401554  0.60732953  0.67833826  1  0.000605  0  -0.136142  -0.32201  0  3.950069  0
C  C56  1  0.39265929  0.70666879  0.01168999  1  0.016193  0  -0.136241  -0.321552  0  3.949339  0
C  C57  1  0.68598427  0.29337586  0.65498645  1  -0.030894  0  -0.136458  -0.322193  0  3.950552  0
C  C58  1  0.70666742  0.39265891  0.98831260  1  0.016386  0  -0.136182  -0.321426  0  3.949265  0
C  C59  1  0.60733393  0.31401956  0.32166182  1  0.000961  0  -0.136162  -0.322048  0  3.950088  0
C  C60  1  0.17725231  0.51262874  0.32865439  1  1.016561  0  0.211859  0.341074  0  4.013674  0
C  C61  1  0.48735880  0.66457592  0.66197596  1  1.006596  0  0.211959  0.341198  0  4.015909  0
C  C62  1  0.33543060  0.82277972  0.99529897  1  1.025018  0  0.212063  0.341211  0  4.01403  0
C  C63  1  0.51262915  0.17725212  0.67134413  1  1.016364  0  0.211849  0.341072  0  4.013688  0
C  C64  1  0.82277834  0.33543146  0.00470217  1  1.024825  0  0.212046  0.341143  0  4.014108  0
C  C65  1  0.66457999  0.48736150  0.33802468  1  1.006798  0  0.211965  0.341188  0  4.015859  0
C  C66  1  0.06909678  0.27477173  0.28625599  1  1.470923  0  0.312059  0.523556  0  4.116505  0
C  C67  1  0.72518964  0.79430053  0.61956711  1  1.486723  0  0.312229  0.52434  0  4.116567  0
C  C68  1  0.20569895  0.93090329  0.95288290  1  1.469665  0  0.311976  0.522769  0  4.11827  0
C  C69  1  0.27477235  0.06909286  0.71374191  1  1.470823  0  0.312014  0.523478  0  4.116635  0
C  C70  1  0.93089948  0.20569978  0.04711627  1  1.469787  0  0.311928  0.522678  0  4.118325  0
C  C71  1  0.79430577  0.72519384  0.38043417  1  1.486607  0  0.312193  0.524063  0  4.117002  0
N  N72  1  0.35450106  0.83957243  0.51043929  1  -0.884484  0  -0.296011  -0.317864  0  3.531367  0
N  N73  1  0.16044060  0.51494968  0.84378729  1  -0.812979  0  -0.296552  -0.318565  0  3.532751  0
N  N74  1  0.48506499  0.64551043  0.17713658  1  -0.822329  0  -0.295637  -0.317225  0  3.5315  0
N  N75  1  0.83957343  0.35450072  0.48956088  1  -0.884863  0  -0.295934  -0.317736  0  3.53144  0
N  N76  1  0.64550886  0.48506202  0.82286357  1  -0.822558  0  -0.295692  -0.317279  0  3.531537  0
N  N77  1  0.51495010  0.16044523  0.15621270  1  -0.812815  0  -0.296482  -0.318469  0  3.532688  0
N  N78  1  0.41347037  0.82302152  0.45050604  1  -0.761518  0  -0.247988  -0.284112  0  3.234458  0
N  N79  1  0.17696997  0.59041929  0.78384046  1  -0.759968  0  -0.247569  -0.283954  0  3.234919  0
N  N80  1  0.40957998  0.58656909  0.11719764  1  -0.746397  0  -0.247987  -0.284343  0  3.235353  0
N  N81  1  0.82302297  0.41346811  0.54949317  1  -0.761488  0  -0.248043  -0.284173  0  3.234621  0
N  N82  1  0.58656551  0.40957729  0.88280246  1  -0.746346  0  -0.248015  -0.284341  0  3.23529  0
N  N83  1  0.59042264  0.17697400  0.21615907  1  -0.760068  0  -0.247588  -0.283957  0  3.234863  0
N  N84  1  0.14416805  0.69224935  0.44703051  1  -1.272351  0  -0.38447  -0.473622  0  3.459852  0
N  N85  1  0.30774098  0.45188262  0.78039651  1  -1.253729  0  -0.384615  -0.474636  0  3.460513  0
N  N86  1  0.54811778  0.85587558  0.11373315  1  -1.265611  0  -0.384587  -0.47361  0  3.4608  0
N  N87  1  0.69224960  0.14416663  0.55296855  1  -1.27241  0  -0.38448  -0.473604  0  3.459885  0
N  N88  1  0.85587269  0.54811615  0.88626808  1  -1.265579  0  -0.384616  -0.473698  0  3.4607  0
N  N89  1  0.45188516  0.30774659  0.21960351  1  -1.253844  0  -0.384658  -0.474661  0  3.460557  0
N  N90  1  0.08901541  0.75332986  0.55542221  1  -1.291754  0  -0.58884  -0.668169  0  3.310248  0
N  N91  1  0.24667565  0.33571488  0.88879540  1  -1.310585  0  -0.588957  -0.668103  0  3.310962  0
N  N92  1  0.66430423  0.91098498  0.22213415  1  -1.309195  0  -0.589262  -0.668721  0  3.311129  0
N  N93  1  0.75333123  0.08901391  0.44457685  1  -1.291765  0  -0.588833  -0.668086  0  3.310271  0
N  N94  1  0.91098233  0.66430180  0.77786763  1  -1.309144  0  -0.589212  -0.668585  0  3.311054  0
N  N95  1  0.33571348  0.24667836  0.11120553  1  -1.310775  0  -0.588982  -0.66812  0  3.311048  0
N  N96  1  0.20988419  0.42084427  0.28745814  1  -1.262315  0  -0.379505  -0.470361  0  3.462077  0
N  N97  1  0.57910165  0.78898044  0.62077176  1  -1.229587  0  -0.379786  -0.470862  0  3.46271  0
N  N98  1  0.21103990  0.79014390  0.95408457  1  -1.239512  0  -0.380001  -0.470016  0  3.462189  0
N  N99  1  0.42084084  0.20988011  0.71254134  1  -1.262017  0  -0.379499  -0.470392  0  3.462132  0
N  N100  1  0.79014156  0.21103965  0.04591602  1  -1.23958  0  -0.379965  -0.46989  0  3.46226  0
N  N101  1  0.78898555  0.57910558  0.37922897  1  -1.229486  0  -0.379838  -0.470771  0  3.46277  0
N  N102  1  0.02705315  0.42840150  0.35058824  1  -0.863831  0  -0.285518  -0.262686  0  3.603846  0
N  N103  1  0.57158980  0.59861971  0.68391033  1  -0.835884  0  -0.285715  -0.262544  0  3.60529  0
N  N104  1  0.40139037  0.97298094  0.01722850  1  -0.867502  0  -0.285464  -0.262845  0  3.604344  0
N  N105  1  0.42840350  0.02705313  0.64941069  1  -0.864024  0  -0.285521  -0.262676  0  3.603851  0
N  N106  1  0.97297995  0.40139302  0.98277272  1  -0.86757  0  -0.28542  -0.262849  0  3.60439  0
N  N107  1  0.59862061  0.57159176  0.31609032  1  -0.83648  0  -0.285727  -0.26253  0  3.605264  0
N  N108  1  0.95524418  0.27434097  0.32441528  1  -0.721889  0  -0.264903  -0.35304  0  3.146373  0
N  N109  1  0.72563501  0.68086805  0.65772409  1  -0.76342  0  -0.264821  -0.353744  0  3.147228  0
N  N110  1  0.31912918  0.04477454  0.99104538  1  -0.74779  0  -0.264835  -0.352658  0  3.147502  0
N  N111  1  0.27434333  0.95524282  0.67558245  1  -0.721537  0  -0.264902  -0.35298  0  3.14637  0
N  N112  1  0.04476861  0.31912838  0.00895498  1  -0.747792  0  -0.264871  -0.352671  0  3.147512  0
N  N113  1  0.68087129  0.72563710  0.34227665  1  -0.762965  0  -0.264809  -0.353662  0  3.147242  0
N  N114  1  0.05144028  0.14370975  0.25225788  1  -1.261252  0  -0.594908  -0.659054  0  3.27914  0
N  N115  1  0.85625590  0.90772131  0.58557169  1  -1.248477  0  -0.595043  -0.658555  0  3.279529  0
N  N116  1  0.09227580  0.94855128  0.91890111  1  -1.2384  0  -0.595095  -0.658927  0  3.278842  0
N  N117  1  0.14370966  0.05143551  0.74774095  1  -1.261391  0  -0.594934  -0.659076  0  3.279218  0
N  N118  1  0.94854716  0.09227262  0.08109803  1  -1.238471  0  -0.595018  -0.658922  0  3.278722  0
N  N119  1  0.90772509  0.85625766  0.41442869  1  -1.248686  0  -0.594973  -0.658514  0  3.279669  0
