# generated using pymatgen
data_CoH14C14(N2Cl)2
_symmetry_space_group_name_H-M   'P 1'
_cell_length_a   7.79409410
_cell_length_b   8.88318066
_cell_length_c   10.99068424
_cell_angle_alpha   90.00000727
_cell_angle_beta   90.00013807
_cell_angle_gamma   100.25603719
_symmetry_Int_Tables_number   1
_chemical_formula_structural   CoH14C14(N2Cl)2
_chemical_formula_sum   'Co2 H28 C28 N8 Cl4'
_cell_volume   748.79623688
_cell_formula_units_Z   2
loop_
 _symmetry_equiv_pos_site_id
 _symmetry_equiv_pos_as_xyz
  1  'x, y, z'
loop_
 _atom_site_type_symbol
 _atom_site_label
 _atom_site_symmetry_multiplicity
 _atom_site_fract_x
 _atom_site_fract_y
 _atom_site_fract_z
 _atom_site_occupancy
 _atom_site_hle17_ddec_charge
 _atom_site_hle17_ddec_spin_density
 _atom_site_hle17_ddec_sum_bond_order
 _atom_site_hle17_magmom
 _atom_site_hse06_10hf_ddec_charge
 _atom_site_hse06_10hf_ddec_spin_density
 _atom_site_hse06_10hf_ddec_sum_bond_order
 _atom_site_hse06_10hf_magmom
 _atom_site_hse06_ddec_charge
 _atom_site_hse06_ddec_spin_density
 _atom_site_hse06_ddec_sum_bond_order
 _atom_site_hse06_magmom
 _atom_site_pbe_cm5_charge
 _atom_site_pbe_ddec_charge
 _atom_site_pbe_ddec_spin_density
 _atom_site_pbe_ddec_sum_bond_order
 _atom_site_pbe_magmom
Co  Co0  1  0.70665814  0.78627833  0.48807217  1  0.743646  2.756473  2.351315  2.452  0.696933  2.783866  2.846626  2.517  0.793788  2.842888  2.759673  2.626  0.542751  0.621088  2.729864  2.914192  2.421
Co  Co1  1  0.29334192  0.21372421  0.98806886  1  0.743517  2.756424  2.351382  2.452  0.696817  2.783823  2.846694  2.517  0.793775  2.842869  2.759727  2.626  0.542761  0.621072  2.729843  2.914255  2.421
H  H2  1  0.31316876  0.54420738  0.37581675  1  0.09908  -6.7e-05  0.949614  0.0  0.107549  2.5e-05  1.013975  0.0  0.110927  -2.8e-05  1.012005  0.0  0.097012  0.105108  8.3e-05  1.015319  0.0
H  H3  1  0.68682938  0.45579395  0.87581050  1  0.099074  -6.6e-05  0.949737  0.0  0.10762  2.5e-05  1.01401  0.0  0.110999  -2.8e-05  1.012038  0.0  0.097032  0.105178  8.4e-05  1.015356  0.0
H  H4  1  0.38180183  0.11915985  0.54088567  1  0.088944  0.000218  0.96504  0.0  0.100636  0.000271  1.026798  0.0  0.103457  0.000169  1.025644  0.0  0.094028  0.09821  0.000381  1.02836  0.0
H  H5  1  0.61818929  0.88083781  0.04087883  1  0.088936  0.000217  0.965218  0.0  0.100614  0.000271  1.026959  0.0  0.103438  0.000169  1.025801  0.0  0.094004  0.098218  0.000381  1.028486  0.0
H  H6  1  0.10285870  0.40066657  0.22932978  1  0.090212  -5.9e-05  0.962468  0.0  0.101765  1.9e-05  1.024378  0.0  0.104562  -2.5e-05  1.023494  0.0  0.095318  0.099787  7.9e-05  1.024902  0.0
H  H7  1  0.89714335  0.59933121  0.72932572  1  0.090237  -5.6e-05  0.96249  0.0  0.101796  1.9e-05  1.024372  0.0  0.104593  -2.5e-05  1.02349  0.0  0.095332  0.099821  7.9e-05  1.024894  0.0
H  H8  1  0.17544348  0.97536337  0.39246803  1  0.095854  -0.000146  0.948727  0.0  0.105015  -0.000122  1.013571  0.0  0.108023  -0.000149  1.012266  0.0  0.098077  0.1028  -8.4e-05  1.014459  0.0
H  H9  1  0.82455950  0.02462995  0.89246197  1  0.095842  -0.00014  0.948667  0.0  0.105004  -0.000122  1.0135  0.0  0.108015  -0.000149  1.012195  0.0  0.098083  0.102785  -8.4e-05  1.014395  0.0
H  H10  1  0.88064311  0.03315585  0.25440257  1  0.092394  -0.000344  0.94519  0.0  0.106443  -0.000179  1.014478  0.0  0.107542  -0.000204  1.014312  0.0  0.108135  0.105409  -0.000131  1.01475  0.0
H  H11  1  0.11935833  0.96683851  0.75440268  1  0.092329  -0.000334  0.945255  0.0  0.106413  -0.000179  1.014501  0.0  0.107514  -0.000205  1.014331  0.0  0.108132  0.105381  -0.000131  1.014775  0.0
H  H12  1  0.96194402  0.17147897  0.14172176  1  0.089804  -0.000208  0.963562  0.0  0.100926  -3e-05  1.03581  0.0  0.10254  -6.8e-05  1.034991  0.0  0.104434  0.099521  1.8e-05  1.036643  0.0
H  H13  1  0.03806799  0.82851874  0.64171808  1  0.08979  -0.000197  0.963498  0.0  0.10091  -2.9e-05  1.035749  0.0  0.102523  -6.8e-05  1.034932  0.0  0.10441  0.099504  1.8e-05  1.036582  0.0
H  H14  1  0.94092339  0.77622141  0.23423830  1  0.101238  4e-06  0.996876  0.001  0.107672  0.000122  1.070441  0.0  0.110595  2e-06  1.067091  0.0  0.111743  0.105268  0.000262  1.073084  0.001
H  H15  1  0.05908486  0.22377522  0.73423824  1  0.101245  3e-06  0.996944  0.001  0.107688  0.000122  1.070489  0.0  0.110611  2e-06  1.06714  0.0  0.111743  0.105285  0.000262  1.073135  0.001
H  H16  1  0.13061277  0.63163945  0.07189831  1  0.128422  0.00017  0.978926  0.001  0.13794  0.000203  1.037451  0.001  0.141652  7.3e-05  1.036303  0.0  0.101791  0.134466  0.000546  1.039784  0.001
H  H17  1  0.86939118  0.36836393  0.57190146  1  0.128438  0.000172  0.978905  0.001  0.137956  0.000203  1.037429  0.001  0.141667  7.3e-05  1.036284  0.0  0.101775  0.134483  0.000546  1.039766  0.001
H  H18  1  0.32668319  0.87456834  0.94714244  1  0.094638  -0.000134  0.972645  0.0  0.104295  5.7e-05  1.037936  0.0  0.105956  6e-06  1.036743  0.0  0.115918  0.103119  0.000109  1.038649  0.0
H  H19  1  0.67331848  0.12543647  0.44714199  1  0.094575  -0.000135  0.97246  0.0  0.104214  5.7e-05  1.037809  0.0  0.105894  6e-06  1.036566  0.0  0.115906  0.103035  0.000109  1.038533  0.0
H  H20  1  0.47605411  0.90113931  0.68844075  1  0.103021  0.000159  0.958408  0.0  0.110508  0.000505  1.0251  0.0  0.113009  0.00033  1.022748  0.0  0.113739  0.10807  0.000663  1.027695  0.0
H  H21  1  0.52394466  0.09886188  0.18843549  1  0.103025  0.000161  0.958435  0.0  0.110525  0.000505  1.025106  0.0  0.113026  0.00033  1.022755  0.0  0.113741  0.108084  0.000663  1.027709  0.0
H  H22  1  0.21754360  0.70632427  0.81205066  1  0.123447  0.000248  0.977996  0.0  0.135998  0.000226  1.032367  0.0  0.138371  0.000158  1.032908  0.0  0.109182  0.134407  0.00027  1.03203  0.0
H  H23  1  0.78245723  0.29367243  0.31204404  1  0.123359  0.000248  0.977995  0.0  0.135935  0.000226  1.03235  0.0  0.138305  0.000158  1.032893  0.0  0.109146  0.134343  0.00027  1.032011  0.0
H  H24  1  0.24613790  0.42234851  0.72681303  1  0.106118  -3.9e-05  0.983731  0.0  0.115657  0.000181  1.051607  0.0  0.118062  7e-05  1.049169  0.0  0.11644  0.11359  0.000305  1.053839  0.0
H  H25  1  0.75386053  0.57765042  0.22681003  1  0.106182  -4e-05  0.983705  0.0  0.115713  0.000182  1.051587  0.0  0.118117  7e-05  1.049149  0.0  0.11645  0.113645  0.000305  1.05382  0.0
H  H26  1  0.54173288  0.34593514  0.61721683  1  0.090562  6e-05  0.946845  0.0  0.104806  0.000175  1.013376  0.0  0.106601  7.6e-05  1.012396  0.0  0.10512  0.103401  0.000272  1.014234  0.0
H  H27  1  0.45827147  0.65406942  0.11721060  1  0.090558  6.3e-05  0.946938  0.0  0.104827  0.000175  1.013437  0.0  0.106624  7.5e-05  1.012449  0.0  0.105092  0.10342  0.000272  1.014302  0.0
H  H28  1  0.61835929  0.47714429  0.49869835  1  0.085047  2.3e-05  0.966332  0.0  0.095631  0.000565  1.04252  0.0  0.096435  0.000397  1.041773  0.0  0.105892  0.095014  0.000791  1.04308  0.0
H  H29  1  0.38163136  0.52285599  0.99869977  1  0.085036  2.4e-05  0.966356  0.0  0.095608  0.000565  1.04256  0.0  0.096413  0.000397  1.041814  0.0  0.105869  0.094989  0.000791  1.043125  0.0
C  C30  1  0.36433863  0.34046773  0.46627794  1  0.064018  -0.000222  3.761714  0.0  0.084857  -1.3e-05  4.002153  0.0  0.082919  -6.6e-05  4.028875  0.0  -0.015971  0.08594  0.000117  3.984442  0.0
C  C31  1  0.63565681  0.65953137  0.96627071  1  0.06431  -0.000246  3.761448  0.0  0.085135  -1.2e-05  4.001888  0.0  0.083201  -6.5e-05  4.028601  0.0  -0.015948  0.086219  0.000117  3.98418  0.0
C  C32  1  0.28277861  0.41954087  0.37991746  1  -0.098146  0.000352  3.731369  0.0  -0.119443  0.000456  3.980808  0.0  -0.121109  0.000297  4.001832  0.0  -0.092263  -0.118461  0.00056  3.967417  0.0
C  C33  1  0.71721547  0.58045932  0.87991128  1  -0.098159  0.000365  3.731427  0.0  -0.119519  0.000455  3.980859  0.0  -0.121186  0.000296  4.00188  0.0  -0.092183  -0.118535  0.00056  3.967464  0.0
C  C34  1  0.32233451  0.18066118  0.47116021  1  -0.119793  0.000364  3.766293  0.001  -0.136355  0.000498  4.010998  0.001  -0.13943  0.000351  4.033542  0.001  -0.095238  -0.134201  0.000726  3.996257  0.001
C  C35  1  0.67766141  0.81934022  0.97115490  1  -0.119938  0.000387  3.766488  0.001  -0.136481  0.000497  4.011197  0.001  -0.139553  0.000351  4.033736  0.001  -0.095212  -0.134351  0.000726  3.996441  0.001
C  C36  1  0.16434467  0.33911738  0.29791609  1  -0.110385  0.000709  3.756147  0.001  -0.13095  0.000838  4.005527  0.001  -0.133716  0.000569  4.027606  0.001  -0.093089  -0.129009  0.000988  3.990917  0.001
C  C37  1  0.83565355  0.66087931  0.79791012  1  -0.110415  0.00069  3.756097  0.001  -0.131028  0.000838  4.005506  0.001  -0.133797  0.00057  4.02759  0.001  -0.093166  -0.129085  0.000989  3.990896  0.001
C  C38  1  0.20500358  0.10010432  0.38851193  1  -0.100236  -0.000215  3.739412  0.0  -0.124582  -0.000207  3.99212  0.0  -0.126899  -0.000324  4.014708  0.0  -0.093661  -0.122597  -3.7e-05  3.976786  0.0
C  C39  1  0.79499449  0.89989015  0.88850500  1  -0.10003  -0.000276  3.739312  0.0  -0.124414  -0.000207  3.99202  0.0  -0.126736  -0.000324  4.014612  0.0  -0.093636  -0.12243  -3.7e-05  3.976699  0.0
C  C40  1  0.12602818  0.17900509  0.30060196  1  0.059214  9.6e-05  3.758382  0.0  0.078743  0.000416  4.005828  0.0  0.076349  0.000306  4.032549  0.0  -0.017576  0.08017  0.000434  3.987779  0.0
C  C41  1  0.87397109  0.82099046  0.80059698  1  0.058984  0.000129  3.758456  0.0  0.078613  0.000417  4.005769  0.0  0.076218  0.000307  4.032491  0.0  -0.017603  0.080033  0.000434  3.987731  0.0
C  C42  1  0.99978612  0.09302518  0.20970209  1  -0.078193  -0.000176  3.665162  0.0  -0.160552  0.000396  3.911682  0.0  -0.158182  0.000273  3.922843  0.0  -0.050719  -0.161779  0.000663  3.904353  0.001
C  C43  1  0.00021435  0.90697145  0.70970017  1  -0.078131  -0.000214  3.665148  0.0  -0.160483  0.000396  3.911639  0.0  -0.158111  0.000274  3.922799  0.0  -0.050708  -0.161707  0.000663  3.904314  0.001
C  C44  1  0.03309645  0.82211917  0.16393345  1  0.023431  0.001149  3.6511  0.002  -0.037689  0.004062  3.905074  0.005  -0.026904  0.003295  3.915517  0.004  0.02926  -0.04452  0.004478  3.898123  0.005
C  C45  1  0.96690327  0.17788086  0.66393675  1  0.023449  0.00116  3.651149  0.002  -0.037631  0.004063  3.905164  0.005  -0.026851  0.003294  3.915621  0.004  0.029283  -0.044465  0.004478  3.898218  0.005
C  C46  1  0.13286704  0.75314223  0.08360641  1  -0.196193  0.002583  3.760889  0.004  -0.208098  0.001437  4.020109  0.002  -0.217249  0.000653  4.037427  0.001  -0.113992  -0.202344  0.001951  4.010138  0.002
C  C47  1  0.86713695  0.24686117  0.58360955  1  -0.196279  0.002575  3.760892  0.004  -0.208182  0.001438  4.02011  0.002  -0.217338  0.000655  4.037435  0.001  -0.113967  -0.202426  0.001951  4.010144  0.002
C  C48  1  0.23088161  0.87446633  0.01862056  1  0.050947  -0.00668  3.727345  -0.003  0.010971  0.002188  4.006441  0.003  0.022719  0.001939  4.021423  0.003  0.01535  0.002379  0.002689  3.997227  0.004
C  C49  1  0.76912495  0.12553815  0.51862078  1  0.051037  -0.006667  3.727177  -0.003  0.011057  0.002188  4.006294  0.003  0.022816  0.001939  4.021274  0.003  0.015348  0.002462  0.002689  3.997071  0.004
C  C50  1  0.43673299  0.77802630  0.68058042  1  0.066196  -0.000362  3.703642  0.002  0.024552  0.004712  3.983837  0.007  0.035802  0.00398  3.998808  0.006  0.020754  0.017414  0.005458  3.973273  0.007
C  C51  1  0.56326656  0.22197260  0.18057706  1  0.066076  -0.000372  3.703709  0.001  0.024425  0.004713  3.983911  0.007  0.035676  0.003981  3.998887  0.006  0.020667  0.017286  0.005459  3.973351  0.007
C  C52  1  0.30704221  0.67904768  0.74378201  1  -0.200556  0.00154  3.776995  0.002  -0.210858  0.001031  4.036887  0.001  -0.220019  0.0001  4.055988  0.0  -0.112507  -0.205121  0.001891  4.024076  0.002
C  C53  1  0.69295652  0.32095241  0.24377615  1  -0.200288  0.00154  3.776887  0.002  -0.2106  0.00103  4.036719  0.001  -0.219764  0.0001  4.055824  0.0  -0.112414  -0.204862  0.001891  4.023902  0.002
C  C54  1  0.31644361  0.53387769  0.70099578  1  0.026876  0.00498  3.649433  0.006  -0.036782  0.00594  3.903374  0.007  -0.026919  0.004643  3.915228  0.006  0.03026  -0.043312  0.007482  3.896243  0.009
C  C55  1  0.68354984  0.46612237  0.20099446  1  0.02663  0.004983  3.649752  0.006  -0.037009  0.005942  3.903701  0.007  -0.027153  0.004645  3.915568  0.006  0.03019  -0.04354  0.007483  3.896569  0.009
C  C56  1  0.50191967  0.42473769  0.55015273  1  -0.069195  0.00028  3.657904  0.001  -0.148437  0.001114  3.899385  0.002  -0.145742  0.000872  3.910399  0.001  -0.048517  -0.149964  0.001418  3.891914  0.002
C  C57  1  0.49807370  0.57526455  0.05014747  1  -0.069329  0.000275  3.657925  0.001  -0.148554  0.001113  3.899339  0.002  -0.14586  0.000872  3.910352  0.001  -0.048532  -0.15009  0.001418  3.891879  0.002
N  N58  1  0.52013407  0.69789618  0.60288105  1  -0.27965  0.040185  3.256377  0.061  -0.262553  0.030306  3.568269  0.037  -0.292018  0.02365  3.586139  0.028  -0.264984  -0.240665  0.035855  3.555844  0.045
N  N59  1  0.47986439  0.30210495  0.10287664  1  -0.279565  0.040192  3.256405  0.061  -0.262461  0.030308  3.568301  0.037  -0.291955  0.02365  3.586202  0.028  -0.264902  -0.240594  0.035857  3.5559  0.045
N  N60  1  0.44407153  0.54862326  0.61659532  1  0.080452  -0.002136  3.546613  -0.002  0.205121  -0.000116  3.720434  0.0  0.198758  -0.000692  3.744821  0.0  -0.138572  0.208938  0.000412  3.703791  0.001
N  N61  1  0.55592594  0.45137903  0.11659196  1  0.080551  -0.002131  3.546824  -0.002  0.205159  -0.000116  3.720699  0.0  0.198799  -0.000693  3.745086  0.0  -0.138546  0.208981  0.000412  3.704055  0.001
N  N62  1  0.19329097  0.00944378  0.05630512  1  -0.277652  0.040867  3.240692  0.065  -0.259579  0.030166  3.547578  0.04  -0.288401  0.02387  3.564528  0.031  -0.266803  -0.238965  0.035111  3.538454  0.046
N  N63  1  0.80671060  0.99056074  0.55630368  1  -0.277762  0.040865  3.240812  0.065  -0.259594  0.030168  3.547691  0.04  -0.288386  0.023871  3.56459  0.031  -0.266801  -0.238955  0.035112  3.538532  0.046
N  N64  1  0.07146449  0.97480780  0.14526313  1  0.08101  -0.000976  3.548184  -0.001  0.206409  0.000152  3.720812  0.001  0.199872  -0.000187  3.745426  0.0  -0.139451  0.210073  0.000368  3.704383  0.001
N  N65  1  0.92853797  0.02519335  0.64526362  1  0.081119  -0.000978  3.548033  -0.001  0.206342  0.000152  3.720831  0.001  0.199802  -0.000189  3.745447  0.0  -0.139476  0.210004  0.000368  3.704398  0.001
Cl  Cl66  1  0.58465538  0.83407867  0.31234142  1  -0.532867  0.081506  0.944772  0.117  -0.510421  0.066118  1.217995  0.084  -0.548482  0.047051  1.192517  0.059  -0.291695  -0.477607  0.084312  1.235803  0.107
Cl  Cl67  1  0.41534815  0.16592489  0.81234105  1  -0.532837  0.081512  0.944816  0.118  -0.510402  0.06612  1.218048  0.084  -0.548475  0.047055  1.192562  0.059  -0.29169  -0.477613  0.084315  1.235856  0.107
Cl  Cl68  1  0.91845075  0.65172196  0.45852368  1  -0.521658  0.079831  0.974041  0.115  -0.49609  0.064638  1.24535  0.082  -0.53287  0.04573  1.219816  0.057  -0.280172  -0.465604  0.081702  1.264423  0.103
Cl  Cl69  1  0.08154698  0.34827599  0.95852094  1  -0.52161  0.079836  0.974072  0.115  -0.496054  0.064641  1.245378  0.082  -0.532866  0.045732  1.219854  0.057  -0.280174  -0.465596  0.081706  1.264461  0.103
