# generated using pymatgen
data_AlH7C12NO5F
_symmetry_space_group_name_H-M   'P 1'
_cell_length_a   6.64964428
_cell_length_b   11.15251790
_cell_length_c   17.84408663
_cell_angle_alpha   83.73899037
_cell_angle_beta   78.78647687
_cell_angle_gamma   72.76865331
_symmetry_Int_Tables_number   1
_chemical_formula_structural   AlH7C12NO5F
_chemical_formula_sum   'Al2 H14 C24 N2 O10 F2'
_cell_volume   1237.92673128
_cell_formula_units_Z   2
loop_
 _symmetry_equiv_pos_site_id
 _symmetry_equiv_pos_as_xyz
  1  'x, y, z'
loop_
 _atom_site_type_symbol
 _atom_site_label
 _atom_site_symmetry_multiplicity
 _atom_site_fract_x
 _atom_site_fract_y
 _atom_site_fract_z
 _atom_site_occupancy
 _atom_site_pbe_bader_charge
 _atom_site_pbe_bader_spin_density
 _atom_site_pbe_cm5_charge
 _atom_site_pbe_ddec_charge
 _atom_site_pbe_ddec_spin_density
 _atom_site_pbe_ddec_sum_bond_order
 _atom_site_pbe_magmom
Al  Al0  1  0.49376418  0.51298174  0.50019457  1  2.502557  0  0.399877  1.636829  0  2.577118  0
Al  Al1  1  0.99615135  0.51020372  0.49928209  1  2.502384  0  0.392365  1.636554  0  2.600187  0
H  H2  1  0.19540697  0.65922639  0.45063137  1  0.610355  0  0.352058  0.431829  0  0.856056  0
H  H3  1  0.79797494  0.35894909  0.53890072  1  0.610581  0  0.347868  0.423441  0  0.870878  0
H  H4  1  0.75810634  0.13572365  0.46332557  1  0.128835  0  0.120989  0.149001  0  0.984232  0
H  H5  1  0.23641093  0.88622416  0.53776197  1  0.139958  0  0.121711  0.150241  0  0.98261  0
H  H6  1  0.53604552  0.56160256  0.26673870  1  0.081968  0  0.105949  0.10688  0  1.013567  0
H  H7  1  0.60070384  0.55583306  0.12420215  1  0.029301  0  0.100682  0.109536  0  1.010313  0
H  H8  1  0.27952295  0.42844936  0.12580782  1  0.058647  0  0.104753  0.118237  0  0.999598  0
H  H9  1  0.78546303  0.43507419  0.87882716  1  0.052953  0  0.104894  0.117835  0  0.998967  0
H  H10  1  0.39021015  0.57810513  0.72852958  1  0.093306  0  0.106256  0.108719  0  1.011569  0
H  H11  1  0.32978161  0.57447543  0.87131607  1  0.066205  0  0.099718  0.108638  0  1.007219  0
H  H12  1  0.23114471  0.45044123  0.32891652  1  0.511862  0  0.309072  0.31908  0  0.970538  0
H  H13  1  0.40224879  0.40873244  0.24305137  1  0.448129  0  0.305213  0.299359  0  0.961182  0
H  H14  1  0.81867493  0.44665245  0.67384725  1  0.503098  0  0.308342  0.320946  0  0.978519  0
H  H15  1  0.67954505  0.41476240  0.76420199  1  0.442133  0  0.307722  0.301714  0  0.95509  0
C  C16  1  0.81358376  0.50859077  0.36059259  1  1.516527  0  0.257923  0.649132  0  4.098429  0
C  C17  1  0.63759494  0.73736863  0.50556885  1  1.629069  0  0.274502  0.663761  0  4.082949  0
C  C18  1  0.17924352  0.50899263  0.63861903  1  1.4712  0  0.256057  0.644449  0  4.101538  0
C  C19  1  0.35509989  0.28468568  0.49421539  1  1.548954  0  0.272001  0.661833  0  4.087515  0
C  C20  1  0.56959015  0.87773957  0.50326223  1  0.029343  0  -0.009294  -0.114785  0  3.957699  0
C  C21  1  0.42477356  0.14434098  0.49768868  1  0.022035  0  -0.009734  -0.115544  0  3.962813  0
C  C22  1  0.71217917  0.95148087  0.48261841  1  0.418845  0  0.107723  0.268622  0  4.033388  0
C  C23  1  0.28222122  0.07060298  0.51866147  1  0.508972  0  0.108543  0.26977  0  4.032394  0
C  C24  1  0.64294133  0.08161991  0.47983449  1  0.111017  0  -0.083253  -0.197114  0  3.972064  0
C  C25  1  0.35143617  0.94050152  0.52141407  1  0.02517  0  -0.082707  -0.196442  0  3.966889  0
C  C26  1  0.86683572  0.49928869  0.27690924  1  0.02002  0  -0.035812  -0.180749  0  3.943194  0
C  C27  1  0.69815163  0.53078592  0.23488642  1  -0.048389  0  -0.08981  -0.078092  0  4.062875  0
C  C28  1  0.73285447  0.52742869  0.15608560  1  0.009858  0  -0.111664  -0.190441  0  4.009275  0
C  C29  1  0.94615354  0.49068525  0.11607066  1  0.107552  0  0.000954  0.169335  0  4.151242  0
C  C30  1  0.11593903  0.45724196  0.15690099  1  0.006626  0  -0.09926  -0.257603  0  3.887446  0
C  C31  1  0.08218552  0.46129371  0.23731663  1  0.441529  0  0.114043  0.318246  0  4.076815  0
C  C32  1  0.98663459  0.49189621  0.03505660  1  -0.557554  0  -0.042195  -0.101391  0  4.099645  0
C  C33  1  0.01794829  0.49633754  0.96522483  1  0.223281  0  -0.043041  -0.103025  0  4.099809  0
C  C34  1  0.05435351  0.50170215  0.88414805  1  0.075191  0  0.000623  0.169699  0  4.152433  0
C  C35  1  0.91842312  0.46660615  0.84572668  1  0.014204  0  -0.099453  -0.257297  0  3.88843  0
C  C36  1  0.94817277  0.46967664  0.76493963  1  0.401046  0  0.115961  0.319814  0  4.074964  0
C  C37  1  0.12658199  0.50856447  0.72257001  1  0.05706  0  -0.036971  -0.186068  0  3.940411  0
C  C38  1  0.25938482  0.54581921  0.76256457  1  -0.02978  0  -0.090033  -0.0769  0  4.058417  0
C  C39  1  0.22733614  0.54349081  0.84149535  1  -0.058435  0  -0.110763  -0.189487  0  4.006301  0
N  N40  1  0.25350872  0.42455240  0.27437763  1  -1.282589  0  -0.589324  -0.60881  0  3.336253  0
N  N41  1  0.81071285  0.43291322  0.73146977  1  -1.264402  0  -0.584242  -0.602284  0  3.351544  0
O  O42  1  0.62724375  0.50454851  0.39400621  1  -1.271679  0  -0.245814  -0.602666  0  2.340852  0
O  O43  1  0.82886376  0.68100621  0.51355668  1  -1.251005  0  -0.230538  -0.586741  0  2.350474  0
O  O44  1  0.04194216  0.49067147  0.60250372  1  -1.272493  0  -0.24344  -0.613647  0  2.393207  0
O  O45  1  0.49320933  0.33911662  0.50136820  1  -1.248311  0  -0.228345  -0.580243  0  2.324881  0
O  O46  1  0.35924867  0.52465646  0.60562935  1  -1.267863  0  -0.246194  -0.602441  0  2.336487  0
O  O47  1  0.16472716  0.33903252  0.48430438  1  -1.255708  0  -0.232817  -0.590707  0  2.364934  0
O  O48  1  0.95730776  0.52260845  0.39508793  1  -1.273116  0  -0.244615  -0.614376  0  2.376765  0
O  O49  1  0.49627536  0.68499887  0.49923758  1  -1.247546  0  -0.226266  -0.578446  0  2.333437  0
O  O50  1  0.23287257  0.57041163  0.46617530  1  -1.410767  0  -0.450014  -0.99259  0  2.198521  0
O  O51  1  0.75801116  0.45013302  0.53273737  1  -1.41158  0  -0.44836  -0.982881  0  2.1807  0
F  F52  1  0.92565029  0.89683285  0.46250789  1  -0.634663  0  -0.090451  -0.136136  0  1.359504  0
F  F53  1  0.06881241  0.12513244  0.53905959  1  -0.633891  0  -0.091389  -0.136597  0  1.361142  0
