# generated using pymatgen
data_ZnH26C22(NO2)4
_symmetry_space_group_name_H-M   'P 1'
_cell_length_a   5.38317226
_cell_length_b   7.55183466
_cell_length_c   13.56507119
_cell_angle_alpha   97.74898612
_cell_angle_beta   101.47167721
_cell_angle_gamma   90.00579685
_symmetry_Int_Tables_number   1
_chemical_formula_structural   ZnH26C22(NO2)4
_chemical_formula_sum   'Zn1 H26 C22 N4 O8'
_cell_volume   535.30114796
_cell_formula_units_Z   1
loop_
 _symmetry_equiv_pos_site_id
 _symmetry_equiv_pos_as_xyz
  1  'x, y, z'
loop_
 _atom_site_type_symbol
 _atom_site_label
 _atom_site_symmetry_multiplicity
 _atom_site_fract_x
 _atom_site_fract_y
 _atom_site_fract_z
 _atom_site_occupancy
 _atom_site_hle17_bader_spin_density
 _atom_site_hle17_ddec_charge
 _atom_site_hle17_ddec_spin_density
 _atom_site_hle17_ddec_sum_bond_order
 _atom_site_hle17_magmom
 _atom_site_hse06_10hf_bader_spin_density
 _atom_site_hse06_10hf_ddec_charge
 _atom_site_hse06_10hf_ddec_spin_density
 _atom_site_hse06_10hf_ddec_sum_bond_order
 _atom_site_hse06_10hf_magmom
 _atom_site_hse06_bader_spin_density
 _atom_site_hse06_ddec_charge
 _atom_site_hse06_ddec_spin_density
 _atom_site_hse06_ddec_sum_bond_order
 _atom_site_hse06_magmom
 _atom_site_pbe_bader_spin_density
 _atom_site_pbe_cm5_charge
 _atom_site_pbe_ddec_charge
 _atom_site_pbe_ddec_spin_density
 _atom_site_pbe_ddec_sum_bond_order
 _atom_site_pbe_magmom
Zn  Zn0  1  0.65926859  0.50009251  0.99995251  1  0  1.034094  0  1.689128  0  0  0.846375  0  2.139256  0  0  0.894261  0  2.086669  0  0  0.678732  0.812948  0  2.175292  0
H  H1  1  0.89569164  0.83155850  0.27083053  1  0  0.382318  0  0.908877  0  0  0.354847  0  0.986623  0  0  0.36631  0  0.973073  0  0  0.298902  0.346793  0  0.996041  0
H  H2  1  0.62475536  0.16849609  0.72931730  1  0  0.381595  0  0.910488  0  0  0.354593  0  0.987591  0  0  0.366063  0  0.974002  0  0  0.298402  0.346513  0  0.997091  0
H  H3  1  0.20462358  0.43261544  0.90098957  1  0  0.309245  0  0.882557  0  0  0.296269  0  0.9431  0  0  0.302887  0  0.938356  0  0  0.298456  0.291487  0  0.946676  0
H  H4  1  0.30385850  0.56722971  0.09902082  1  0  0.309163  0  0.884128  0  0  0.296375  0  0.943847  0  0  0.303011  0  0.939053  0  0  0.298939  0.29162  0  0.947366  0
H  H5  1  0.39373949  0.35757449  0.82453399  1  0  0.30271  0  0.908606  0  0  0.29034  0  0.965545  0  0  0.297041  0  0.960851  0  0  0.295897  0.285534  0  0.968958  0
H  H6  1  0.56942692  0.64247239  0.17548000  1  0  0.302074  0  0.908988  0  0  0.289589  0  0.965825  0  0  0.296269  0  0.961191  0  0  0.295634  0.28479  0  0.969241  0
H  H7  1  0.22400022  0.84853771  0.84339571  1  0  0.305686  0  0.950181  0  0  0.284683  0  1.020887  0  0  0.293241  0  1.014005  0  0  0.301618  0.278618  0  1.025821  0
H  H8  1  0.38025901  0.15121010  0.15657318  1  0  0.303893  0  0.953961  0  0  0.283144  0  1.024325  0  0  0.291732  0  1.017407  0  0  0.300827  0.27706  0  1.029284  0
H  H9  1  0.29553536  0.17290768  0.98975941  1  0  0.095826  0  0.953366  0  0  0.106382  0  1.022343  0  0  0.108462  0  1.021841  0  0  0.112634  0.104909  0  1.022754  0
H  H10  1  0.30516002  0.82695366  0.01028466  1  0  0.095231  0  0.953485  0  0  0.10568  0  1.023025  0  0  0.107746  0  1.022482  0  0  0.111986  0.104174  0  1.023477  0
H  H11  1  0.47543506  0.09296610  0.89758936  1  0  0.09565  0  0.922094  0  0  0.110016  0  0.981748  0  0  0.111565  0  0.981571  0  0  0.115367  0.108829  0  0.982085  0
H  H12  1  0.57752801  0.90715813  0.10239723  1  0  0.094586  0  0.92282  0  0  0.109664  0  0.982076  0  0  0.111253  0  0.981802  0  0  0.115353  0.108428  0  0.982453  0
H  H13  1  0.67949467  0.89229630  0.75174233  1  0  0.071831  0  0.932765  0  0  0.079951  0  0.998419  0  0  0.082317  0  0.996518  0  0  0.118047  0.078112  0  1.000055  0
H  H14  1  0.92775895  0.10773111  0.24835063  1  0  0.07161  0  0.934598  0  0  0.079293  0  0.999703  0  0  0.081701  0  0.997719  0  0  0.116963  0.077452  0  1.001351  0
H  H15  1  0.47178173  0.58748826  0.54992135  1  0  0.085236  0  0.987551  0  0  0.094879  0  1.053329  0  0  0.096359  0  1.054801  0  0  0.095291  0.09382  0  1.052326  0
H  H16  1  0.92253724  0.41299339  0.44989241  1  0  0.085206  0  0.988135  0  0  0.094773  0  1.053963  0  0  0.096258  0  1.055387  0  0  0.095082  0.093692  0  1.053035  0
H  H17  1  0.74760616  0.54293911  0.69996920  1  0  0.090851  0  0.928669  0  0  0.107338  0  0.98904  0  0  0.108744  0  0.988395  0  0  0.099099  0.10624  0  0.989635  0
H  H18  1  0.04811847  0.45715261  0.29989069  1  0  0.09088  0  0.929701  0  0  0.107282  0  0.990255  0  0  0.108651  0  0.989663  0  0  0.099528  0.106205  0  0.990814  0
H  H19  1  0.07124025  0.60832936  0.72824391  1  0  0.09467  0  0.931556  0  0  0.110424  0  0.993849  0  0  0.112314  0  0.992641  0  0  0.100355  0.109044  0  0.994778  0
H  H20  1  0.34330906  0.39149661  0.27165074  1  0  0.094291  0  0.932778  0  0  0.109849  0  0.995227  0  0  0.111656  0  0.994109  0  0  0.099908  0.108529  0  0.996068  0
H  H21  1  0.41254260  0.66094177  0.37427363  1  0  0.105204  0  0.965201  0  0  0.116647  0  1.026746  0  0  0.11954  0  1.025832  0  0  0.101292  0.114564  0  1.027546  0
H  H22  1  0.03861188  0.33963384  0.62552612  1  0  0.106218  0  0.964496  0  0  0.117676  0  1.025897  0  0  0.120557  0  1.025016  0  0  0.102326  0.115612  0  1.026666  0
H  H23  1  0.15403076  0.91387016  0.44422701  1  0  0.104637  0  0.982527  0  0  0.113144  0  1.048153  0  0  0.115227  0  1.04952  0  0  0.097818  0.111612  0  1.047372  0
H  H24  1  0.70984040  0.08605620  0.55594458  1  0  0.103678  0  0.984614  0  0  0.112126  0  1.050383  0  0  0.114207  0  1.051768  0  0  0.097421  0.1106  0  1.049599  0
H  H25  1  0.21230276  0.84469125  0.61990048  1  0  0.093453  0  0.953156  0  0  0.103751  0  1.015795  0  0  0.106726  0  1.014164  0  0  0.09734  0.101597  0  1.017046  0
H  H26  1  0.59273597  0.15506629  0.38022443  1  0  0.092783  0  0.951353  0  0  0.103256  0  1.014039  0  0  0.106213  0  1.012377  0  0  0.095996  0.101114  0  1.0153  0
C  C27  1  0.72747839  0.71913138  0.86562356  1  0  0.632389  0  3.849551  0  0  0.583601  0  4.148228  0  0  0.615826  0  4.142479  0  0  0.209671  0.561755  0  4.151335  0
C  C28  1  0.86135406  0.28077406  0.13433567  1  0  0.633831  0  3.847188  0  0  0.584196  0  4.146178  0  0  0.616409  0  4.140415  0  0  0.210021  0.562356  0  4.149293  0
C  C29  1  0.06723070  0.09489009  0.84442159  1  0  0.574883  0  3.789782  0  0  0.52703  0  4.088233  0  0  0.556531  0  4.087183  0  0  0.244044  0.507091  0  4.088387  0
C  C30  1  0.22278388  0.90488450  0.15569424  1  0  0.573975  0  3.789654  0  0  0.526567  0  4.087854  0  0  0.555973  0  4.086936  0  0  0.242586  0.506645  0  4.087941  0
C  C31  1  0.84714947  0.70896801  0.59803798  1  0  0.060172  0  3.773572  0  0  0.07847  0  4.016221  0  0  0.07672  0  4.040932  0  0  -0.029456  0.079559  0  3.999386  0
C  C32  1  0.24960967  0.29107647  0.40191128  1  0  0.060696  0  3.775645  0  0  0.079639  0  4.017281  0  0  0.077889  0  4.041971  0  0  -0.028386  0.080703  0  4.000475  0
C  C33  1  0.31390885  0.17481512  0.91077062  1  0  -0.070784  0  3.665664  0  0  -0.129564  0  3.92747  0  0  -0.129686  0  3.935311  0  0  -0.073076  -0.129585  0  3.922249  0
C  C34  1  0.40291172  0.82512957  0.08927076  1  0  -0.067856  0  3.664326  0  0  -0.128215  0  3.927436  0  0  -0.128216  0  3.935223  0  0  -0.071344  -0.128182  0  3.922132  0
C  C35  1  0.82863715  0.80681804  0.78511570  1  0  0.057739  0  3.609851  0  0  0.034863  0  3.854036  0  0  0.03503  0  3.865629  0  0  0.015181  0.034635  0  3.846408  0
C  C36  1  0.04337348  0.19310581  0.21487200  1  0  0.056332  0  3.609621  0  0  0.036027  0  3.850002  0  0  0.03629  0  3.86133  0  0  0.016128  0.035751  0  3.842458  0
C  C37  1  0.78141870  0.78617481  0.39718795  1  0  0.318336  0  3.844663  0  0  0.311446  0  4.103642  0  0  0.321993  0  4.119428  0  0  0.071583  0.304145  0  4.092883  0
C  C38  1  0.38438790  0.21398985  0.60283322  1  0  0.318774  0  3.842839  0  0  0.311205  0  4.102675  0  0  0.32176  0  4.118418  0  0  0.070614  0.303894  0  4.091934  0
C  C39  1  0.62179427  0.66041681  0.52764814  1  0  -0.103809  0  3.776245  0  0  -0.12161  0  4.021304  0  0  -0.122398  0  4.043497  0  0  -0.094882  -0.120901  0  4.006194  0
C  C40  1  0.09457371  0.33977063  0.47218740  1  0  -0.104625  0  3.77778  0  0  -0.122778  0  4.023001  0  0  -0.123537  0  4.045178  0  0  -0.096375  -0.12208  0  4.007913  0
C  C41  1  0.87910048  0.65583536  0.70277384  1  0  -0.183058  0  3.668859  0  0  -0.232256  0  3.921674  0  0  -0.232591  0  3.93209  0  0  -0.153018  -0.231817  0  3.914515  0
C  C42  1  0.17664727  0.34412853  0.29715116  1  0  -0.182357  0  3.671542  0  0  -0.232257  0  3.924027  0  0  -0.232548  0  3.93451  0  0  -0.152537  -0.23179  0  3.916714  0
C  C43  1  0.58787860  0.69889439  0.42859378  1  0  -0.189938  0  3.762775  0  0  -0.210016  0  4.01453  0  0  -0.215238  0  4.034121  0  0  -0.110122  -0.206528  0  4.001359  0
C  C44  1  0.15959451  0.30141838  0.57127531  1  0  -0.190883  0  3.761081  0  0  -0.21055  0  4.012873  0  0  -0.215773  0  4.032453  0  0  -0.110459  -0.207075  0  3.999709  0
C  C45  1  0.00504675  0.84095920  0.46711979  1  0  -0.209865  0  3.764781  0  0  -0.22624  0  4.012601  0  0  -0.232312  0  4.034484  0  0  -0.111489  -0.222143  0  3.997852  0
C  C46  1  0.53800756  0.15900093  0.53296029  1  0  -0.207584  0  3.765907  0  0  -0.223958  0  4.013964  0  0  -0.230003  0  4.035806  0  0  -0.109533  -0.21989  0  3.999242  0
C  C47  1  0.03606952  0.80222582  0.56661715  1  0  -0.090762  0  3.746079  0  0  -0.109666  0  3.995418  0  0  -0.109622  0  4.015118  0  0  -0.093615  -0.109499  0  3.981946  0
C  C48  1  0.46981322  0.19771817  0.43344063  1  0  -0.089775  0  3.744649  0  0  -0.10893  0  3.993411  0  0  -0.108904  0  4.013202  0  0  -0.092017  -0.108758  0  3.979915  0
N  N49  1  0.36537305  0.36013384  0.89750448  1  0  -0.609341  0  3.141124  0  0  -0.551553  0  3.405607  0  0  -0.570118  0  3.399442  0  0  -0.621858  -0.538629  0  3.409845  0
N  N50  1  0.46796104  0.63988346  0.10250303  1  0  -0.609037  0  3.142645  0  0  -0.550522  0  3.407418  0  0  -0.569112  0  3.40124  0  0  -0.621861  -0.537634  0  3.411608  0
N  N51  1  0.05639620  0.91573545  0.82787145  1  0  -0.446617  0  3.322777  0  0  -0.393276  0  3.573917  0  0  -0.415286  0  3.582527  0  0  -0.418168  -0.37822  0  3.567741  0
N  N52  1  0.22817193  0.08404245  0.17211559  1  0  -0.445041  0  3.323284  0  0  -0.392339  0  3.57286  0  0  -0.414394  0  3.581545  0  0  -0.417371  -0.377291  0  3.566691  0
O  O53  1  0.88262819  0.63663158  0.92776179  1  0  -0.624451  0  1.98808  0  0  -0.545456  0  2.23956  0  0  -0.573309  0  2.226416  0  0  -0.319295  -0.526071  0  2.247873  0
O  O54  1  0.95435053  0.36311553  0.07216670  1  0  -0.624614  0  1.986342  0  0  -0.545523  0  2.237874  0  0  -0.573529  0  2.22496  0  0  -0.319528  -0.526186  0  2.246276  0
O  O55  1  0.49257801  0.72114164  0.86383342  1  0  -0.630805  0  2.007703  0  0  -0.575952  0  2.24399  0  0  -0.600882  0  2.235782  0  0  -0.315995  -0.558511  0  2.249011  0
O  O56  1  0.62832661  0.27889146  0.13620863  1  0  -0.630859  0  2.008163  0  0  -0.576157  0  2.244964  0  0  -0.601089  0  2.236784  0  0  -0.316133  -0.558699  0  2.249953  0
O  O57  1  0.88901485  0.19479821  0.81576000  1  0  -0.580052  0  1.968448  0  0  -0.52798  0  2.193802  0  0  -0.549986  0  2.185397  0  0  -0.303852  -0.512813  0  2.199254  0
O  O58  1  0.07373145  0.80480015  0.18451833  1  0  -0.579568  0  1.967532  0  0  -0.527646  0  2.193082  0  0  -0.549668  0  2.184759  0  0  -0.303447  -0.51247  0  2.19847  0
O  O59  1  0.73767769  0.81723988  0.29810000  1  0  -0.55875  0  2.161058  0  0  -0.504233  0  2.383039  0  0  -0.522968  0  2.371874  0  0  -0.367521  -0.490636  0  2.390126  0
O  O60  1  0.43952044  0.18299917  0.70193459  1  0  -0.559316  0  2.162852  0  0  -0.504713  0  2.383865  0  0  -0.523566  0  2.372878  0  0  -0.367699  -0.491021  0  2.390856  0
