# generated using pymatgen
data_CdH5C7N3
_symmetry_space_group_name_H-M   'P 1'
_cell_length_a   8.57518263
_cell_length_b   8.57516920
_cell_length_c   14.63812473
_cell_angle_alpha   90.00064906
_cell_angle_beta   90.00091331
_cell_angle_gamma   113.81417186
_symmetry_Int_Tables_number   1
_chemical_formula_structural   CdH5C7N3
_chemical_formula_sum   'Cd4 H20 C28 N12'
_cell_volume   984.75019625
_cell_formula_units_Z   4
loop_
 _symmetry_equiv_pos_site_id
 _symmetry_equiv_pos_as_xyz
  1  'x, y, z'
loop_
 _atom_site_type_symbol
 _atom_site_label
 _atom_site_symmetry_multiplicity
 _atom_site_fract_x
 _atom_site_fract_y
 _atom_site_fract_z
 _atom_site_occupancy
 _atom_site_hle17_bader_spin_density
 _atom_site_hle17_ddec_charge
 _atom_site_hle17_ddec_spin_density
 _atom_site_hle17_ddec_sum_bond_order
 _atom_site_hle17_magmom
 _atom_site_hse06_10hf_bader_spin_density
 _atom_site_hse06_10hf_ddec_charge
 _atom_site_hse06_10hf_ddec_spin_density
 _atom_site_hse06_10hf_ddec_sum_bond_order
 _atom_site_hse06_10hf_magmom
 _atom_site_hse06_bader_spin_density
 _atom_site_hse06_ddec_charge
 _atom_site_hse06_ddec_spin_density
 _atom_site_hse06_ddec_sum_bond_order
 _atom_site_hse06_magmom
 _atom_site_pbe_bader_spin_density
 _atom_site_pbe_cm5_charge
 _atom_site_pbe_ddec_charge
 _atom_site_pbe_ddec_spin_density
 _atom_site_pbe_ddec_sum_bond_order
 _atom_site_pbe_magmom
Cd  Cd0  1  0.50000007  0.99999930  0.99999783  1  0  1.06776  0  1.970133  0  0  0.864716  0  2.452493  0  0  0.913899  0  2.407952  0  0  0.822076  0.83039  0  2.482653  0
Cd  Cd1  1  0.00000384  0.50000082  0.49999877  1  0  1.067753  0  1.970207  0  0  0.864689  0  2.452564  0  0  0.913871  0  2.408025  0  0  0.822045  0.830367  0  2.482726  0
Cd  Cd2  1  0.50000757  0.49999791  0.75000034  1  0  0.61513  0  2.522942  0  0  0.436285  0  3.028839  0  0  0.46461  0  2.989626  0  0  0.520511  0.41706  0  3.055363  0
Cd  Cd3  1  0.49999306  0.49999906  0.24999914  1  0  0.615094  0  2.523086  0  0  0.436268  0  3.02896  0  0  0.464595  0  2.989744  0  0  0.520479  0.41705  0  3.055483  0
H  H4  1  0.19230120  0.82567660  0.85866623  1  0  0.078064  0  0.928642  0  0  0.088435  0  0.987205  0  0  0.090542  0  0.985653  0  0  0.115314  0.086868  0  0.988366  0
H  H5  1  0.17432089  0.80769981  0.35866489  1  0  0.078158  0  0.928772  0  0  0.088543  0  0.987309  0  0  0.090641  0  0.985769  0  0  0.115359  0.086973  0  0.988471  0
H  H6  1  0.82568079  0.19230354  0.35866451  1  0  0.078064  0  0.928595  0  0  0.088431  0  0.987169  0  0  0.090538  0  0.985619  0  0  0.115305  0.086861  0  0.988329  0
H  H7  1  0.80770485  0.17432694  0.85866079  1  0  0.078149  0  0.928816  0  0  0.088526  0  0.987353  0  0  0.090628  0  0.985811  0  0  0.115368  0.086956  0  0.988512  0
H  H8  1  0.80769812  0.17432291  0.14133120  1  0  0.078014  0  0.928631  0  0  0.088393  0  0.987195  0  0  0.090492  0  0.985653  0  0  0.115295  0.086825  0  0.988356  0
H  H9  1  0.82567750  0.19230608  0.64133596  1  0  0.078167  0  0.92881  0  0  0.088524  0  0.987364  0  0  0.090643  0  0.985804  0  0  0.115388  0.086954  0  0.988522  0
H  H10  1  0.17432175  0.80770108  0.64133566  1  0  0.078172  0  0.928738  0  0  0.088549  0  0.987277  0  0  0.090648  0  0.985737  0  0  0.115344  0.08698  0  0.988439  0
H  H11  1  0.19229601  0.82567640  0.14133801  1  0  0.078159  0  0.928781  0  0  0.088535  0  0.98732  0  0  0.090636  0  0.985777  0  0  0.115343  0.086966  0  0.988479  0
H  H12  1  0.87457905  0.67180540  0.85219130  1  0  0.094951  0  0.963984  0  0  0.104338  0  1.026229  0  0  0.106596  0  1.026284  0  0  0.101915  0.102659  0  1.026395  0
H  H13  1  0.32817962  0.12542471  0.35219392  1  0  0.095009  0  0.963824  0  0  0.104244  0  1.026232  0  0  0.106473  0  1.026317  0  0  0.101871  0.102564  0  1.026398  0
H  H14  1  0.67181959  0.87457584  0.35219119  1  0  0.094961  0  0.963828  0  0  0.104236  0  1.026186  0  0  0.1065  0  1.026234  0  0  0.101896  0.10256  0  1.026347  0
H  H15  1  0.12542874  0.32818263  0.85218802  1  0  0.09495  0  0.963829  0  0  0.104259  0  1.026153  0  0  0.106504  0  1.026221  0  0  0.101898  0.102583  0  1.026316  0
H  H16  1  0.12542106  0.32819030  0.14780681  1  0  0.095032  0  0.963828  0  0  0.104356  0  1.026135  0  0  0.106595  0  1.02621  0  0  0.101902  0.102674  0  1.026302  0
H  H17  1  0.67181709  0.87457990  0.64781171  1  0  0.094957  0  0.963728  0  0  0.104226  0  1.0261  0  0  0.106473  0  1.026165  0  0  0.1019  0.102547  0  1.026264  0
H  H18  1  0.32818622  0.12542241  0.64781376  1  0  0.094956  0  0.963975  0  0  0.104303  0  1.026266  0  0  0.106534  0  1.026351  0  0  0.101899  0.102622  0  1.026432  0
H  H19  1  0.87457320  0.67181180  0.14780736  1  0  0.09504  0  0.963811  0  0  0.104351  0  1.026129  0  0  0.106606  0  1.026186  0  0  0.101911  0.102671  0  1.026296  0
H  H20  1  0.71057099  0.59432622  0.99999746  1  0  0.095108  0  0.931834  0  0  0.10746  0  0.988652  0  0  0.109113  0  0.9883  0  0  0.107982  0.106229  0  0.988919  0
H  H21  1  0.40565992  0.28942272  0.50000611  1  0  0.09505  0  0.931913  0  0  0.107396  0  0.988736  0  0  0.109049  0  0.988384  0  0  0.107977  0.106166  0  0.989005  0
H  H22  1  0.59434598  0.71058445  0.50000020  1  0  0.095032  0  0.932082  0  0  0.10739  0  0.988891  0  0  0.109041  0  0.98854  0  0  0.108024  0.106163  0  0.989159  0
H  H23  1  0.28942473  0.40565947  0.99999965  1  0  0.095106  0  0.931972  0  0  0.107439  0  0.988807  0  0  0.109089  0  0.988456  0  0  0.108008  0.106208  0  0.989074  0
C  C24  1  0.46273428  0.27827758  0.83697505  1  0  -0.084404  0  3.29166  0  0  -0.061267  0  3.603205  0  0  -0.058754  0  3.612977  0  0  -0.01134  -0.062834  0  3.59639  0
C  C25  1  0.72173005  0.53727714  0.33697797  1  0  -0.084385  0  3.291517  0  0  -0.061255  0  3.603039  0  0  -0.058744  0  3.612812  0  0  -0.011321  -0.062821  0  3.596221  0
C  C26  1  0.27827329  0.46273180  0.33697223  1  0  -0.0844  0  3.291273  0  0  -0.061285  0  3.60284  0  0  -0.05877  0  3.61261  0  0  -0.011399  -0.062853  0  3.596021  0
C  C27  1  0.53727036  0.72172391  0.83697825  1  0  -0.084385  0  3.291435  0  0  -0.061257  0  3.602975  0  0  -0.058744  0  3.612747  0  0  -0.01131  -0.062825  0  3.596158  0
C  C28  1  0.53726920  0.72172067  0.16301897  1  0  -0.084466  0  3.291702  0  0  -0.061329  0  3.603223  0  0  -0.058819  0  3.612998  0  0  -0.011403  -0.062898  0  3.596404  0
C  C29  1  0.27827520  0.46273131  0.66302015  1  0  -0.084336  0  3.291569  0  0  -0.061205  0  3.603093  0  0  -0.058692  0  3.612865  0  0  -0.011307  -0.06277  0  3.596276  0
C  C30  1  0.72173603  0.53726646  0.66301768  1  0  -0.084417  0  3.292097  0  0  -0.061276  0  3.603614  0  0  -0.058768  0  3.613387  0  0  -0.011331  -0.062837  0  3.596798  0
C  C31  1  0.46272281  0.27826031  0.16302739  1  0  -0.084398  0  3.291651  0  0  -0.061265  0  3.603186  0  0  -0.058756  0  3.612959  0  0  -0.011267  -0.062832  0  3.596365  0
C  C32  1  0.11614572  0.78806804  0.92098794  1  0  0.127381  0  3.719496  0  0  0.097087  0  3.966836  0  0  0.103688  0  3.986475  0  0  0.047004  0.092952  0  3.953286  0
C  C33  1  0.21193111  0.88384968  0.42098272  1  0  0.127208  0  3.719224  0  0  0.096889  0  3.966539  0  0  0.103494  0  3.986174  0  0  0.046901  0.092759  0  3.952985  0
C  C34  1  0.78807373  0.11614573  0.42098832  1  0  0.12733  0  3.719404  0  0  0.097034  0  3.966706  0  0  0.103624  0  3.986353  0  0  0.046932  0.092909  0  3.953146  0
C  C35  1  0.88386075  0.21193520  0.92097731  1  0  0.127168  0  3.718946  0  0  0.096877  0  3.96628  0  0  0.103471  0  3.985924  0  0  0.046855  0.092752  0  3.952723  0
C  C36  1  0.88384894  0.21193147  0.07900881  1  0  0.127319  0  3.719585  0  0  0.097019  0  3.966905  0  0  0.103625  0  3.98654  0  0  0.046943  0.092888  0  3.95335  0
C  C37  1  0.78807348  0.11616004  0.57902086  1  0  0.127227  0  3.719006  0  0  0.096943  0  3.966311  0  0  0.103522  0  3.985951  0  0  0.046872  0.092816  0  3.952755  0
C  C38  1  0.21193049  0.88386017  0.57902004  1  0  0.127147  0  3.719261  0  0  0.096842  0  3.966602  0  0  0.10344  0  3.986243  0  0  0.046857  0.092718  0  3.953041  0
C  C39  1  0.11613157  0.78806431  0.07902354  1  0  0.127184  0  3.718889  0  0  0.0969  0  3.966221  0  0  0.103498  0  3.985864  0  0  0.046901  0.092776  0  3.95266  0
C  C40  1  0.93938375  0.70260523  0.91793852  1  0  -0.123306  0  3.747374  0  0  -0.131189  0  3.989891  0  0  -0.13926  0  4.013768  0  0  -0.082825  -0.125971  0  3.973758  0
C  C41  1  0.29738035  0.06061507  0.41794857  1  0  -0.12337  0  3.747713  0  0  -0.131107  0  3.990289  0  0  -0.139149  0  4.014174  0  0  -0.082824  -0.125889  0  3.974154  0
C  C42  1  0.70262805  0.93939806  0.41794246  1  0  -0.123285  0  3.74716  0  0  -0.131053  0  3.989724  0  0  -0.139123  0  4.013601  0  0  -0.082747  -0.12584  0  3.973592  0
C  C43  1  0.06060700  0.29737367  0.91793853  1  0  -0.123336  0  3.747382  0  0  -0.131137  0  3.989957  0  0  -0.139192  0  4.013836  0  0  -0.082842  -0.125926  0  3.973827  0
C  C44  1  0.06060820  0.29739045  0.08205687  1  0  -0.123382  0  3.747189  0  0  -0.131182  0  3.989736  0  0  -0.139235  0  4.013614  0  0  -0.082798  -0.125963  0  3.973601  0
C  C45  1  0.70262396  0.93939974  0.58205433  1  0  -0.123267  0  3.747188  0  0  -0.131037  0  3.989777  0  0  -0.139092  0  4.013661  0  0  -0.082795  -0.125822  0  3.973643  0
C  C46  1  0.29737645  0.06060274  0.58206864  1  0  -0.123238  0  3.747031  0  0  -0.131081  0  3.989592  0  0  -0.139123  0  4.013478  0  0  -0.082745  -0.125863  0  3.973455  0
C  C47  1  0.93939260  0.70262075  0.08206164  1  0  -0.123387  0  3.747398  0  0  -0.131205  0  3.989945  0  0  -0.13927  0  4.013822  0  0  -0.082838  -0.125991  0  3.973812  0
C  C48  1  0.84912443  0.65963129  0.00000070  1  0  0.00978  0  3.710218  0  0  -0.009785  0  3.953696  0  0  -0.006556  0  3.974887  0  0  -0.061287  -0.011508  0  3.93905  0
C  C49  1  0.34036394  0.15087939  0.49999783  1  0  0.00992  0  3.710216  0  0  -0.009648  0  3.953695  0  0  -0.006417  0  3.974869  0  0  -0.061254  -0.011375  0  3.939055  0
C  C50  1  0.65963837  0.84911885  0.50000370  1  0  0.009949  0  3.710359  0  0  -0.009639  0  3.953824  0  0  -0.006413  0  3.975012  0  0  -0.061297  -0.011368  0  3.93919  0
C  C51  1  0.15088007  0.34036951  0.99999673  1  0  0.009913  0  3.710195  0  0  -0.009669  0  3.953697  0  0  -0.006434  0  3.974873  0  0  -0.061243  -0.011393  0  3.939056  0
N  N52  1  0.45657880  0.16769197  0.88539001  1  0  -0.401379  0  3.071117  0  0  -0.344623  0  3.349017  0  0  -0.362185  0  3.363871  0  0  -0.364974  -0.332636  0  3.338671  0
N  N53  1  0.83231442  0.54341505  0.38538908  1  0  -0.401399  0  3.071212  0  0  -0.344638  0  3.349125  0  0  -0.362201  0  3.363978  0  0  -0.364999  -0.332648  0  3.338774  0
N  N54  1  0.16768566  0.45658544  0.38539252  1  0  -0.401385  0  3.070803  0  0  -0.344614  0  3.348722  0  0  -0.36218  0  3.363579  0  0  -0.364907  -0.332624  0  3.33837  0
N  N55  1  0.54341021  0.83231378  0.88538648  1  0  -0.401409  0  3.071092  0  0  -0.344649  0  3.349006  0  0  -0.362214  0  3.363859  0  0  -0.365019  -0.332659  0  3.338656  0
N  N56  1  0.54341819  0.83230754  0.11460811  1  0  -0.401319  0  3.071204  0  0  -0.344562  0  3.349087  0  0  -0.362123  0  3.363941  0  0  -0.364921  -0.332572  0  3.338734  0
N  N57  1  0.16768723  0.45658448  0.61460972  1  0  -0.401467  0  3.071288  0  0  -0.344709  0  3.349201  0  0  -0.362273  0  3.364055  0  0  -0.365025  -0.33272  0  3.338854  0
N  N58  1  0.83230601  0.54341534  0.61460833  1  0  -0.401377  0  3.071687  0  0  -0.344622  0  3.349564  0  0  -0.36218  0  3.364416  0  0  -0.365007  -0.332637  0  3.339217  0
N  N59  1  0.45658524  0.16768191  0.11461232  1  0  -0.401392  0  3.071227  0  0  -0.344639  0  3.349145  0  0  -0.362199  0  3.363998  0  0  -0.365056  -0.33265  0  3.338793  0
N  N60  1  0.20300640  0.83075925  0.99999383  1  0  -0.328813  0  3.265527  0  0  -0.253613  0  3.530358  0  0  -0.272929  0  3.54986  0  0  -0.328052  -0.240408  0  3.516652  0
N  N61  1  0.16923992  0.79699511  0.49999919  1  0  -0.328868  0  3.265575  0  0  -0.253615  0  3.530375  0  0  -0.272928  0  3.549882  0  0  -0.328015  -0.240411  0  3.516669  0
N  N62  1  0.83075553  0.20300058  0.49999893  1  0  -0.329007  0  3.265848  0  0  -0.253761  0  3.530637  0  0  -0.273073  0  3.550148  0  0  -0.328109  -0.240559  0  3.516931  0
N  N63  1  0.79699665  0.16924665  0.00000292  1  0  -0.328784  0  3.265698  0  0  -0.253567  0  3.530509  0  0  -0.27288  0  3.55001  0  0  -0.328019  -0.240362  0  3.516803  0
