# generated using pymatgen
data_ZnH16C23(N3O2)2
_symmetry_space_group_name_H-M   'P 1'
_cell_length_a   8.06689704
_cell_length_b   14.63364260
_cell_length_c   14.63326043
_cell_angle_alpha   94.48700772
_cell_angle_beta   103.41601999
_cell_angle_gamma   103.41606961
_symmetry_Int_Tables_number   1
_chemical_formula_structural   ZnH16C23(N3O2)2
_chemical_formula_sum   'Zn2 H32 C46 N12 O8'
_cell_volume   1618.43509126
_cell_formula_units_Z   2
loop_
 _symmetry_equiv_pos_site_id
 _symmetry_equiv_pos_as_xyz
  1  'x, y, z'
loop_
 _atom_site_type_symbol
 _atom_site_label
 _atom_site_symmetry_multiplicity
 _atom_site_fract_x
 _atom_site_fract_y
 _atom_site_fract_z
 _atom_site_occupancy
 _atom_site_hle17_bader_spin_density
 _atom_site_hle17_ddec_charge
 _atom_site_hle17_ddec_spin_density
 _atom_site_hle17_ddec_sum_bond_order
 _atom_site_hle17_magmom
 _atom_site_hse06_10hf_bader_spin_density
 _atom_site_hse06_10hf_ddec_charge
 _atom_site_hse06_10hf_ddec_spin_density
 _atom_site_hse06_10hf_ddec_sum_bond_order
 _atom_site_hse06_10hf_magmom
 _atom_site_hse06_bader_spin_density
 _atom_site_hse06_ddec_charge
 _atom_site_hse06_ddec_spin_density
 _atom_site_hse06_ddec_sum_bond_order
 _atom_site_hse06_magmom
 _atom_site_pbe_bader_spin_density
 _atom_site_pbe_cm5_charge
 _atom_site_pbe_ddec_charge
 _atom_site_pbe_ddec_spin_density
 _atom_site_pbe_ddec_sum_bond_order
 _atom_site_pbe_magmom
Zn  Zn0  1  0.59411186  0.73172827  0.74791163  1  0  0.998691  0  1.915775  0  0  0.808193  0  2.400174  0  0  0.854283  0  2.344303  0  0  0.692767  0.776099  0  2.438547  0
Zn  Zn1  1  0.40588779  0.25208745  0.26827140  1  0  0.998648  0  1.91577  0  0  0.808142  0  2.400161  0  0  0.854228  0  2.344292  0  0  0.692722  0.776045  0  2.438537  0
H  H2  1  0.13777034  0.60623391  0.50308534  1  0  0.101474  0  0.941045  0  0  0.110888  0  0.998888  0  0  0.115001  0  0.996103  0  0  0.103729  0.107926  0  1.000968  0
H  H3  1  0.86221780  0.49691682  0.39376320  1  0  0.101448  0  0.940954  0  0  0.110844  0  0.998821  0  0  0.114958  0  0.996036  0  0  0.103686  0.107882  0  1.000901  0
H  H4  1  0.13251080  0.40857799  0.70411221  1  0  0.083811  0  0.987898  0  0  0.089881  0  1.059955  0  0  0.093092  0  1.058092  0  0  0.092762  0.087576  0  1.061389  0
H  H5  1  0.86748712  0.29589671  0.59142505  1  0  0.083774  0  0.988045  0  0  0.089842  0  1.060088  0  0  0.093052  0  1.058227  0  0  0.092803  0.087533  0  1.061524  0
H  H6  1  0.29099538  0.85435031  0.89548441  1  0  0.091672  0  0.969512  0  0  0.099722  0  1.035359  0  0  0.103308  0  1.032973  0  0  0.09581  0.097154  0  1.037106  0
H  H7  1  0.70900088  0.10451034  0.14564707  1  0  0.09167  0  0.969631  0  0  0.099767  0  1.03542  0  0  0.103357  0  1.033029  0  0  0.095808  0.097199  0  1.037168  0
H  H8  1  0.82386369  0.00372911  0.04050112  1  0  0.110544  0  0.942723  0  0  0.118293  0  1.004432  0  0  0.122837  0  1.000657  0  0  0.102538  0.114987  0  1.007236  0
H  H9  1  0.17613158  0.95949891  0.99626831  1  0  0.110543  0  0.942696  0  0  0.118271  0  1.004433  0  0  0.122834  0  1.000637  0  0  0.102522  0.114966  0  1.007236  0
H  H10  1  0.89726743  0.92753197  0.76547198  1  0  0.109946  0  0.943743  0  0  0.120459  0  1.004198  0  0  0.123452  0  1.000022  0  0  0.141577  0.118255  0  1.007167  0
H  H11  1  0.10273999  0.23453060  0.07246206  1  0  0.109955  0  0.943674  0  0  0.120428  0  1.004184  0  0  0.123422  0  1.000007  0  0  0.141575  0.118222  0  1.007155  0
H  H12  1  0.61072064  0.96224230  0.49302055  1  0  0.127542  0  0.935074  0  0  0.142293  0  0.983854  0  0  0.145026  0  0.982436  0  0  0.13641  0.140296  0  0.985019  0
H  H13  1  0.38927747  0.50698122  0.03775783  1  0  0.12759  0  0.935028  0  0  0.14234  0  0.983803  0  0  0.145072  0  0.982387  0  0  0.136455  0.140343  0  0.984965  0
H  H14  1  0.45139036  0.79076568  0.54395497  1  0  0.121242  0  0.932193  0  0  0.132287  0  0.984383  0  0  0.135247  0  0.98284  0  0  0.129258  0.130129  0  0.985589  0
H  H15  1  0.54861387  0.45604328  0.20923628  1  0  0.121292  0  0.9321  0  0  0.132306  0  0.984334  0  0  0.135254  0  0.982807  0  0  0.129264  0.130149  0  0.98554  0
H  H16  1  0.02312722  0.08383456  0.78276900  1  0  0.124784  0  0.944477  0  0  0.136624  0  1.004778  0  0  0.139852  0  1.002883  0  0  0.117044  0.134255  0  1.00635  0
H  H17  1  0.97687442  0.21724054  0.91615851  1  0  0.124769  0  0.944496  0  0  0.136615  0  1.0048  0  0  0.139833  0  1.002899  0  0  0.117051  0.134251  0  1.006368  0
H  H18  1  0.30232701  0.12138870  0.88744255  1  0  0.112325  0  0.968054  0  0  0.122301  0  1.029905  0  0  0.124306  0  1.029981  0  0  0.120137  0.120815  0  1.029994  0
H  H19  1  0.69768252  0.11257120  0.87861233  1  0  0.112315  0  0.967833  0  0  0.122228  0  1.029777  0  0  0.124231  0  1.029852  0  0  0.120095  0.120719  0  1.029894  0
H  H20  1  0.53767864  0.26799435  0.01701173  1  0  0.101868  0  0.937224  0  0  0.11425  0  0.990057  0  0  0.11634  0  0.99005  0  0  0.115267  0.112734  0  0.990157  0
H  H21  1  0.46233684  0.98299944  0.73200442  1  0  0.101877  0  0.937224  0  0  0.114206  0  0.9901  0  0  0.116296  0  0.990094  0  0  0.115249  0.112691  0  0.990197  0
H  H22  1  0.36331952  0.37825109  0.76596938  1  0  0.088046  0  0.973648  0  0  0.095096  0  1.042464  0  0  0.097961  0  1.038717  0  0  0.124104  0.09295  0  1.045228  0
H  H23  1  0.63668018  0.23403402  0.62173375  1  0  0.088141  0  0.973435  0  0  0.095183  0  1.042261  0  0  0.098047  0  1.038519  0  0  0.124154  0.093038  0  1.045023  0
H  H24  1  0.29686728  0.27551073  0.62401306  1  0  0.120713  0  0.941152  0  0  0.131807  0  1.001916  0  0  0.134616  0  1.000987  0  0  0.116513  0.129744  0  1.002731  0
H  H25  1  0.70313384  0.37599002  0.72448410  1  0  0.120711  0  0.941233  0  0  0.131803  0  1.001978  0  0  0.134618  0  1.001039  0  0  0.116509  0.129725  0  1.002811  0
H  H26  1  0.37448089  0.20862210  0.47201019  1  0  0.117237  0  0.967491  0  0  0.123814  0  1.032894  0  0  0.127215  0  1.028441  0  0  0.138137  0.121286  0  1.036096  0
H  H27  1  0.62551423  0.52798783  0.79137787  1  0  0.117221  0  0.967486  0  0  0.123796  0  1.032866  0  0  0.127196  0  1.028415  0  0  0.138143  0.121266  0  1.036075  0
H  H28  1  0.97869104  0.22004843  0.23120160  1  0  0.106116  0  0.944789  0  0  0.118775  0  0.999332  0  0  0.121094  0  0.99824  0  0  0.124547  0.117082  0  1.000221  0
H  H29  1  0.02129846  0.76879091  0.77994715  1  0  0.106152  0  0.944893  0  0  0.11878  0  0.999455  0  0  0.121099  0  0.998362  0  0  0.124579  0.117086  0  1.000345  0
H  H30  1  0.82086853  0.17915777  0.37833243  1  0  0.1396  0  0.955366  0  0  0.147918  0  1.014874  0  0  0.151248  0  1.012896  0  0  0.129989  0.145503  0  1.016383  0
H  H31  1  0.17912969  0.62166660  0.82084288  1  0  0.139573  0  0.955287  0  0  0.147877  0  1.014831  0  0  0.151206  0  1.012855  0  0  0.12998  0.145461  0  1.01634  0
H  H32  1  0.85811275  0.04385344  0.47638636  1  0  0.129587  0  0.934077  0  0  0.142324  0  0.988746  0  0  0.145643  0  0.987013  0  0  0.123046  0.139933  0  0.990116  0
H  H33  1  0.14188465  0.52361286  0.95614638  1  0  0.129594  0  0.934166  0  0  0.142336  0  0.988827  0  0  0.145655  0  0.987095  0  0  0.123058  0.139945  0  0.990196  0
C  C34  1  0.31403153  0.57610863  0.67686106  1  0  0.625615  0  3.949625  0  0  0.578632  0  4.242375  0  0  0.612302  0  4.23531  0  0  0.195058  0.555871  0  4.246291  0
C  C35  1  0.68596904  0.32314381  0.42389496  1  0  0.625581  0  3.949688  0  0  0.578617  0  4.242421  0  0  0.612286  0  4.235355  0  0  0.194959  0.55586  0  4.246337  0
C  C36  1  0.15169942  0.51288803  0.60933340  1  0  -0.058718  0  3.770988  0  0  -0.036281  0  4.00116  0  0  -0.043288  0  4.024647  0  0  -0.021945  -0.03167  0  3.985234  0
C  C37  1  0.84830211  0.39067312  0.48711707  1  0  -0.058835  0  3.771105  0  0  -0.036449  0  4.001322  0  0  -0.043454  0  4.024807  0  0  -0.021973  -0.03184  0  3.985398  0
C  C38  1  0.07590757  0.53845260  0.52198133  1  0  -0.072711  0  3.745265  0  0  -0.093717  0  3.989233  0  0  -0.094713  0  4.009335  0  0  -0.085349  -0.092951  0  3.975545  0
C  C39  1  0.92409277  0.47802268  0.46154868  1  0  -0.072616  0  3.745104  0  0  -0.093576  0  3.989074  0  0  -0.094574  0  4.009176  0  0  -0.085272  -0.092809  0  3.975385  0
C  C40  1  0.07440440  0.42614915  0.63504849  1  0  -0.089764  0  3.783734  0  0  -0.11356  0  4.036672  0  0  -0.114904  0  4.058199  0  0  -0.09878  -0.112508  0  4.021966  0
C  C41  1  0.92558626  0.36495802  0.57385656  1  0  -0.089587  0  3.784025  0  0  -0.113351  0  4.036941  0  0  -0.114694  0  4.058466  0  0  -0.098825  -0.112299  0  4.022236  0
C  C42  1  0.62934308  0.86335021  0.89739901  1  0  0.628474  0  3.939319  0  0  0.583372  0  4.229369  0  0  0.616941  0  4.222681  0  0  0.191182  0.560643  0  4.233031  0
C  C43  1  0.37065944  0.10260094  0.13665147  1  0  0.628396  0  3.939431  0  0  0.583302  0  4.22948  0  0  0.616873  0  4.222791  0  0  0.191166  0.560574  0  4.233142  0
C  C44  1  0.56307647  0.92383253  0.96096170  1  0  -0.054355  0  3.755106  0  0  -0.030506  0  3.982524  0  0  -0.037254  0  4.006092  0  0  -0.020157  -0.026044  0  3.966526  0
C  C45  1  0.43692529  0.03903699  0.07616668  1  0  -0.054365  0  3.755031  0  0  -0.030509  0  3.982447  0  0  -0.037259  0  4.006022  0  0  -0.020126  -0.026051  0  3.966455  0
C  C46  1  0.38099826  0.91085313  0.94938573  1  0  -0.08549  0  3.759413  0  0  -0.108114  0  4.006941  0  0  -0.109261  0  4.027843  0  0  -0.094  -0.107221  0  3.992656  0
C  C47  1  0.61900384  0.05061330  0.08914521  1  0  -0.085494  0  3.759603  0  0  -0.108161  0  4.007112  0  0  -0.10931  0  4.028011  0  0  -0.094032  -0.107267  0  3.992829  0
C  C48  1  0.68240742  0.99439563  0.03139054  1  0  -0.088822  0  3.752172  0  0  -0.10864  0  3.996774  0  0  -0.110198  0  4.017054  0  0  -0.089946  -0.107443  0  3.982944  0
C  C49  1  0.31759279  0.96860918  0.00560268  1  0  -0.088849  0  3.752007  0  0  -0.108651  0  3.996604  0  0  -0.110225  0  4.016879  0  0  -0.089963  -0.107454  0  3.982778  0
C  C50  1  0.80109462  0.91232044  0.69723928  1  0  0.174501  0  3.637229  0  0  0.110184  0  3.902597  0  0  0.124427  0  3.914733  0  0  0.151846  0.101026  0  3.89407  0
C  C51  1  0.19891033  0.30276194  0.08767432  1  0  0.174596  0  3.637336  0  0  0.11028  0  3.902724  0  0  0.124522  0  3.914853  0  0  0.151874  0.101125  0  3.894206  0
C  C52  1  0.64936663  0.92787829  0.55429279  1  0  -0.048919  0  3.66753  0  0  -0.094032  0  3.92888  0  0  -0.092405  0  3.947546  0  0  0.008656  -0.095123  0  3.916347  0
C  C53  1  0.35063384  0.44570470  0.07211820  1  0  -0.048814  0  3.667387  0  0  -0.093947  0  3.928734  0  0  -0.092318  0  3.947396  0  0  0.008722  -0.095037  0  3.9162  0
C  C54  1  0.57007437  0.84468613  0.58080789  1  0  0.011727  0  3.729377  0  0  -0.019526  0  3.988579  0  0  -0.018439  0  4.008904  0  0  0.009078  -0.020236  0  3.974897  0
C  C55  1  0.42993008  0.41918961  0.15531222  1  0  0.011653  0  3.729169  0  0  -0.019564  0  3.988392  0  0  -0.018468  0  4.00872  0  0  0.00906  -0.020276  0  3.97471  0
C  C56  1  0.92611310  0.05478071  0.62977541  1  0  0.230437  0  3.787823  0  0  0.224374  0  4.035385  0  0  0.232455  0  4.056856  0  0  0.108796  0.218974  0  4.020917  0
C  C57  1  0.07388626  0.37023073  0.94521560  1  0  0.230447  0  3.787716  0  0  0.224312  0  4.035394  0  0  0.232394  0  4.056864  0  0  0.108754  0.21891  0  4.020931  0
C  C58  1  0.04008534  0.10503778  0.71521526  1  0  -0.23598  0  3.669012  0  0  -0.270712  0  3.927487  0  0  -0.276909  0  3.94575  0  0  -0.090474  -0.266745  0  3.915389  0
C  C59  1  0.95991476  0.28479192  0.89495689  1  0  -0.235872  0  3.66905  0  0  -0.270585  0  3.927565  0  0  -0.276761  0  3.94581  0  0  -0.09043  -0.266622  0  3.915472  0
C  C60  1  0.17483591  0.18420054  0.71304900  1  0  0.227592  0  3.777758  0  0  0.222273  0  4.024243  0  0  0.230816  0  4.045468  0  0  0.107138  0.216585  0  4.009886  0
C  C61  1  0.82516725  0.28695763  0.81579032  1  0  0.227747  0  3.778182  0  0  0.222426  0  4.024622  0  0  0.230969  0  4.045847  0  0  0.10711  0.216738  0  4.010265  0
C  C62  1  0.34701555  0.19602072  0.88193297  1  0  -0.076604  0  3.686118  0  0  -0.116961  0  3.948045  0  0  -0.115553  0  3.96818  0  0  -0.008395  -0.117767  0  3.9344  0
C  C63  1  0.65299624  0.11807993  0.80397461  1  0  -0.076275  0  3.685888  0  0  -0.116562  0  3.947763  0  0  -0.115149  0  3.967902  0  0  -0.008256  -0.117351  0  3.934129  0
C  C64  1  0.46633043  0.26979250  0.94473388  1  0  -0.002964  0  3.781612  0  0  -0.03259  0  4.062356  0  0  -0.032068  0  4.081777  0  0  -0.01054  -0.032859  0  4.04906  0
C  C65  1  0.53367177  0.05527537  0.73019934  1  0  -0.002808  0  3.781436  0  0  -0.032377  0  4.062137  0  0  -0.031852  0  4.081539  0  0  -0.010357  -0.032654  0  4.048855  0
C  C66  1  0.38433420  0.32899435  0.81661077  1  0  0.136124  0  3.685609  0  0  0.083434  0  3.965573  0  0  0.094656  0  3.977572  0  0  0.122573  0.076292  0  3.957062  0
C  C67  1  0.61567160  0.18339438  0.67099429  1  0  0.136225  0  3.685278  0  0  0.083549  0  3.965273  0  0  0.094766  0  3.977277  0  0  0.12254  0.076409  0  3.956763  0
C  C68  1  0.19200324  0.21457295  0.62650537  1  0  -0.221992  0  3.693765  0  0  -0.257204  0  3.954858  0  0  -0.264245  0  3.97535  0  0  -0.083774  -0.252673  0  3.941284  0
C  C69  1  0.80800057  0.37349895  0.78541874  1  0  -0.222089  0  3.693929  0  0  -0.257289  0  3.955024  0  0  -0.264334  0  3.975512  0  0  -0.083797  -0.252746  0  3.941456  0
C  C70  1  0.07366710  0.16438783  0.54278454  1  0  0.22791  0  3.794814  0  0  0.222647  0  4.043235  0  0  0.230281  0  4.064452  0  0  0.110733  0.217556  0  4.02895  0
C  C71  1  0.92633355  0.45721871  0.83561007  1  0  0.228102  0  3.794923  0  0  0.222845  0  4.043291  0  0  0.230476  0  4.064512  0  0  0.110782  0.217754  0  4.029002  0
C  C72  1  0.24683697  0.20918311  0.42752460  1  0  0.178619  0  3.615163  0  0  0.117971  0  3.868042  0  0  0.132912  0  3.878671  0  0  0.15207  0.108343  0  3.860549  0
C  C73  1  0.75315549  0.57247383  0.79081732  1  0  0.178664  0  3.615096  0  0  0.118074  0  3.867918  0  0  0.133014  0  3.878544  0  0  0.152129  0.108446  0  3.860426  0
C  C74  1  0.03714478  0.21163015  0.30349779  1  0  0.017754  0  3.731968  0  0  -0.016915  0  3.994202  0  0  -0.015641  0  4.015069  0  0  0.008496  -0.017792  0  3.980207  0
C  C75  1  0.96284574  0.69649817  0.78836708  1  0  0.017636  0  3.732099  0  0  -0.016995  0  3.994348  0  0  -0.015719  0  4.015215  0  0  0.008426  -0.017875  0  3.980353  0
C  C76  1  0.95690857  0.19042317  0.37482618  1  0  -0.050715  0  3.626391  0  0  -0.093044  0  3.883795  0  0  -0.092225  0  3.903288  0  0  0.008907  -0.093585  0  3.870788  0
C  C77  1  0.04308420  0.62517127  0.80957404  1  0  -0.050629  0  3.625965  0  0  -0.092952  0  3.883377  0  0  -0.092134  0  3.902867  0  0  0.008932  -0.093491  0  3.870369  0
C  C78  1  0.94151317  0.08439492  0.54327599  1  0  -0.219258  0  3.681018  0  0  -0.252415  0  3.932695  0  0  -0.258035  0  3.949797  0  0  -0.08255  -0.24884  0  3.921365  0
C  C79  1  0.05848796  0.45672888  0.91560172  1  0  -0.219319  0  3.681065  0  0  -0.252477  0  3.932778  0  0  -0.258097  0  3.949881  0  0  -0.082534  -0.248902  0  3.921448  0
N  N80  1  0.66617953  0.83603637  0.66978736  1  0  -0.359966  0  3.298392  0  0  -0.281648  0  3.594747  0  0  -0.3009  0  3.607351  0  0  -0.34922  -0.268682  0  3.586011  0
N  N81  1  0.33382552  0.33021117  0.16395947  1  0  -0.360121  0  3.298558  0  0  -0.281799  0  3.594918  0  0  -0.301049  0  3.607513  0  0  -0.349311  -0.268833  0  3.586187  0
N  N82  1  0.79702404  0.97026664  0.62851254  1  0  -0.091001  0  3.595883  0  0  -0.00137  0  3.806217  0  0  -0.017075  0  3.83212  0  0  -0.22053  0.009075  0  3.788499  0
N  N83  1  0.20297700  0.37148958  0.02972910  1  0  -0.09108  0  3.596094  0  0  -0.001387  0  3.806412  0  0  -0.017091  0  3.832317  0  0  -0.220512  0.00906  0  3.788693  0
N  N84  1  0.48769733  0.35232819  0.90360917  1  0  -0.352955  0  3.023588  0  0  -0.328374  0  3.309899  0  0  -0.338325  0  3.322937  0  0  -0.356489  -0.321394  0  3.300644  0
N  N85  1  0.51231083  0.09639480  0.64766735  1  0  -0.353129  0  3.023614  0  0  -0.328569  0  3.309936  0  0  -0.338517  0  3.322973  0  0  -0.356648  -0.32159  0  3.300684  0
N  N86  1  0.29493829  0.23375928  0.79879789  1  0  -0.111688  0  3.586399  0  0  -0.021362  0  3.794592  0  0  -0.037587  0  3.821686  0  0  -0.232546  -0.010507  0  3.775974  0
N  N87  1  0.70506771  0.20120973  0.76623196  1  0  -0.112398  0  3.587326  0  0  -0.022082  0  3.795543  0  0  -0.038307  0  3.822637  0  0  -0.232698  -0.011226  0  3.77692  0
N  N88  1  0.21675057  0.22269723  0.33708043  1  0  -0.368553  0  3.324405  0  0  -0.28631  0  3.624917  0  0  -0.305829  0  3.635315  0  0  -0.351617  -0.273175  0  3.617675  0
N  N89  1  0.78324305  0.66291579  0.77730122  1  0  -0.36857  0  3.324294  0  0  -0.286368  0  3.624824  0  0  -0.305889  0  3.635221  0  0  -0.351654  -0.273233  0  3.61758  0
N  N90  1  0.09221776  0.19005702  0.45346414  1  0  -0.091076  0  3.588391  0  0  -0.000928  0  3.798787  0  0  -0.016235  0  3.823944  0  0  -0.221361  0.009261  0  3.781523  0
N  N91  1  0.90777286  0.54653503  0.80994309  1  0  -0.091121  0  3.588454  0  0  -0.000989  0  3.798835  0  0  -0.016294  0  3.823989  0  0  -0.221382  0.009199  0  3.781572  0
O  O92  1  0.38472971  0.65374501  0.64857204  1  0  -0.643723  0  2.025869  0  0  -0.573509  0  2.286052  0  0  -0.601293  0  2.270594  0  0  -0.338521  -0.554082  0  2.295929  0
O  O93  1  0.61527227  0.35142687  0.34625414  1  0  -0.643772  0  2.026031  0  0  -0.573544  0  2.286188  0  0  -0.601326  0  2.270726  0  0  -0.338505  -0.554116  0  2.296066  0
O  O94  1  0.37212753  0.55152875  0.75622675  1  0  -0.632424  0  1.911381  0  0  -0.587253  0  2.134038  0  0  -0.609494  0  2.123391  0  0  -0.333251  -0.571697  0  2.140884  0
O  O95  1  0.62786383  0.24377842  0.44847149  1  0  -0.632337  0  1.911378  0  0  -0.587171  0  2.134029  0  0  -0.609414  0  2.123388  0  0  -0.333166  -0.571615  0  2.140872  0
O  O96  1  0.50949611  0.79006812  0.84641990  1  0  -0.655826  0  2.02905  0  0  -0.582985  0  2.292751  0  0  -0.611226  0  2.276167  0  0  -0.347611  -0.563161  0  2.303382  0
O  O97  1  0.49050407  0.15357025  0.20994242  1  0  -0.65574  0  2.029087  0  0  -0.582912  0  2.292796  0  0  -0.611152  0  2.276212  0  0  -0.347548  -0.563086  0  2.303426  0
O  O98  1  0.78737016  0.88520514  0.89424245  1  0  -0.630501  0  1.881682  0  0  -0.589912  0  2.094502  0  0  -0.612267  0  2.084943  0  0  -0.341114  -0.574242  0  2.100502  0
O  O99  1  0.21263520  0.10576409  0.11478790  1  0  -0.630444  0  1.881766  0  0  -0.589853  0  2.094591  0  0  -0.61221  0  2.085036  0  0  -0.341113  -0.574181  0  2.100591  0
