# generated using pymatgen
data_CdH22C34(NO)4
_symmetry_space_group_name_H-M   'P 1'
_cell_length_a   9.24520088
_cell_length_b   17.21492107
_cell_length_c   17.21503396
_cell_angle_alpha   80.29285298
_cell_angle_beta   86.96119569
_cell_angle_gamma   86.96119924
_symmetry_Int_Tables_number   1
_chemical_formula_structural   CdH22C34(NO)4
_chemical_formula_sum   'Cd2 H44 C68 N8 O8'
_cell_volume   2694.13512913
_cell_formula_units_Z   2
loop_
 _symmetry_equiv_pos_site_id
 _symmetry_equiv_pos_as_xyz
  1  'x, y, z'
loop_
 _atom_site_type_symbol
 _atom_site_label
 _atom_site_symmetry_multiplicity
 _atom_site_fract_x
 _atom_site_fract_y
 _atom_site_fract_z
 _atom_site_occupancy
 _atom_site_pbe_bader_charge
 _atom_site_pbe_bader_spin_density
 _atom_site_pbe_cm5_charge
 _atom_site_pbe_ddec_charge
 _atom_site_pbe_ddec_spin_density
 _atom_site_pbe_ddec_sum_bond_order
 _atom_site_pbe_magmom
Cd  Cd0  1  0.58176049  0.70157236  0.70156959  1  1.22891  0  0.771652  0.835518  0  2.199714  0
Cd  Cd1  1  0.41823872  0.29842662  0.29842401  1  1.228868  0  0.771631  0.835505  0  2.199686  0
H  H2  1  0.10062754  0.64695566  0.64696454  1  0.057251  0  0.100147  0.103676  0  1.006409  0
H  H3  1  0.89937682  0.35304379  0.35303934  1  0.057344  0  0.100163  0.103666  0  1.006482  0
H  H4  1  0.90961778  0.58650049  0.58650236  1  0.035712  0  0.095329  0.092607  0  1.045983  0
H  H5  1  0.09038419  0.41350312  0.41349916  1  0.035789  0  0.095312  0.092545  0  1.046008  0
H  H6  1  0.24014967  0.46138366  0.46138274  1  0.077167  0  0.098743  0.102187  0  1.043185  0
H  H7  1  0.75985034  0.53861641  0.53861997  1  0.077146  0  0.098711  0.102131  0  1.043248  0
H  H8  1  0.42589370  0.52341305  0.52341793  1  0.059913  0  0.099777  0.101173  0  1.05403  0
H  H9  1  0.57410421  0.47658524  0.47658743  1  0.059403  0  0.099752  0.101125  0  1.054059  0
H  H10  1  0.76891678  0.86454768  0.65018586  1  0.164909  0  0.142926  0.119808  0  0.986718  0
H  H11  1  0.23108531  0.34981490  0.13545347  1  0.164921  0  0.142919  0.11977  0  0.986763  0
H  H12  1  0.23109188  0.13545415  0.34981232  1  0.16487  0  0.142895  0.119738  0  0.986779  0
H  H13  1  0.76891041  0.65018642  0.86454390  1  0.164926  0  0.142908  0.119756  0  0.986803  0
H  H14  1  0.88193258  0.81211028  0.42216860  1  0.1599  0  0.132554  0.135308  0  0.981556  0
H  H15  1  0.11805653  0.57783312  0.18788627  1  0.159796  0  0.132541  0.135236  0  0.981536  0
H  H16  1  0.11805477  0.18788698  0.57782787  1  0.159891  0  0.132514  0.13523  0  0.98164  0
H  H17  1  0.88194455  0.42216875  0.81211206  1  0.15981  0  0.132546  0.13528  0  0.981564  0
H  H18  1  0.71371469  0.69290142  0.50773253  1  0.145907  0  0.124858  0.126424  0  0.998409  0
H  H19  1  0.28627564  0.49227278  0.30710053  1  0.145624  0  0.124726  0.126235  0  0.998437  0
H  H20  1  0.28626765  0.30710405  0.49226970  1  0.145508  0  0.124766  0.126366  0  0.998381  0
H  H21  1  0.71373934  0.50773257  0.69289520  1  0.145493  0  0.124732  0.126304  0  0.9984  0
H  H22  1  0.08503664  0.80394710  0.58984458  1  0.083149  0  0.103037  0.103645  0  1.024546  0
H  H23  1  0.91495975  0.41015650  0.19605113  1  0.083241  0  0.10305  0.103618  0  1.024536  0
H  H24  1  0.91496926  0.19604890  0.41014935  1  0.083215  0  0.103028  0.103658  0  1.024579  0
H  H25  1  0.08503333  0.58985009  0.80395127  1  0.083218  0  0.103045  0.103662  0  1.024593  0
H  H26  1  0.65161163  0.94497141  0.46095885  1  0.044712  0  0.10151  0.101763  0  1.023161  0
H  H27  1  0.34838637  0.53903634  0.05502707  1  0.044913  0  0.10156  0.101748  0  1.023269  0
H  H28  1  0.34839756  0.05502397  0.53903510  1  0.044718  0  0.101531  0.101709  0  1.02327  0
H  H29  1  0.65159924  0.46096853  0.94497577  1  0.044621  0  0.101561  0.101703  0  1.023254  0
H  H30  1  0.53672510  0.06805376  0.38916180  1  0.093634  0  0.10288  0.106302  0  1.00939  0
H  H31  1  0.46328204  0.61083243  0.93194712  1  0.093592  0  0.102859  0.10634  0  1.009284  0
H  H32  1  0.46328403  0.93194160  0.61083507  1  0.093575  0  0.102902  0.106407  0  1.009346  0
H  H33  1  0.53670821  0.38916770  0.06805637  1  0.093485  0  0.102896  0.106386  0  1.009314  0
H  H34  1  0.66943252  0.19264806  0.36479472  1  0.125382  0  0.100316  0.107924  0  1.045894  0
H  H35  1  0.33056918  0.63520302  0.80735273  1  0.125402  0  0.100331  0.107942  0  1.04587  0
H  H36  1  0.33057124  0.80734674  0.63520177  1  0.125253  0  0.100345  0.108012  0  1.045852  0
H  H37  1  0.66942415  0.36479944  0.19265091  1  0.12532  0  0.100346  0.10804  0  1.045832  0
H  H38  1  0.52367576  0.96607343  0.77308175  1  0.086384  0  0.101273  0.103574  0  1.006177  0
H  H39  1  0.47633894  0.22691821  0.03393151  1  0.086882  0  0.101269  0.103604  0  1.006136  0
H  H40  1  0.47632547  0.03392487  0.22692005  1  0.086331  0  0.101276  0.103612  0  1.00613  0
H  H41  1  0.52366224  0.77308128  0.96606952  1  0.086847  0  0.101273  0.103626  0  1.006137  0
H  H42  1  0.50438781  0.06070692  0.86593611  1  0.081052  0  0.098456  0.095784  0  1.021929  0
H  H43  1  0.49563040  0.13406518  0.93929700  1  0.082846  0  0.098452  0.095796  0  1.021928  0
H  H44  1  0.49561664  0.93929196  0.13406553  1  0.080891  0  0.098424  0.09574  0  1.022005  0
H  H45  1  0.50437734  0.86593309  0.06070467  1  0.082795  0  0.098424  0.095749  0  1.021951  0
C  C46  1  0.39402443  0.62497700  0.62498229  1  1.528576  0  0.188118  0.551473  0  4.233316  0
C  C47  1  0.60597997  0.37502186  0.37502168  1  1.528136  0  0.188098  0.551484  0  4.233242  0
C  C48  1  0.27619261  0.58892631  0.58893590  1  -0.054049  0  -0.023195  -0.029647  0  3.989408  0
C  C49  1  0.72381185  0.41107137  0.41106884  1  -0.053507  0  -0.023204  -0.029866  0  3.98975  0
C  C50  1  0.12936473  0.60607426  0.60608249  1  -0.030172  0  -0.088882  -0.095339  0  4.003025  0
C  C51  1  0.87064063  0.39392575  0.39392360  1  -0.030717  0  -0.088872  -0.095202  0  4.003083  0
C  C52  1  0.02228982  0.57147860  0.57148388  1  -0.062059  0  -0.096503  -0.141812  0  3.996863  0
C  C53  1  0.97771102  0.42852438  0.42852183  1  -0.061595  0  -0.096488  -0.141685  0  3.996939  0
C  C54  1  0.05710199  0.51841094  0.51841048  1  -0.008576  0  -0.008291  0.069692  0  3.986231  0
C  C55  1  0.94289567  0.48159209  0.48159181  1  0.02434  0  -0.008318  0.069493  0  3.986428  0
C  C56  1  0.20531317  0.50177101  0.50177186  1  -0.099469  0  -0.095416  -0.137321  0  3.976795  0
C  C57  1  0.79468357  0.49822967  0.49823024  1  -0.099549  0  -0.095288  -0.137042  0  3.97678  0
C  C58  1  0.31183324  0.53640833  0.53641431  1  0.06396  0  -0.087616  -0.090822  0  3.992038  0
C  C59  1  0.68816371  0.46358881  0.46358893  1  0.064101  0  -0.087597  -0.090817  0  3.992302  0
C  C60  1  0.77827031  0.83258597  0.60084603  1  0.988844  0  0.14619  0.097877  0  3.911898  0
C  C61  1  0.22172646  0.39915435  0.16741290  1  0.988719  0  0.146232  0.098017  0  3.911937  0
C  C62  1  0.22173203  0.16741354  0.39915149  1  0.9889  0  0.146238  0.097991  0  3.911909  0
C  C63  1  0.77826387  0.60084640  0.83258527  1  0.989031  0  0.146252  0.097956  0  3.911955  0
C  C64  1  0.83412592  0.80404913  0.48162105  1  0.293413  0  0.00398  -0.108583  0  3.922369  0
C  C65  1  0.16587009  0.51838089  0.19595061  1  0.293325  0  0.004087  -0.108299  0  3.922144  0
C  C66  1  0.16586990  0.19595042  0.51837719  1  0.293573  0  0.004102  -0.108347  0  3.922374  0
C  C67  1  0.83413750  0.48162035  0.80404884  1  0.293872  0  0.004054  -0.108468  0  3.922078  0
C  C68  1  0.75228758  0.74588743  0.52444560  1  0.353426  0  0.002231  -0.027729  0  4.008687  0
C  C69  1  0.24770239  0.47555724  0.25411132  1  0.35385  0  0.002292  -0.027686  0  4.008441  0
C  C70  1  0.24769616  0.25411393  0.47555493  1  0.353533  0  0.002314  -0.027695  0  4.008503  0
C  C71  1  0.75230856  0.52444402  0.74588283  1  0.353585  0  0.002332  -0.027584  0  4.008181  0
C  C72  1  0.14069222  0.85924178  0.57925826  1  -0.052397  0  -0.092797  -0.133199  0  3.981468  0
C  C73  1  0.85930072  0.42074424  0.14075643  1  -0.052363  0  -0.092764  -0.13311  0  3.981436  0
C  C74  1  0.85931486  0.14075304  0.42073467  1  -0.052501  0  -0.092765  -0.133258  0  3.981391  0
C  C75  1  0.14068467  0.57926416  0.85924585  1  -0.052422  0  -0.092813  -0.133254  0  3.981512  0
C  C76  1  0.06880926  0.92891378  0.53960180  1  0.060501  0  -0.004396  0.014683  0  4.016135  0
C  C77  1  0.93118190  0.46040100  0.07108370  1  0.06053  0  -0.004471  0.014708  0  4.016129  0
C  C78  1  0.93119898  0.07108046  0.46039004  1  0.060662  0  -0.004505  0.014897  0  4.015943  0
C  C79  1  0.06880234  0.53960859  0.92891783  1  0.060551  0  -0.004449  0.014796  0  4.015957  0
C  C80  1  0.92654624  0.93010928  0.51405952  1  0.250696  0  0.092443  0.054241  0  3.964589  0
C  C81  1  0.07344819  0.48594074  0.06988843  1  0.250648  0  0.092547  0.05422  0  3.964515  0
C  C82  1  0.07346099  0.06988318  0.48593436  1  0.250481  0  0.092516  0.05414  0  3.964627  0
C  C83  1  0.92653632  0.51406473  0.93011375  1  0.250486  0  0.09253  0.054157  0  3.964592  0
C  C84  1  0.85467106  0.99850811  0.47507131  1  -0.000253  0  -0.005494  0.01488  0  4.015021  0
C  C85  1  0.14533164  0.52492603  0.00148932  1  -0.000175  0  -0.005628  0.014915  0  4.015003  0
C  C86  1  0.14534163  0.00148433  0.52492014  1  -0.000276  0  -0.005654  0.014911  0  4.015125  0
C  C87  1  0.85465487  0.47508178  0.99851304  1  -0.000309  0  -0.005619  0.014865  0  4.015187  0
C  C88  1  0.71010563  0.99936457  0.44947702  1  0.048414  0  -0.095842  -0.141025  0  3.99566  0
C  C89  1  0.28989894  0.55051962  0.00063384  1  0.048228  0  -0.095889  -0.140988  0  3.99573  0
C  C90  1  0.28990687  0.00063022  0.55051580  1  0.047712  0  -0.09587  -0.140973  0  3.995618  0
C  C91  1  0.71008999  0.44948465  0.99936786  1  0.047749  0  -0.095862  -0.140849  0  3.99551  0
C  C92  1  0.64585133  0.06757869  0.41033906  1  -0.105478  0  -0.084281  -0.061225  0  3.987181  0
C  C93  1  0.35414846  0.58965806  0.93241929  1  -0.105493  0  -0.084281  -0.061294  0  3.987271  0
C  C94  1  0.35415585  0.93241375  0.58965657  1  -0.105171  0  -0.08426  -0.061265  0  3.987213  0
C  C95  1  0.64584053  0.41034502  0.06758318  1  -0.105241  0  -0.084303  -0.061341  0  3.987169  0
C  C96  1  0.72111728  0.13883032  0.39585150  1  -0.046867  0  -0.08334  -0.055692  0  3.967583  0
C  C97  1  0.27888302  0.60414700  0.86116918  1  -0.04683  0  -0.083326  -0.055698  0  3.967722  0
C  C98  1  0.27888874  0.86116330  0.60414397  1  -0.046368  0  -0.083428  -0.055836  0  3.967674  0
C  C99  1  0.72110475  0.39585785  0.13883419  1  -0.04639  0  -0.083461  -0.055935  0  3.967705  0
C  C100  1  0.54471239  0.80671581  0.80671517  1  1.57638  0  0.187276  0.556292  0  4.242475  0
C  C101  1  0.45529543  0.19328068  0.19328794  1  1.576413  0  0.187352  0.556485  0  4.242238  0
C  C102  1  0.52702844  0.86353315  0.86353104  1  -0.037486  0  -0.021324  -0.028701  0  3.987975  0
C  C103  1  0.47297277  0.13646576  0.13647008  1  -0.037579  0  -0.021349  -0.028747  0  3.987777  0
C  C104  1  0.51997357  0.94501745  0.83649958  1  -0.035745  0  -0.087567  -0.091822  0  4.002589  0
C  C105  1  0.48003284  0.16349856  0.05498603  1  -0.036307  0  -0.08748  -0.091731  0  4.002404  0
C  C106  1  0.48002868  0.05498203  0.16350201  1  -0.035738  0  -0.087564  -0.091903  0  4.002608  0
C  C107  1  0.51996953  0.83649976  0.94501342  1  -0.036336  0  -0.087551  -0.091935  0  4.002595  0
C  C108  1  0.50901529  0.99786682  0.88951251  1  -0.046241  0  -0.094086  -0.13516  0  3.991291  0
C  C109  1  0.49100043  0.11048811  0.00213627  1  -0.045422  0  -0.094062  -0.135235  0  3.991306  0
C  C110  1  0.49099130  0.00213203  0.11049025  1  -0.045822  0  -0.094023  -0.135096  0  3.991348  0
C  C111  1  0.50900404  0.88951018  0.99786604  1  -0.045458  0  -0.093969  -0.135003  0  3.991188  0
C  C112  1  0.50454095  0.97174690  0.97174943  1  -0.059239  0  -0.004677  0.071843  0  3.979976  0
C  C113  1  0.49546689  0.02824960  0.02825310  1  -0.145675  0  -0.00468  0.071904  0  3.979893  0
N  N114  1  0.71870656  0.76457620  0.59835007  1  -1.215905  0  -0.35674  -0.283882  0  3.549126  0
N  N115  1  0.28129015  0.40165006  0.23542387  1  -1.215799  0  -0.356719  -0.283874  0  3.548912  0
N  N116  1  0.28128799  0.23542630  0.40164772  1  -1.215894  0  -0.35673  -0.28391  0  3.549009  0
N  N117  1  0.71871745  0.59835239  0.76457132  1  -1.216071  0  -0.356766  -0.283989  0  3.549039  0
N  N118  1  0.84983677  0.85865956  0.53101485  1  -1.260528  0  -0.230374  0.0073  0  3.848538  0
N  N119  1  0.15015896  0.46898810  0.14133895  1  -1.260288  0  -0.230455  0.007124  0  3.848523  0
N  N120  1  0.15016466  0.14133700  0.46898374  1  -1.260357  0  -0.230499  0.007104  0  3.848458  0
N  N121  1  0.84983335  0.53101499  0.85866054  1  -1.26071  0  -0.230438  0.00728  0  3.848377  0
O  O122  1  0.35549778  0.67315252  0.67315778  1  -1.151091  0  -0.335725  -0.551514  0  2.221743  0
O  O123  1  0.64450653  0.32684751  0.32684658  1  -1.151037  0  -0.335752  -0.551537  0  2.221524  0
O  O124  1  0.52565435  0.60786944  0.60787619  1  -1.175447  0  -0.338304  -0.564927  0  2.133631  0
O  O125  1  0.47435013  0.39212824  0.39212797  1  -1.175546  0  -0.338273  -0.564862  0  2.133608  0
O  O126  1  0.55303107  0.83363791  0.73278813  1  -1.179806  0  -0.338227  -0.573419  0  2.197145  0
O  O127  1  0.44697693  0.26720909  0.16636347  1  -1.179674  0  -0.338333  -0.573557  0  2.197102  0
O  O128  1  0.44697340  0.16636037  0.26721418  1  -1.179934  0  -0.338232  -0.5735  0  2.1972  0
O  O129  1  0.55302432  0.73278982  0.83363591  1  -1.179792  0  -0.338261  -0.573471  0  2.197317  0
