# generated using pymatgen
data_CdH5C6SN3Cl2
_symmetry_space_group_name_H-M   'P 1'
_cell_length_a   6.82061885
_cell_length_b   7.20966213
_cell_length_c   10.20834925
_cell_angle_alpha   74.04029280
_cell_angle_beta   73.24893413
_cell_angle_gamma   78.17061381
_symmetry_Int_Tables_number   1
_chemical_formula_structural   CdH5C6SN3Cl2
_chemical_formula_sum   'Cd2 H10 C12 S2 N6 Cl4'
_cell_volume   457.82828740
_cell_formula_units_Z   2
loop_
 _symmetry_equiv_pos_site_id
 _symmetry_equiv_pos_as_xyz
  1  'x, y, z'
loop_
 _atom_site_type_symbol
 _atom_site_label
 _atom_site_symmetry_multiplicity
 _atom_site_fract_x
 _atom_site_fract_y
 _atom_site_fract_z
 _atom_site_occupancy
 _atom_site_hle17_bader_spin_density
 _atom_site_hle17_ddec_charge
 _atom_site_hle17_ddec_spin_density
 _atom_site_hle17_ddec_sum_bond_order
 _atom_site_hle17_magmom
 _atom_site_hse06_10hf_bader_spin_density
 _atom_site_hse06_10hf_ddec_charge
 _atom_site_hse06_10hf_ddec_spin_density
 _atom_site_hse06_10hf_ddec_sum_bond_order
 _atom_site_hse06_10hf_magmom
 _atom_site_hse06_bader_spin_density
 _atom_site_hse06_ddec_charge
 _atom_site_hse06_ddec_spin_density
 _atom_site_hse06_ddec_sum_bond_order
 _atom_site_hse06_magmom
 _atom_site_pbe_bader_spin_density
 _atom_site_pbe_cm5_charge
 _atom_site_pbe_ddec_charge
 _atom_site_pbe_ddec_spin_density
 _atom_site_pbe_ddec_sum_bond_order
 _atom_site_pbe_magmom
Cd  Cd0  1  0.79353653  0.49135362  0.40800877  1  0  0.98235  0  1.880961  0  0  0.82355  0  2.333134  0  0  0.869412  0  2.293987  0  0  0.583814  0.79088  0  2.360761  0
Cd  Cd1  1  0.20646455  0.50864603  0.59199108  1  0  0.982391  0  1.880928  0  0  0.823595  0  2.333099  0  0  0.869455  0  2.293955  0  0  0.583831  0.790926  0  2.360732  0
H  H2  1  0.40882369  0.73692589  0.69602331  1  0  0.319787  0  0.880219  0  0  0.304614  0  0.94318  0  0  0.310411  0  0.939318  0  0  0.296714  0.300471  0  0.945969  0
H  H3  1  0.59117756  0.26307231  0.30398070  1  0  0.319769  0  0.88029  0  0  0.304571  0  0.943281  0  0  0.310367  0  0.939421  0  0  0.296715  0.300426  0  0.94607  0
H  H4  1  0.26506170  0.89622549  0.59409803  1  0  0.320346  0  0.884751  0  0  0.307683  0  0.943852  0  0  0.314072  0  0.939176  0  0  0.290654  0.303174  0  0.94712  0
H  H5  1  0.73494206  0.10377705  0.40590075  1  0  0.320314  0  0.884703  0  0  0.307654  0  0.943807  0  0  0.314042  0  0.939133  0  0  0.290631  0.303146  0  0.94707  0
H  H6  1  0.63677166  0.07260449  0.89958661  1  0  0.091407  0  0.970297  0  0  0.101885  0  1.033872  0  0  0.103969  0  1.033127  0  0  0.093822  0.100288  0  1.03464  0
H  H7  1  0.36322941  0.92739517  0.10041618  1  0  0.09146  0  0.970238  0  0  0.101906  0  1.033868  0  0  0.103992  0  1.033119  0  0  0.09382  0.100312  0  1.034637  0
H  H8  1  0.90891482  0.03088178  0.68967948  1  0  0.116231  0  0.97212  0  0  0.122119  0  1.042141  0  0  0.125605  0  1.040581  0  0  0.085801  0.119458  0  1.043809  0
H  H9  1  0.09108372  0.96912517  0.31032335  1  0  0.116301  0  0.971914  0  0  0.122178  0  1.041958  0  0  0.125667  0  1.0404  0  0  0.085826  0.119527  0  1.043628  0
H  H10  1  0.66000276  0.87586068  0.14004519  1  0  0.117988  0  0.984395  0  0  0.127137  0  1.046867  0  0  0.130852  0  1.044689  0  0  0.090672  0.124397  0  1.048719  0
H  H11  1  0.33999317  0.12413174  0.85995704  1  0  0.118012  0  0.984364  0  0  0.127192  0  1.046793  0  0  0.130919  0  1.0446  0  0  0.090678  0.124437  0  1.048662  0
C  C12  1  0.96418675  0.72872539  0.05892451  1  0  0.200783  0  3.810253  0  0  0.196913  0  4.054627  0  0  0.204228  0  4.075891  0  0  0.102197  0.191642  0  4.040645  0
C  C13  1  0.03581108  0.27127575  0.94107567  1  0  0.200705  0  3.810595  0  0  0.196826  0  4.054935  0  0  0.20414  0  4.076203  0  0  0.102149  0.191557  0  4.040951  0
C  C14  1  0.13121645  0.71269984  0.93649045  1  0  0.071304  0  3.787031  0  0  0.072622  0  4.03171  0  0  0.073038  0  4.052789  0  0  0.099851  0.072787  0  4.016872  0
C  C15  1  0.86877986  0.28730130  0.06350805  1  0  0.071279  0  3.787258  0  0  0.072691  0  4.031821  0  0  0.073108  0  4.052897  0  0  0.09987  0.072856  0  4.016984  0
C  C16  1  0.11069259  0.81832800  0.79977273  1  0  0.233838  0  3.791489  0  0  0.226388  0  4.04386  0  0  0.233632  0  4.065332  0  0  0.087151  0.221578  0  4.028961  0
C  C17  1  0.88931022  0.18167018  0.20022805  1  0  0.233827  0  3.791663  0  0  0.226318  0  4.044058  0  0  0.233561  0  4.065532  0  0  0.087111  0.221509  0  4.02916  0
C  C18  1  0.77155368  0.96572423  0.91369041  1  0  -0.022383  0  3.762495  0  0  -0.046414  0  4.031371  0  0  -0.043867  0  4.050969  0  0  -0.093358  -0.047862  0  4.01834  0
C  C19  1  0.22844488  0.03427109  0.08631762  1  0  -0.022412  0  3.762189  0  0  -0.046469  0  4.031124  0  0  -0.043921  0  4.050725  0  0  -0.093353  -0.047921  0  4.018097  0
C  C20  1  0.92976587  0.94429958  0.79163308  1  0  -0.172856  0  3.711992  0  0  -0.201578  0  3.98025  0  0  -0.208078  0  4.000944  0  0  -0.110005  -0.198092  0  3.967586  0
C  C21  1  0.07022793  0.05570885  0.20836350  1  0  -0.172961  0  3.712254  0  0  -0.20164  0  3.980538  0  0  -0.208147  0  4.001241  0  0  -0.110025  -0.198169  0  3.967864  0
C  C22  1  0.78259903  0.85985516  0.04686336  1  0  -0.17289  0  3.731851  0  0  -0.198762  0  3.996842  0  0  -0.205321  0  4.017183  0  0  -0.111382  -0.194727  0  3.983694  0
C  C23  1  0.21739766  0.14015470  0.95312946  1  0  -0.172883  0  3.731584  0  0  -0.198748  0  3.996553  0  0  -0.205315  0  4.016884  0  0  -0.111317  -0.194703  0  3.983419  0
S  S24  1  0.24999184  0.50411523  0.13396698  1  0  0.504704  0  3.062827  0  0  0.481424  0  3.460638  0  0  0.494351  0  3.466732  0  0  0.398472  0.471271  0  3.45857  0
S  S25  1  0.75001446  0.49588001  0.86602980  1  0  0.504703  0  3.062902  0  0  0.48142  0  3.460745  0  0  0.494346  0  3.46684  0  0  0.398505  0.471266  0  3.45868  0
N  N26  1  0.01242466  0.61107914  0.17773790  1  0  -0.448412  0  3.032463  0  0  -0.385926  0  3.319771  0  0  -0.403383  0  3.333037  0  0  -0.329185  -0.374319  0  3.311813  0
N  N27  1  0.98757991  0.38891756  0.82225892  1  0  -0.448381  0  3.032442  0  0  -0.385934  0  3.319786  0  0  -0.403389  0  3.333052  0  0  -0.329234  -0.374327  0  3.311834  0
N  N28  1  0.26348455  0.78240356  0.68028197  1  0  -0.63927  0  3.142768  0  0  -0.585561  0  3.37268  0  0  -0.606387  0  3.373445  0  0  -0.587245  -0.570213  0  3.371859  0
N  N29  1  0.73650983  0.21760051  0.31971633  1  0  -0.639184  0  3.142624  0  0  -0.585479  0  3.372627  0  0  -0.606304  0  3.373394  0  0  -0.587238  -0.57013  0  3.371804  0
N  N30  1  0.29993102  0.59240387  0.96647296  1  0  -0.371369  0  2.953682  0  0  -0.343344  0  3.24867  0  0  -0.351186  0  3.260258  0  0  -0.305294  -0.337234  0  3.241045  0
N  N31  1  0.70007316  0.40759574  0.03352239  1  0  -0.371329  0  2.953972  0  0  -0.343317  0  3.248925  0  0  -0.351157  0  3.26051  0  0  -0.305283  -0.337207  0  3.2413  0
Cl  Cl32  1  0.85791594  0.73320245  0.53704656  1  0  -0.564444  0  0.9878  0  0  -0.499674  0  1.268824  0  0  -0.518625  0  1.249136  0  0  -0.296779  -0.485595  0  1.283117  0
Cl  Cl33  1  0.14208227  0.26679577  0.46295509  1  0  -0.564434  0  0.987799  0  0  -0.499667  0  1.268824  0  0  -0.518612  0  1.249124  0  0  -0.296775  -0.485587  0  1.283114  0
Cl  Cl34  1  0.44724613  0.69273827  0.35830423  1  0  -0.567145  0  1.02667  0  0  -0.503085  0  1.311902  0  0  -0.522735  0  1.292042  0  0  -0.295905  -0.487911  0  1.326006  0
Cl  Cl35  1  0.55275533  0.30725848  0.64169905  1  0  -0.567145  0  1.026645  0  0  -0.503088  0  1.311867  0  0  -0.52274  0  1.292009  0  0  -0.295905  -0.487912  0  1.325965  0
