# generated using pymatgen
data_AgH6C4N3
_symmetry_space_group_name_H-M   'P 1'
_cell_length_a   7.09297668
_cell_length_b   8.11756146
_cell_length_c   9.58669062
_cell_angle_alpha   90.00018747
_cell_angle_beta   89.99972422
_cell_angle_gamma   90.00019695
_symmetry_Int_Tables_number   1
_chemical_formula_structural   AgH6C4N3
_chemical_formula_sum   'Ag4 H24 C16 N12'
_cell_volume   551.97934783
_cell_formula_units_Z   4
loop_
 _symmetry_equiv_pos_site_id
 _symmetry_equiv_pos_as_xyz
  1  'x, y, z'
loop_
 _atom_site_type_symbol
 _atom_site_label
 _atom_site_symmetry_multiplicity
 _atom_site_fract_x
 _atom_site_fract_y
 _atom_site_fract_z
 _atom_site_occupancy
 _atom_site_hle17_bader_spin_density
 _atom_site_hle17_ddec_charge
 _atom_site_hle17_ddec_spin_density
 _atom_site_hle17_ddec_sum_bond_order
 _atom_site_hle17_magmom
 _atom_site_hse06_10hf_bader_spin_density
 _atom_site_hse06_10hf_ddec_charge
 _atom_site_hse06_10hf_ddec_spin_density
 _atom_site_hse06_10hf_ddec_sum_bond_order
 _atom_site_hse06_10hf_magmom
 _atom_site_hse06_bader_spin_density
 _atom_site_hse06_ddec_charge
 _atom_site_hse06_ddec_spin_density
 _atom_site_hse06_ddec_sum_bond_order
 _atom_site_hse06_magmom
 _atom_site_pbe_bader_spin_density
 _atom_site_pbe_cm5_charge
 _atom_site_pbe_ddec_charge
 _atom_site_pbe_ddec_spin_density
 _atom_site_pbe_ddec_sum_bond_order
 _atom_site_pbe_magmom
Ag  Ag0  1  0.19897390  0.71704793  0.50200703  1  0  0.436297  0  1.598606  0  0  0.287272  0  2.06043  0  0  0.316026  0  2.015975  0  0  0.47779  0.267054  0  2.091445  0
Ag  Ag1  1  0.80102384  0.28295087  0.00200591  1  0  0.436275  0  1.598548  0  0  0.287247  0  2.060405  0  0  0.315998  0  2.015951  0  0  0.477788  0.267025  0  2.091436  0
Ag  Ag2  1  0.69896578  0.78295650  0.50200205  1  0  0.436265  0  1.598662  0  0  0.287237  0  2.060519  0  0  0.31599  0  2.016063  0  0  0.477756  0.267016  0  2.091526  0
Ag  Ag3  1  0.30103054  0.21704846  0.00200671  1  0  0.436282  0  1.598672  0  0  0.287261  0  2.060526  0  0  0.316011  0  2.016072  0  0  0.477788  0.267048  0  2.091558  0
H  H4  1  0.43377001  0.60215628  0.29486510  1  0  0.071942  0  0.970623  0  0  0.08283  0  1.047921  0  0  0.085365  0  1.045154  0  0  0.086177  0.080926  0  1.050278  0
H  H5  1  0.56623570  0.39784612  0.79486612  1  0  0.071951  0  0.970601  0  0  0.082847  0  1.047895  0  0  0.085377  0  1.045127  0  0  0.086177  0.080944  0  1.050248  0
H  H6  1  0.93377075  0.89785307  0.29487400  1  0  0.071929  0  0.970618  0  0  0.082816  0  1.047949  0  0  0.085344  0  1.045178  0  0  0.086144  0.080915  0  1.050307  0
H  H7  1  0.06622509  0.10214809  0.79487078  1  0  0.071929  0  0.970624  0  0  0.082797  0  1.047953  0  0  0.085326  0  1.045184  0  0  0.086162  0.0809  0  1.050313  0
H  H8  1  0.45197961  0.42469148  0.18781954  1  0  0.05784  0  0.98238  0  0  0.070127  0  1.063554  0  0  0.072272  0  1.060328  0  0  0.080789  0.068524  0  1.065962  0
H  H9  1  0.54802397  0.57531174  0.68781903  1  0  0.057904  0  0.982279  0  0  0.070192  0  1.06345  0  0  0.072334  0  1.060222  0  0  0.080805  0.068594  0  1.065848  0
H  H10  1  0.95198771  0.07531647  0.18782338  1  0  0.057873  0  0.982318  0  0  0.070183  0  1.063475  0  0  0.072321  0  1.060247  0  0  0.08082  0.068583  0  1.065888  0
H  H11  1  0.04800882  0.92468428  0.68782145  1  0  0.057878  0  0.9823  0  0  0.070169  0  1.063476  0  0  0.07231  0  1.060247  0  0  0.080823  0.068569  0  1.06589  0
H  H12  1  0.35426552  0.65685927  0.04001617  1  0  0.102378  0  0.959185  0  0  0.123761  0  1.019368  0  0  0.124848  0  1.020648  0  0  0.086647  0.122994  0  1.018374  0
H  H13  1  0.64574607  0.34314214  0.54001883  1  0  0.102285  0  0.959271  0  0  0.123743  0  1.019382  0  0  0.124831  0  1.020663  0  0  0.086641  0.122977  0  1.018381  0
H  H14  1  0.85425620  0.84314513  0.04002805  1  0  0.102318  0  0.95929  0  0  0.123794  0  1.019367  0  0  0.124881  0  1.020648  0  0  0.086672  0.123026  0  1.01837  0
H  H15  1  0.14574128  0.15685505  0.54002468  1  0  0.102335  0  0.959204  0  0  0.123806  0  1.019293  0  0  0.124893  0  1.020575  0  0  0.086677  0.123034  0  1.018303  0
H  H16  1  0.58937379  0.60542489  0.99424695  1  0  0.087802  0  0.961842  0  0  0.109083  0  1.029023  0  0  0.110403  0  1.028485  0  0  0.080411  0.107968  0  1.029662  0
H  H17  1  0.41063768  0.39457212  0.49424649  1  0  0.087819  0  0.961978  0  0  0.109125  0  1.029117  0  0  0.110447  0  1.02858  0  0  0.080408  0.108006  0  1.029764  0
H  H18  1  0.08936700  0.89456999  0.99425033  1  0  0.087786  0  0.961966  0  0  0.109089  0  1.029117  0  0  0.11041  0  1.028581  0  0  0.080356  0.107968  0  1.029769  0
H  H19  1  0.91063037  0.10542702  0.49424832  1  0  0.087804  0  0.961922  0  0  0.10911  0  1.029079  0  0  0.11043  0  1.028543  0  0  0.080401  0.107984  0  1.029733  0
H  H20  1  0.54413928  0.78114334  0.09973734  1  0  0.104123  0  0.960196  0  0  0.122567  0  1.023594  0  0  0.123691  0  1.025151  0  0  0.085588  0.121652  0  1.02258  0
H  H21  1  0.45587192  0.21885584  0.59973930  1  0  0.104132  0  0.960266  0  0  0.122578  0  1.023666  0  0  0.123703  0  1.025224  0  0  0.08558  0.121663  0  1.02265  0
H  H22  1  0.04412766  0.71885654  0.09974858  1  0  0.1041  0  0.960273  0  0  0.122558  0  1.023658  0  0  0.123684  0  1.025215  0  0  0.085595  0.121645  0  1.02264  0
H  H23  1  0.95586803  0.28114263  0.59974579  1  0  0.104116  0  0.960231  0  0  0.122569  0  1.023628  0  0  0.123695  0  1.025184  0  0  0.085587  0.121653  0  1.022609  0
H  H24  1  0.12685349  0.36714666  0.24477818  1  0  0.070116  0  0.972595  0  0  0.078878  0  1.046616  0  0  0.081055  0  1.043295  0  0  0.117951  0.0771  0  1.049224  0
H  H25  1  0.87315254  0.63284692  0.74477666  1  0  0.070247  0  0.972609  0  0  0.078992  0  1.046617  0  0  0.081169  0  1.043311  0  0  0.118025  0.077205  0  1.049235  0
H  H26  1  0.62685755  0.13286287  0.24478218  1  0  0.0701  0  0.972634  0  0  0.078842  0  1.046692  0  0  0.081029  0  1.043358  0  0  0.117924  0.077062  0  1.049293  0
H  H27  1  0.37314143  0.86714303  0.74477892  1  0  0.07018  0  0.972745  0  0  0.078916  0  1.046784  0  0  0.081093  0  1.043471  0  0  0.117968  0.077139  0  1.049391  0
C  C28  1  0.71239491  0.52045357  0.25579366  1  0  0.340384  0  3.727096  0  0  0.324214  0  3.974941  0  0  0.337332  0  3.995834  0  0  0.208072  0.315504  0  3.960389  0
C  C29  1  0.28760823  0.47954498  0.75579381  1  0  0.340367  0  3.727009  0  0  0.324241  0  3.974787  0  0  0.337356  0  3.995674  0  0  0.208046  0.315526  0  3.960249  0
C  C30  1  0.21239969  0.97954749  0.25579623  1  0  0.340415  0  3.727113  0  0  0.324252  0  3.974967  0  0  0.337364  0  3.99585  0  0  0.20811  0.315532  0  3.960445  0
C  C31  1  0.78759217  0.02045229  0.75579750  1  0  0.340337  0  3.727313  0  0  0.324172  0  3.975165  0  0  0.337284  0  3.996055  0  0  0.208071  0.315473  0  3.960614  0
C  C32  1  0.51473479  0.54649298  0.20911475  1  0  -0.150393  0  3.746269  0  0  -0.184922  0  3.990704  0  0  -0.18773  0  4.003334  0  0  -0.161256  -0.182879  0  3.981852  0
C  C33  1  0.48527006  0.45350785  0.70911412  1  0  -0.15041  0  3.745985  0  0  -0.185012  0  3.99058  0  0  -0.187803  0  4.00319  0  0  -0.161281  -0.182981  0  3.981745  0
C  C34  1  0.01473666  0.95351462  0.20912038  1  0  -0.150386  0  3.746059  0  0  -0.184984  0  3.990633  0  0  -0.187759  0  4.003221  0  0  -0.161273  -0.182925  0  3.981747  0
C  C35  1  0.98525973  0.04648622  0.70911892  1  0  -0.150353  0  3.746029  0  0  -0.184897  0  3.990555  0  0  -0.187683  0  4.003156  0  0  -0.161254  -0.182828  0  3.981609  0
C  C36  1  0.49984461  0.65419500  0.07829084  1  0  -0.269643  0  3.675741  0  0  -0.342129  0  3.915721  0  0  -0.344949  0  3.927022  0  0  -0.247756  -0.339586  0  3.907652  0
C  C37  1  0.50016391  0.34580656  0.57829299  1  0  -0.269606  0  3.676068  0  0  -0.342165  0  3.916022  0  0  -0.34499  0  3.927319  0  0  -0.247729  -0.339622  0  3.907951  0
C  C38  1  0.99983812  0.84580511  0.07829751  1  0  -0.26956  0  3.675932  0  0  -0.342133  0  3.915922  0  0  -0.344966  0  3.927213  0  0  -0.247701  -0.339591  0  3.907863  0
C  C39  1  0.00015771  0.15419275  0.57829571  1  0  -0.269619  0  3.675719  0  0  -0.342205  0  3.915725  0  0  -0.345032  0  3.927018  0  0  -0.247764  -0.339658  0  3.907675  0
C  C40  1  0.99779535  0.43428657  0.26692930  1  0  0.186725  0  3.765486  0  0  0.139782  0  4.026056  0  0  0.151046  0  4.042658  0  0  0.124521  0.132254  0  4.014942  0
C  C41  1  0.00219785  0.56571695  0.76692445  1  0  0.186688  0  3.765139  0  0  0.139776  0  4.025682  0  0  0.151035  0  4.042283  0  0  0.124463  0.132251  0  4.01456  0
C  C42  1  0.49779730  0.06571691  0.26693282  1  0  0.186793  0  3.765642  0  0  0.139867  0  4.02619  0  0  0.151127  0  4.042787  0  0  0.124589  0.132346  0  4.015066  0
C  C43  1  0.50218461  0.93427552  0.76692615  1  0  0.186716  0  3.765271  0  0  0.139812  0  4.025775  0  0  0.151073  0  4.042383  0  0  0.124457  0.132278  0  4.014653  0
N  N44  1  0.98086579  0.54523755  0.36788299  1  0  -0.278098  0  3.144943  0  0  -0.224549  0  3.431881  0  0  -0.237606  0  3.448108  0  0  -0.267482  -0.215443  0  3.420849  0
N  N45  1  0.01913662  0.45475897  0.86788612  1  0  -0.278123  0  3.144669  0  0  -0.224578  0  3.431614  0  0  -0.237631  0  3.447838  0  0  -0.267497  -0.21547  0  3.420582  0
N  N46  1  0.48086767  0.95476855  0.36788445  1  0  -0.278119  0  3.145051  0  0  -0.22457  0  3.431983  0  0  -0.237627  0  3.448215  0  0  -0.267484  -0.215454  0  3.420937  0
N  N47  1  0.51912770  0.04523782  0.86788779  1  0  -0.278112  0  3.14472  0  0  -0.224553  0  3.431666  0  0  -0.237611  0  3.447897  0  0  -0.267447  -0.215447  0  3.420641  0
N  N48  1  0.79753244  0.60048904  0.36077353  1  0  -0.306786  0  3.283216  0  0  -0.225374  0  3.571606  0  0  -0.245128  0  3.58952  0  0  -0.284982  -0.212022  0  3.559106  0
N  N49  1  0.20247143  0.39950992  0.86077481  1  0  -0.306823  0  3.283286  0  0  -0.225428  0  3.571673  0  0  -0.245181  0  3.589588  0  0  -0.284977  -0.21208  0  3.559189  0
N  N50  1  0.29753413  0.89951518  0.36077484  1  0  -0.306763  0  3.283223  0  0  -0.225345  0  3.571608  0  0  -0.245103  0  3.589528  0  0  -0.284987  -0.211996  0  3.559117  0
N  N51  1  0.70246128  0.10048501  0.86077455  1  0  -0.306686  0  3.283166  0  0  -0.225298  0  3.571584  0  0  -0.245052  0  3.589502  0  0  -0.284995  -0.211962  0  3.559097  0
N  N52  1  0.83470464  0.41384775  0.19440714  1  0  -0.452671  0  3.307236  0  0  -0.361534  0  3.592964  0  0  -0.386623  0  3.608053  0  0  -0.38646  -0.344041  0  3.581808  0
N  N53  1  0.16530312  0.58614933  0.69440594  1  0  -0.452731  0  3.307252  0  0  -0.361568  0  3.592915  0  0  -0.386658  0  3.608006  0  0  -0.386448  -0.344072  0  3.58175  0
N  N54  1  0.33470667  0.08615613  0.19441072  1  0  -0.452748  0  3.307308  0  0  -0.361609  0  3.593042  0  0  -0.38669  0  3.608115  0  0  -0.386531  -0.344119  0  3.581894  0
N  N55  1  0.66529405  0.91384711  0.69440758  1  0  -0.4528  0  3.307351  0  0  -0.361651  0  3.593064  0  0  -0.386732  0  3.60814  0  0  -0.386477  -0.344162  0  3.581893  0
