# generated using pymatgen
data_NdCuH11C15(NO6)2
_symmetry_space_group_name_H-M   'P 1'
_cell_length_a   8.15886512
_cell_length_b   9.65785839
_cell_length_c   14.35337243
_cell_angle_alpha   79.72399605
_cell_angle_beta   71.76421538
_cell_angle_gamma   65.26181099
_symmetry_Int_Tables_number   1
_chemical_formula_structural   NdCuH11C15(NO6)2
_chemical_formula_sum   'Nd2 Cu2 H22 C30 N4 O24'
_cell_volume   974.14580930
_cell_formula_units_Z   2
loop_
 _symmetry_equiv_pos_site_id
 _symmetry_equiv_pos_as_xyz
  1  'x, y, z'
loop_
 _atom_site_type_symbol
 _atom_site_label
 _atom_site_symmetry_multiplicity
 _atom_site_fract_x
 _atom_site_fract_y
 _atom_site_fract_z
 _atom_site_occupancy
 _atom_site_hle17_ddec_charge
 _atom_site_hle17_ddec_spin_density
 _atom_site_hle17_ddec_sum_bond_order
 _atom_site_hle17_magmom
 _atom_site_hse06_10hf_ddec_charge
 _atom_site_hse06_10hf_ddec_spin_density
 _atom_site_hse06_10hf_ddec_sum_bond_order
 _atom_site_hse06_10hf_magmom
 _atom_site_hse06_ddec_charge
 _atom_site_hse06_ddec_spin_density
 _atom_site_hse06_ddec_sum_bond_order
 _atom_site_hse06_magmom
 _atom_site_pbe_cm5_charge
 _atom_site_pbe_ddec_charge
 _atom_site_pbe_ddec_spin_density
 _atom_site_pbe_ddec_sum_bond_order
 _atom_site_pbe_magmom
Nd  Nd0  1  0.89085989  0.81859911  0.37571842  1  2.249254  0.001056  1.627056  0.001  2.07591  0.001299  2.105558  0.002  2.18044  0.000638  1.944887  0.001  1.453244  2.043008  0.002016  2.138684  0.002
Nd  Nd1  1  0.10913992  0.18140281  0.62427890  1  2.249247  -0.001025  1.627137  -0.001  2.075931  -0.001281  2.105589  -0.002  2.180424  -0.000652  1.944969  -0.001  1.453421  2.043035  -0.002015  2.138702  -0.002
Cu  Cu2  1  0.56773492  0.61908525  0.05610407  1  0.815789  0.739372  1.917108  0.514  0.781883  0.812984  2.337155  0.621  0.870007  0.88714  2.263737  0.704  0.751101  0.728121  0.7589  2.389077  0.566
Cu  Cu3  1  0.43226054  0.38091774  0.94389740  1  0.815886  -0.739398  1.917188  -0.514  0.78189  -0.812991  2.337292  -0.621  0.87006  -0.887123  2.263811  -0.704  0.751111  0.728153  -0.758907  2.389204  -0.566
H  H4  1  0.60009024  0.71135443  0.47107870  1  0.446733  1e-06  0.822754  0.0  0.424155  1e-06  0.873765  0.0  0.433624  1e-06  0.860154  0.0  0.324814  0.41719  -0.0  0.883944  0.0
H  H5  1  0.39990425  0.28864506  0.52892610  1  0.446656  -2e-06  0.822711  0.0  0.424092  -1e-06  0.873809  0.0  0.433559  -1e-06  0.860203  0.0  0.324805  0.417126  0.0  0.88399  0.0
H  H6  1  0.44255958  0.88129913  0.46777681  1  0.44481  -0.0  0.849829  0.0  0.413881  -1e-06  0.911884  0.0  0.426034  -0.0  0.894213  0.0  0.308397  0.405464  -2e-06  0.924201  0.0
H  H7  1  0.55743587  0.11869822  0.53222456  1  0.444925  1e-06  0.849687  0.0  0.414003  1e-06  0.911736  0.0  0.42616  0.0  0.894056  0.0  0.308412  0.405592  2e-06  0.924048  0.0
H  H8  1  0.30682482  0.68413990  0.84391754  1  0.105696  -0.001596  0.935651  -0.003  0.114303  -0.001252  0.994668  -0.002  0.118112  -0.000888  0.990337  -0.002  0.126482  0.111499  -0.001555  0.997575  -0.003
H  H9  1  0.69316273  0.31586344  0.15607973  1  0.105706  0.001597  0.935665  0.003  0.114316  0.001252  0.994671  0.002  0.118125  0.000888  0.990339  0.002  0.12649  0.111513  0.001555  0.99758  0.003
H  H10  1  0.02102074  0.93137229  0.88164758  1  0.129905  -0.000532  0.988447  -0.001  0.138032  -0.000511  1.045459  -0.001  0.143002  -0.00037  1.042727  0.0  0.114245  0.134483  -0.000622  1.04751  -0.001
H  H11  1  0.97896348  0.06861854  0.11835369  1  0.129846  0.000533  0.988365  0.001  0.138038  0.000511  1.045327  0.001  0.142962  0.00037  1.042658  0.0  0.114257  0.134488  0.000623  1.047373  0.001
H  H12  1  0.49225815  0.09377948  0.07367815  1  0.084901  -0.001482  0.943029  -0.002  0.093933  -0.001237  1.005406  -0.002  0.096049  -0.000908  1.003133  -0.002  0.119981  0.092078  -0.001495  1.007528  -0.002
H  H13  1  0.50774172  0.90621944  0.92630972  1  0.084909  0.001484  0.943026  0.002  0.093957  0.001237  1.005377  0.002  0.09607  0.000908  1.003109  0.002  0.119991  0.092104  0.001495  1.007498  0.002
H  H14  1  0.91408041  0.48568186  0.25351282  1  0.131457  -0.000758  0.954764  -0.001  0.140462  -0.000613  1.012042  -0.001  0.14412  -0.000431  1.010196  -0.001  0.122027  0.137658  -0.000759  1.013618  -0.001
H  H15  1  0.08593698  0.51431270  0.74648981  1  0.131465  0.000758  0.95468  0.001  0.140404  0.000613  1.01206  0.001  0.144069  0.000431  1.010182  0.001  0.122044  0.137603  0.000759  1.013633  0.001
H  H16  1  0.32200089  0.02382736  0.24350139  1  0.128502  -0.000532  0.933103  -0.001  0.136562  -0.000489  0.991133  -0.001  0.141017  -0.000355  0.988109  0.0  0.118131  0.133077  -0.000595  0.993827  -0.001
H  H17  1  0.67800871  0.97617572  0.75648989  1  0.128505  0.000537  0.933102  0.001  0.136534  0.000489  0.991167  0.001  0.140999  0.000355  0.988128  0.0  0.118122  0.133056  0.000595  0.993861  0.001
H  H18  1  0.03002540  0.23138302  0.33397829  1  0.11469  -0.000245  0.939287  0.0  0.124209  9e-06  0.995529  0.0  0.127581  2.3e-05  0.992456  0.0  0.119546  0.121772  -1.6e-05  0.997665  0.0
H  H19  1  0.96999583  0.76861725  0.66602027  1  0.114677  0.000245  0.939222  0.0  0.124193  -9e-06  0.995478  0.0  0.127565  -2.3e-05  0.992405  0.0  0.119524  0.121757  1.6e-05  0.997616  0.0
H  H20  1  0.78442460  0.94295997  0.04181944  1  0.097329  -0.000359  0.944048  -0.001  0.108738  -8.4e-05  1.005378  0.0  0.112047  -2.5e-05  1.002245  0.0  0.109531  0.106144  -0.000161  1.008317  0.0
H  H21  1  0.21556432  0.05703754  0.95818168  1  0.09739  0.00036  0.944015  0.001  0.108774  8.4e-05  1.005367  0.0  0.112086  2.5e-05  1.002228  0.0  0.109549  0.10618  0.000161  1.008306  0.0
H  H22  1  0.57925534  0.06418497  0.29351083  1  0.430483  -2.9e-05  0.830941  0.0  0.408188  -1.2e-05  0.891419  0.0  0.416167  -1.5e-05  0.880073  0.0  0.32258  0.402711  -9e-06  0.899352  0.0
H  H23  1  0.42074002  0.93582388  0.70648516  1  0.430355  2.8e-05  0.83103  0.0  0.408042  1.2e-05  0.891613  0.0  0.416021  1.6e-05  0.880267  0.0  0.32254  0.402565  9e-06  0.89955  0.0
H  H24  1  0.55265117  0.13387788  0.39117673  1  0.442819  -4e-06  0.845958  0.0  0.41553  -2e-06  0.901924  0.0  0.426816  -2e-06  0.885481  0.0  0.304963  0.407727  -2e-06  0.91338  0.0
H  H25  1  0.44735232  0.86613297  0.60882109  1  0.442807  3e-06  0.845998  0.0  0.415518  3e-06  0.901962  0.0  0.426805  2e-06  0.885519  0.0  0.304965  0.407716  2e-06  0.913417  0.0
C  C26  1  0.04677101  0.53011729  0.52706767  1  0.581227  -2e-05  3.904021  0.0  0.538047  0.0  4.202069  0.0  0.568689  -3e-06  4.1967  0.0  0.221866  0.516946  5e-06  4.208941  0.0
C  C27  1  0.95324486  0.46986363  0.47293805  1  0.581289  2e-05  3.904115  0.0  0.538045  1e-06  4.202238  0.0  0.568688  3e-06  4.196867  0.0  0.221819  0.51694  -5e-06  4.209112  0.0
C  C28  1  0.08988632  0.57597049  0.06262750  1  0.145663  0.003167  3.71394  0.004  0.132111  -0.000752  3.965443  0.0  0.140114  0.000403  3.987244  0.002  0.116714  0.126561  -0.001605  3.952257  -0.001
C  C29  1  0.91010340  0.42403378  0.93737347  1  0.145806  -0.003176  3.713818  -0.004  0.132196  0.000752  3.965433  0.0  0.1402  -0.000407  3.987234  -0.002  0.116742  0.12663  0.001605  3.95227  0.001
C  C30  1  0.14072543  0.42788412  0.11968890  1  0.17834  0.003024  3.735998  0.003  0.17797  -0.000356  3.980652  0.0  0.185382  0.00057  4.002618  0.001  0.118666  0.173102  -0.001004  3.966575  -0.001
C  C31  1  0.85927724  0.57211436  0.88030828  1  0.178219  -0.003016  3.736147  -0.003  0.177854  0.000355  3.980878  0.0  0.185265  -0.000565  4.002849  -0.001  0.118602  0.172987  0.001005  3.966807  0.001
C  C32  1  0.28452133  0.62694768  0.21752459  1  0.544319  -0.004807  3.917306  -0.007  0.504141  -0.000359  4.216938  -0.002  0.536845  -0.000419  4.212751  -0.002  0.207893  0.481186  -0.000316  4.222129  -0.002
C  C33  1  0.71548654  0.37304505  0.78247226  1  0.544617  0.004806  3.917552  0.007  0.504452  0.000359  4.216987  0.002  0.537167  0.000421  4.212778  0.002  0.208006  0.481489  0.000316  4.222216  0.002
C  C34  1  0.22585771  0.78878898  0.16700311  1  0.541054  -0.003857  3.900114  -0.005  0.499282  -0.00017  4.200128  -0.001  0.531141  -0.000249  4.197251  -0.001  0.209916  0.476601  -0.00017  4.204653  -0.002
C  C35  1  0.77415658  0.21119816  0.83298900  1  0.541049  0.003858  3.900394  0.005  0.499375  0.000173  4.200212  0.001  0.53123  0.000249  4.197339  0.001  0.209965  0.4767  0.000172  4.204753  0.002
C  C36  1  0.19638675  0.69777147  0.91235035  1  0.140317  0.007857  3.673986  0.009  0.107156  0.001178  3.935197  0.003  0.118005  0.002342  3.950613  0.004  0.054167  0.100347  0.000265  3.924761  0.002
C  C37  1  0.80360760  0.30222263  0.08764807  1  0.140177  -0.007864  3.673898  -0.009  0.107044  -0.001177  3.935112  -0.003  0.117899  -0.00234  3.95051  -0.004  0.054091  0.100228  -0.000263  3.924669  -0.002
C  C38  1  0.04027569  0.83315289  0.93429137  1  -0.096017  -0.011067  3.687958  -0.012  -0.107726  -0.004979  3.937037  -0.006  -0.113915  -0.004369  3.95385  -0.005  -0.075205  -0.103142  -0.005441  3.926121  -0.006
C  C39  1  0.95972800  0.16684337  0.06570446  1  -0.09586  0.011072  3.687925  0.012  -0.107644  0.004979  3.937  0.006  -0.113802  0.00437  3.953842  0.005  -0.075198  -0.103054  0.005442  3.926071  0.006
C  C40  1  0.36403650  0.17652499  0.11679820  1  0.133146  0.006737  3.698404  0.008  0.104983  0.001047  3.954887  0.002  0.114274  0.002022  3.973165  0.004  0.051978  0.099199  0.000311  3.943012  0.002
C  C41  1  0.63596923  0.82347809  0.88319516  1  0.132956  -0.006737  3.698394  -0.008  0.104784  -0.001044  3.954916  -0.002  0.114077  -0.002024  3.973196  -0.004  0.051802  0.099004  -0.00031  3.943045  -0.002
C  C42  1  0.04056232  0.39779812  0.21394584  1  -0.109502  -0.005883  3.631007  -0.006  -0.129947  -0.002449  3.874137  -0.002  -0.135424  -0.002301  3.891429  -0.002  -0.062803  -0.1263  -0.002589  3.862986  -0.003
C  C43  1  0.95944589  0.60220805  0.78605372  1  -0.109407  0.005875  3.631019  0.006  -0.129791  0.002452  3.874156  0.002  -0.135259  0.002297  3.891454  0.002  -0.062757  -0.126139  0.002589  3.863008  0.003
C  C44  1  0.27025057  0.13932111  0.21054895  1  -0.107698  -0.009117  3.690037  -0.01  -0.120251  -0.004203  3.93851  -0.005  -0.125859  -0.003752  3.955095  -0.004  -0.071766  -0.116669  -0.004515  3.927822  -0.005
C  C45  1  0.72974732  0.86068218  0.78944370  1  -0.107621  0.0091  3.689995  0.01  -0.120138  0.004202  3.938453  0.005  -0.125755  0.003754  3.955033  0.004  -0.071714  -0.116561  0.004514  3.927776  0.005
C  C46  1  0.10663387  0.25281233  0.25965004  1  0.035563  0.008081  3.638992  0.007  0.018963  0.002966  3.88324  0.003  0.025516  0.003109  3.8959  0.003  -0.045595  0.014095  0.002861  3.875054  0.003
C  C47  1  0.89337401  0.74718605  0.74034691  1  0.035524  -0.008072  3.639027  -0.007  0.018929  -0.002967  3.883245  -0.003  0.025482  -0.003107  3.895908  -0.003  -0.045563  0.014059  -0.00286  3.875069  -0.003
C  C48  1  0.92827097  0.70923678  0.08920803  1  -0.108579  -0.007398  3.658355  -0.007  -0.092232  -0.003026  3.899393  -0.003  -0.100786  -0.002756  3.917745  -0.003  0.00462  -0.088117  -0.003305  3.888798  -0.003
C  C49  1  0.07172907  0.29076747  0.91078761  1  -0.10869  0.007405  3.658203  0.007  -0.092292  0.003025  3.899251  0.003  -0.100841  0.002761  3.917608  0.003  0.004577  -0.08818  0.003305  3.888672  0.003
C  C50  1  0.76592012  0.72836045  0.18050660  1  0.693827  -0.001219  3.935292  -0.001  0.647026  -0.001058  4.235592  -0.001  0.683175  -0.000744  4.225882  -0.001  0.218052  0.6235  -0.00134  4.240638  -0.002
C  C51  1  0.23407754  0.27162922  0.81948821  1  0.693753  0.001218  3.935385  0.001  0.646865  0.001059  4.23583  0.001  0.683  0.000745  4.226149  0.001  0.218026  0.623346  0.00134  4.24088  0.002
C  C52  1  0.90766649  0.83774840  0.02335669  1  -0.006544  0.008832  3.672978  0.008  -0.036821  0.002988  3.925954  0.003  -0.03091  0.0032  3.940008  0.003  -0.060256  -0.041601  0.002785  3.918574  0.003
C  C53  1  0.09233031  0.16226582  0.97664546  1  -0.006582  -0.008837  3.673328  -0.008  -0.03682  -0.002985  3.926294  -0.003  -0.030911  -0.003201  3.940345  -0.003  -0.060213  -0.041595  -0.002783  3.918908  -0.003
C  C54  1  0.10075310  0.97213004  0.46516538  1  0.569922  5e-06  3.916765  0.0  0.523956  7e-06  4.218377  0.0  0.553735  4e-06  4.214033  0.0  0.225094  0.50384  1.7e-05  4.223817  0.0
C  C55  1  0.89924247  0.02787565  0.53485322  1  0.570187  -5e-06  3.916305  0.0  0.524117  -6e-06  4.218075  0.0  0.553861  -1e-06  4.21377  0.0  0.225124  0.503978  -1.7e-05  4.223548  0.0
N  N56  1  0.21879833  0.57561511  0.97526616  1  -0.333447  -0.094115  3.38921  -0.115  -0.298959  -0.065578  3.712348  -0.085  -0.330261  -0.055003  3.731757  -0.075  -0.355273  -0.280362  -0.070956  3.701917  -0.089
N  N57  1  0.78119946  0.42437993  0.02473504  1  -0.333503  0.094128  3.389225  0.115  -0.299004  0.065577  3.71233  0.085  -0.330298  0.055  3.731732  0.075  -0.355251  -0.280395  0.070955  3.701894  0.089
N  N58  1  0.30167155  0.31634542  0.07328942  1  -0.338968  -0.081343  3.365445  -0.1  -0.298129  -0.057087  3.66916  -0.075  -0.328744  -0.048373  3.689779  -0.066  -0.352475  -0.280121  -0.061437  3.657666  -0.077
N  N59  1  0.69833847  0.68365962  0.92670924  1  -0.338743  0.08135  3.365238  0.1  -0.297945  0.057091  3.668991  0.075  -0.328555  0.048375  3.689614  0.066  -0.352306  -0.279926  0.061438  3.657486  0.077
O  O60  1  0.01668867  0.67054182  0.51409947  1  -0.660595  5.3e-05  2.046055  0.0  -0.614903  1.5e-05  2.288519  0.0  -0.645749  -1e-06  2.277511  0.0  -0.37236  -0.597809  3e-05  2.293712  0.0
O  O61  1  0.98330843  0.32946327  0.48590497  1  -0.660533  -5.3e-05  2.046693  0.0  -0.614826  -1.6e-05  2.289187  0.0  -0.645661  1e-06  2.278179  0.0  -0.37235  -0.597737  -3e-05  2.29438  0.0
O  O62  1  0.33182212  0.80650963  0.08232437  1  -0.551883  0.0759  2.040531  0.098  -0.526042  0.051214  2.316452  0.072  -0.566414  0.039711  2.311144  0.059  -0.318922  -0.498391  0.05897  2.320577  0.08
O  O63  1  0.66817589  0.19348776  0.91767444  1  -0.551914  -0.075924  2.040519  -0.098  -0.526119  -0.05123  2.316401  -0.072  -0.56651  -0.03972  2.311095  -0.059  -0.318894  -0.498466  -0.058984  2.320528  -0.08
O  O64  1  0.42882072  0.52356281  0.16823715  1  -0.53153  0.089328  2.092916  0.115  -0.509522  0.058379  2.371772  0.082  -0.550175  0.044731  2.363892  0.066  -0.309135  -0.481929  0.067414  2.377057  0.091
O  O65  1  0.57117881  0.47643981  0.83177130  1  -0.531794  -0.089354  2.09283  -0.115  -0.509688  -0.058391  2.371578  -0.082  -0.550357  -0.044739  2.363677  -0.066  -0.30919  -0.482094  -0.06742  2.376889  -0.091
O  O66  1  0.18391546  0.60603948  0.30035665  1  -0.618976  0.012179  2.049018  0.015  -0.575767  0.006588  2.284297  0.009  -0.607367  0.003257  2.274999  0.005  -0.353155  -0.557675  0.010207  2.288416  0.013
O  O67  1  0.81607303  0.39395900  0.69964863  1  -0.619049  -0.012166  2.049483  -0.015  -0.575885  -0.006584  2.28474  -0.009  -0.60748  -0.003256  2.275425  -0.005  -0.353188  -0.557793  -0.010199  2.28888  -0.013
O  O68  1  0.56507689  0.81784906  0.48412070  1  -0.894585  -3.7e-05  1.860728  0.0  -0.838047  -2.1e-05  2.034829  0.0  -0.864517  -1.1e-05  1.997645  0.0  -0.594257  -0.823807  -3.4e-05  2.058139  0.0
O  O69  1  0.43491191  0.18214593  0.51588698  1  -0.894624  3.7e-05  1.860587  0.0  -0.838104  2.1e-05  2.03477  0.0  -0.864569  1e-05  1.997591  0.0  -0.594274  -0.823864  3.4e-05  2.058073  0.0
O  O70  1  0.64802981  0.07814929  0.33318248  1  -0.872641  7e-05  1.788715  0.0  -0.823736  5.6e-05  1.953843  0.0  -0.847737  2.3e-05  1.918778  0.0  -0.616282  -0.811772  0.000108  1.974409  0.0
O  O71  1  0.35196788  0.92185729  0.66681265  1  -0.872473  -7e-05  1.788805  0.0  -0.823552  -5.7e-05  1.953957  0.0  -0.847551  -2.2e-05  1.918897  0.0  -0.616231  -0.811587  -0.000108  1.974517  0.0
O  O72  1  0.76552788  0.78861732  0.25251324  1  -0.750843  -0.001494  2.03254  -0.002  -0.693836  -0.000646  2.287584  -0.001  -0.728116  -0.000398  2.270857  -0.001  -0.409261  -0.675128  -0.000982  2.294947  -0.001
O  O73  1  0.23447560  0.21138223  0.74748507  1  -0.750797  0.001494  2.032953  0.002  -0.693759  0.000646  2.288032  0.001  -0.728022  0.000396  2.271304  0.001  -0.409286  -0.675052  0.000982  2.295397  0.001
O  O74  1  0.07639394  0.88970705  0.21069107  1  -0.619959  0.011  2.088704  0.014  -0.574037  0.006094  2.329414  0.008  -0.606183  0.00294  2.322492  0.004  -0.337293  -0.555269  0.009536  2.332988  0.012
O  O75  1  0.92361295  0.11028786  0.78930852  1  -0.620031  -0.010984  2.089004  -0.014  -0.574158  -0.006089  2.329691  -0.008  -0.606312  -0.002938  2.322782  -0.004  -0.337352  -0.555388  -0.009526  2.333258  -0.012
O  O76  1  0.63648272  0.69412853  0.17589822  1  -0.600649  -0.003306  1.981171  -0.003  -0.560974  -0.001402  2.226289  -0.001  -0.591844  -0.001244  2.214019  -0.001  -0.311834  -0.538917  -0.001681  2.233099  -0.001
O  O77  1  0.36352653  0.30585838  0.82410249  1  -0.600612  0.003309  1.980818  0.003  -0.560908  0.001401  2.225996  0.001  -0.591792  0.001246  2.213737  0.001  -0.311805  -0.538849  0.001681  2.232806  0.001
O  O78  1  0.14555754  0.43330026  0.58050421  1  -0.673737  0.00011  2.051463  0.0  -0.622756  8.4e-05  2.287722  0.0  -0.651733  5.2e-05  2.274655  0.0  -0.367211  -0.606213  0.000118  2.295162  0.0
O  O79  1  0.85443953  0.56669922  0.41949943  1  -0.673842  -0.000112  2.050925  0.0  -0.622846  -8.4e-05  2.287208  0.0  -0.651829  -5.3e-05  2.274141  0.0  -0.367196  -0.606298  -0.000118  2.294649  0.0
O  O80  1  0.13165816  0.90476312  0.39068983  1  -0.626572  -4.9e-05  2.040562  0.0  -0.583533  -5.9e-05  2.28211  0.0  -0.61172  -4.4e-05  2.271094  0.0  -0.350161  -0.568865  -5.4e-05  2.287938  0.0
O  O81  1  0.86835010  0.09523729  0.60931242  1  -0.626559  4.9e-05  2.041027  0.0  -0.583482  5.8e-05  2.282636  0.0  -0.611654  4e-05  2.271652  0.0  -0.350135  -0.568814  5.4e-05  2.288481  0.0
O  O82  1  0.22026053  0.00104175  0.48986440  1  -0.683058  7e-06  2.080868  0.0  -0.622201  9e-06  2.31633  0.0  -0.654427  7e-06  2.304577  0.0  -0.360885  -0.604251  1.1e-05  2.322611  0.0
O  O83  1  0.77970705  0.99897150  0.51015002  1  -0.683278  -8e-06  2.080047  0.0  -0.622396  -1e-05  2.315557  0.0  -0.654625  -9e-06  2.303817  0.0  -0.360959  -0.604432  -1.1e-05  2.321854  0.0
