# generated using pymatgen
data_AgH20C25N2ClO6
_symmetry_space_group_name_H-M   'P 1'
_cell_length_a   10.03552446
_cell_length_b   13.93850470
_cell_length_c   14.93532077
_cell_angle_alpha   66.72229245
_cell_angle_beta   88.64903554
_cell_angle_gamma   71.54874011
_symmetry_Int_Tables_number   1
_chemical_formula_structural   AgH20C25N2ClO6
_chemical_formula_sum   'Ag2 H40 C50 N4 Cl2 O12'
_cell_volume   1808.05216404
_cell_formula_units_Z   2
loop_
 _symmetry_equiv_pos_site_id
 _symmetry_equiv_pos_as_xyz
  1  'x, y, z'
loop_
 _atom_site_type_symbol
 _atom_site_label
 _atom_site_symmetry_multiplicity
 _atom_site_fract_x
 _atom_site_fract_y
 _atom_site_fract_z
 _atom_site_occupancy
 _atom_site_pbe_bader_charge
 _atom_site_pbe_bader_spin_density
 _atom_site_pbe_cm5_charge
 _atom_site_pbe_ddec_charge
 _atom_site_pbe_ddec_spin_density
 _atom_site_pbe_ddec_sum_bond_order
 _atom_site_pbe_magmom
Ag  Ag0  1  0.14715955  0.92083736  0.63210917  1  0.740019  0  0.559045  0.57853  0  1.959218  0
Ag  Ag1  1  0.85285026  0.07915774  0.36789360  1  0.740011  0  0.559084  0.578622  0  1.959215  0
H  H2  1  0.40117551  0.47116808  0.25881133  1  0.073242  0  0.102548  0.105582  0  1.044925  0
H  H3  1  0.59883165  0.52882377  0.74119406  1  0.073242  0  0.102574  0.105546  0  1.044927  0
H  H4  1  0.58229520  0.68013476  0.02988879  1  0.081901  0  0.1029  0.104698  0  1.031794  0
H  H5  1  0.41768541  0.31987063  0.97010275  1  0.082484  0  0.102954  0.104752  0  1.031825  0
H  H6  1  0.56670599  0.30949309  0.36942323  1  0.113332  0  0.113378  0.12741  0  0.989018  0
H  H7  1  0.43331496  0.69050435  0.63058576  1  0.113291  0  0.113421  0.127499  0  0.988895  0
H  H8  1  0.45286495  0.20602500  0.50446888  1  0.127387  0  0.117145  0.135122  0  0.986331  0
H  H9  1  0.54716100  0.79396741  0.49553988  1  0.127568  0  0.117146  0.135103  0  0.986247  0
H  H10  1  0.31330460  0.07671927  0.31797077  1  0.13881  0  0.110924  0.129555  0  1.0111  0
H  H11  1  0.68670029  0.92329324  0.68203225  1  0.138753  0  0.11085  0.129342  0  1.011169  0
H  H12  1  0.42993662  0.18190243  0.18162249  1  0.068051  0  0.110841  0.117004  0  0.98448  0
H  H13  1  0.57006089  0.81811101  0.81837835  1  0.067707  0  0.110849  0.11705  0  0.984693  0
H  H14  1  0.81578656  0.61528256  0.06141864  1  0.098693  0  0.110194  0.112399  0  0.999019  0
H  H15  1  0.18420871  0.38471845  0.93857086  1  0.099017  0  0.110169  0.112349  0  0.999013  0
H  H16  1  0.95150611  0.73009477  0.95668665  1  0.11714  0  0.120191  0.129194  0  0.969331  0
H  H17  1  0.04848721  0.26990383  0.04330715  1  0.116923  0  0.120152  0.129166  0  0.969272  0
H  H18  1  0.93312013  0.59950757  0.74056143  1  0.091825  0  0.119909  0.127007  0  0.964853  0
H  H19  1  0.06687219  0.40049846  0.25943027  1  0.091969  0  0.119893  0.1269  0  0.964922  0
H  H20  1  0.79981391  0.48209939  0.84842949  1  0.122591  0  0.109346  0.111243  0  1.029436  0
H  H21  1  0.20018275  0.51790327  0.15156270  1  0.122898  0  0.109408  0.111365  0  1.029387  0
H  H22  1  0.38105076  0.82698726  0.02112277  1  -0.016352  0  0.082159  0.114463  0  1.013718  0
H  H23  1  0.61894298  0.17301055  0.97887735  1  -0.016323  0  0.082168  0.11449  0  1.01387  0
H  H24  1  0.24614057  0.87746018  0.08648080  1  0.044537  0  0.088639  0.122243  0  0.997508  0
H  H25  1  0.75384684  0.12253857  0.91352112  1  0.045131  0  0.08864  0.122203  0  0.997594  0
H  H26  1  0.23073949  0.78332670  0.03752831  1  0.022442  0  0.086092  0.126233  0  1.01213  0
H  H27  1  0.76925155  0.21666786  0.96247243  1  0.022651  0  0.08607  0.126258  0  1.012156  0
H  H28  1  0.53640050  0.67253568  0.28885847  1  0.014068  0  0.084674  0.117807  0  1.000602  0
H  H29  1  0.46359257  0.32745885  0.71114356  1  0.014011  0  0.084667  0.117762  0  1.000693  0
H  H30  1  0.42045395  0.81200774  0.23582904  1  0.054212  0  0.087246  0.133855  0  1.010559  0
H  H31  1  0.57953681  0.18798767  0.76417473  1  0.054367  0  0.08726  0.133832  0  1.010624  0
H  H32  1  0.55977383  0.76387231  0.17112509  1  -0.008324  0  0.078568  0.105637  0  1.015401  0
H  H33  1  0.44021760  0.23612638  0.82887743  1  -0.008493  0  0.078529  0.105578  0  1.015535  0
H  H34  1  0.19380782  0.65549053  0.20530654  1  -0.012914  0  0.079024  0.105929  0  1.020297  0
H  H35  1  0.80618394  0.34450486  0.79469654  1  -0.012807  0  0.07902  0.10592  0  1.020298  0
H  H36  1  0.20510959  0.75246350  0.25187968  1  0.065171  0  0.089496  0.14343  0  1.017143  0
H  H37  1  0.79488453  0.24753351  0.74812474  1  0.065133  0  0.08954  0.143519  0  1.01721  0
H  H38  1  0.31489596  0.61247132  0.31043736  1  0.019871  0  0.084897  0.117431  0  0.999452  0
H  H39  1  0.68510116  0.38752316  0.68956728  1  0.019879  0  0.084863  0.117371  0  0.9995  0
H  H40  1  0.68337057  0.31043499  0.07700295  1  0.637687  0  0.296129  0.336793  0  1.008997  0
H  H41  1  0.31663723  0.68955766  0.92300012  1  0.637697  0  0.296054  0.336662  0  1.009052  0
C  C42  1  0.46582382  0.60700504  0.15249876  1  -0.003834  0  -0.013532  0.053081  0  3.866916  0
C  C43  1  0.53416817  0.39299688  0.84749517  1  -0.00332  0  -0.013515  0.053006  0  3.866832  0
C  C44  1  0.46553228  0.49826666  0.20096090  1  -0.038066  0  -0.088669  -0.15758  0  3.906364  0
C  C45  1  0.53447186  0.50173265  0.79904042  1  -0.038078  0  -0.088711  -0.157505  0  3.9064  0
C  C46  1  0.55672250  0.42862672  0.15978097  1  -0.013443  0  -0.043808  -0.092783  0  4.049882  0
C  C47  1  0.44328257  0.57137501  0.84021539  1  -0.013426  0  -0.043794  -0.092654  0  4.04982  0
C  C48  1  0.62077993  0.49967318  0.08338295  1  -0.043553  0  -0.045904  -0.097504  0  4.047896  0
C  C49  1  0.37921272  0.50033201  0.91660839  1  -0.043655  0  -0.045949  -0.097603  0  4.047826  0
C  C50  1  0.56201147  0.60697231  0.08155963  1  -0.052495  0  -0.082431  -0.137559  0  3.880908  0
C  C51  1  0.43797919  0.39303045  0.91843400  1  -0.053478  0  -0.082451  -0.137586  0  3.880929  0
C  C52  1  0.56618423  0.31870900  0.18281829  1  0.642346  0  0.132351  0.297026  0  3.997479  0
C  C53  1  0.43382328  0.68129191  0.81718435  1  0.642401  0  0.132349  0.296953  0  3.997559  0
C  C54  1  0.49858068  0.25742138  0.26482758  1  -0.010929  0  -0.002877  0.014808  0  3.992377  0
C  C55  1  0.50142850  0.74257292  0.73517751  1  -0.011509  0  -0.002867  0.014824  0  3.992223  0
C  C56  1  0.50587186  0.26313563  0.35636026  1  -0.038058  0  -0.075933  -0.107518  0  3.966376  0
C  C57  1  0.49415246  0.73685847  0.64365125  1  -0.038199  0  -0.075984  -0.107668  0  3.96634  0
C  C58  1  0.44250308  0.20457420  0.43267550  1  0.016261  0  -0.06642  -0.093135  0  3.926068  0
C  C59  1  0.55751049  0.79542169  0.56733157  1  0.015088  0  -0.066399  -0.092985  0  3.9258  0
C  C60  1  0.37099860  0.13929291  0.41748956  1  0.022892  0  0.004761  0.038979  0  4.08839  0
C  C61  1  0.62902103  0.86070290  0.58252074  1  0.024703  0  0.004905  0.03892  0  4.087986  0
C  C62  1  0.36653393  0.12994411  0.32703502  1  -0.001298  0  -0.069698  -0.095864  0  3.915247  0
C  C63  1  0.63347167  0.87005935  0.67297341  1  -0.001437  0  -0.069721  -0.095541  0  3.91504  0
C  C64  1  0.43150992  0.18837085  0.25189845  1  0.024858  0  -0.075917  -0.094396  0  3.947939  0
C  C65  1  0.56849364  0.81163263  0.74810801  1  0.025818  0  -0.075967  -0.094577  0  3.947988  0
C  C66  1  0.30613774  0.07949356  0.49537666  1  0.895684  0  0.228578  0.317147  0  3.933977  0
C  C67  1  0.69388276  0.92051206  0.50462056  1  0.895736  0  0.228613  0.317146  0  3.934599  0
C  C68  1  0.72015640  0.46860656  0.02204267  1  0.73296  0  0.135048  0.309159  0  4.028919  0
C  C69  1  0.27983490  0.53139947  0.97794771  1  0.733358  0  0.135009  0.309027  0  4.029049  0
C  C70  1  0.79394819  0.54459433  0.95946634  1  -0.052033  0  0.000671  0.027602  0  3.944533  0
C  C71  1  0.20604346  0.45541335  0.04052408  1  -0.052253  0  0.000711  0.027716  0  3.944681  0
C  C72  1  0.83713703  0.61456316  0.98988233  1  0.006235  0  -0.075878  -0.105176  0  3.967317  0
C  C73  1  0.16285060  0.38544211  0.01010976  1  0.006048  0  -0.075884  -0.105193  0  3.967131  0
C  C74  1  0.91359456  0.67874930  0.93178284  1  -0.020298  0  -0.066355  -0.093545  0  3.93724  0
C  C75  1  0.08639011  0.32125605  0.06821198  1  -0.020186  0  -0.066232  -0.093427  0  3.937017  0
C  C76  1  0.94764669  0.67327153  0.84167972  1  0.050284  0  0.009317  0.045022  0  4.106768  0
C  C77  1  0.05234066  0.32673213  0.15831633  1  0.050366  0  0.009268  0.044961  0  4.107101  0
C  C78  1  0.90570943  0.60300916  0.81050108  1  -0.032299  0  -0.067436  -0.102016  0  3.946402  0
C  C79  1  0.09427584  0.39699944  0.18948781  1  -0.032318  0  -0.06743  -0.101732  0  3.946232  0
C  C80  1  0.83090774  0.53869517  0.86992552  1  0.017796  0  -0.07638  -0.096997  0  3.955458  0
C  C81  1  0.16908121  0.46131172  0.13006393  1  0.017427  0  -0.076505  -0.097305  0  3.955602  0
C  C82  1  0.02847466  0.73645459  0.78322521  1  0.869614  0  0.224622  0.298735  0  3.930861  0
C  C83  1  0.97152035  0.26355716  0.21676494  1  0.869811  0  0.224608  0.298638  0  3.930698  0
C  C84  1  0.37966595  0.70699032  0.17076816  1  0.081606  0  -0.013103  0.242522  0  3.8242  0
C  C85  1  0.62033043  0.29300579  0.82923053  1  0.081543  0  -0.013047  0.242567  0  3.823953  0
C  C86  1  0.30532700  0.80429382  0.07293926  1  -0.033962  0  -0.242534  -0.410838  0  3.892077  0
C  C87  1  0.69466543  0.19569992  0.92706510  1  -0.034867  0  -0.242563  -0.410892  0  3.892256  0
C  C88  1  0.48028494  0.74103894  0.21944489  1  -0.048133  0  -0.241448  -0.409683  0  3.894124  0
C  C89  1  0.51970411  0.25895812  0.78055562  1  -0.048019  0  -0.241384  -0.409496  0  3.894208  0
C  C90  1  0.26707129  0.67999419  0.23849185  1  -0.052205  0  -0.244619  -0.41351  0  3.893201  0
C  C91  1  0.73292746  0.32000107  0.76150911  1  -0.052276  0  -0.244675  -0.413567  0  3.893323  0
N  N92  1  0.25414671  0.02974561  0.55978956  1  -1.194563  0  -0.35127  -0.366971  0  3.312768  0
N  N93  1  0.74585540  0.97025125  0.44021139  1  -1.194995  0  -0.351301  -0.366931  0  3.31365  0
N  N94  1  0.09713641  0.78681404  0.73611715  1  -1.174468  0  -0.337686  -0.331117  0  3.273281  0
N  N95  1  0.90286111  0.21318705  0.26388968  1  -1.174892  0  -0.337694  -0.331163  0  3.272769  0
Cl  Cl96  1  0.81083199  0.11921569  0.59155197  1  2.997438  0  0.707089  1.29625  0  6.779767  0
Cl  Cl97  1  0.18917514  0.88078356  0.40844863  1  2.997494  0  0.707118  1.296319  0  6.779371  0
O  O98  1  0.62972781  0.26244553  0.13246279  1  -1.130477  0  -0.300673  -0.409985  0  2.368971  0
O  O99  1  0.37028708  0.73755198  0.86754297  1  -1.130554  0  -0.300621  -0.409912  0  2.368999  0
O  O100  1  0.75456692  0.37440199  0.01695899  1  -1.11563  0  -0.276575  -0.428716  0  2.278108  0
O  O101  1  0.24542683  0.62560077  0.98304060  1  -1.115757  0  -0.276517  -0.428577  0  2.278113  0
O  O102  1  0.88030721  0.00043635  0.61140459  1  -0.942252  0  -0.340396  -0.563799  0  2.20714  0
O  O103  1  0.11969790  0.99956540  0.38859445  1  -0.942218  0  -0.340358  -0.563756  0  2.207017  0
O  O104  1  0.89137883  0.15045077  0.64812226  1  -0.985267  0  -0.318018  -0.493559  0  2.047748  0
O  O105  1  0.10863128  0.84954841  0.35187629  1  -0.985543  0  -0.318049  -0.49363  0  2.047449  0
O  O106  1  0.80602596  0.18574516  0.48614988  1  -0.970181  0  -0.336916  -0.535261  0  2.122342  0
O  O107  1  0.19397079  0.81425508  0.51384993  1  -0.970134  0  -0.33693  -0.535239  0  2.122383  0
O  O108  1  0.66734380  0.13387673  0.61877446  1  -0.997927  0  -0.32131  -0.504375  0  2.042603  0
O  O109  1  0.33267011  0.86611834  0.38123358  1  -0.997779  0  -0.321342  -0.50444  0  2.042534  0
