# generated using pymatgen
data_CdH10C9SN2O3
_symmetry_space_group_name_H-M   'P 1'
_cell_length_a   5.69180176
_cell_length_b   12.82555761
_cell_length_c   16.51085920
_cell_angle_alpha   89.99815117
_cell_angle_beta   89.99903195
_cell_angle_gamma   94.89041201
_symmetry_Int_Tables_number   1
_chemical_formula_structural   CdH10C9SN2O3
_chemical_formula_sum   'Cd4 H40 C36 S4 N8 O12'
_cell_volume   1200.91368639
_cell_formula_units_Z   4
loop_
 _symmetry_equiv_pos_site_id
 _symmetry_equiv_pos_as_xyz
  1  'x, y, z'
loop_
 _atom_site_type_symbol
 _atom_site_label
 _atom_site_symmetry_multiplicity
 _atom_site_fract_x
 _atom_site_fract_y
 _atom_site_fract_z
 _atom_site_occupancy
 _atom_site_hle17_bader_spin_density
 _atom_site_hle17_ddec_charge
 _atom_site_hle17_ddec_spin_density
 _atom_site_hle17_ddec_sum_bond_order
 _atom_site_hle17_magmom
 _atom_site_hse06_10hf_bader_spin_density
 _atom_site_hse06_10hf_ddec_charge
 _atom_site_hse06_10hf_ddec_spin_density
 _atom_site_hse06_10hf_ddec_sum_bond_order
 _atom_site_hse06_10hf_magmom
 _atom_site_hse06_bader_spin_density
 _atom_site_hse06_ddec_charge
 _atom_site_hse06_ddec_spin_density
 _atom_site_hse06_ddec_sum_bond_order
 _atom_site_hse06_magmom
 _atom_site_pbe_bader_charge
 _atom_site_pbe_bader_spin_density
 _atom_site_pbe_cm5_charge
 _atom_site_pbe_ddec_charge
 _atom_site_pbe_ddec_spin_density
 _atom_site_pbe_ddec_sum_bond_order
 _atom_site_pbe_magmom
Cd  Cd0  1  0.14340235  0.17195836  0.63915753  1  0  1.06455  0  1.815775  0  0  0.883275  0  2.272928  0  0  0.935676  0  2.225661  0  1.224922  0  0.756634  0.84639  0  2.305037  0
Cd  Cd1  1  0.85656897  0.32803708  0.13915084  1  0  1.064533  0  1.815907  0  0  0.883207  0  2.273156  0  0  0.935605  0  2.225893  0  1.224843  0  0.756612  0.846321  0  2.305267  0
Cd  Cd2  1  0.85658636  0.82803728  0.36084252  1  0  1.064497  0  1.815821  0  0  0.883209  0  2.272989  0  0  0.935612  0  2.225724  0  1.224889  0  0.756619  0.846324  0  2.305098  0
Cd  Cd3  1  0.14342019  0.67196091  0.86085102  1  0  1.064484  0  1.815787  0  0  0.883149  0  2.273003  0  0  0.935554  0  2.225739  0  1.224875  0  0.756599  0.846261  0  2.305113  0
H  H4  1  0.39781046  0.19973410  0.06180417  1  0  0.083947  0  0.979691  0  0  0.089803  0  1.048137  0  0  0.092796  0  1.045567  0  0.117107  0  0.115965  0.087494  0  1.050202  0
H  H5  1  0.60214810  0.30027436  0.56179935  1  0  0.084034  0  0.979447  0  0  0.089968  0  1.047842  0  0  0.092968  0  1.045273  0  0.117356  0  0.115991  0.087652  0  1.049922  0
H  H6  1  0.60217624  0.80026937  0.93819285  1  0  0.08399  0  0.979649  0  0  0.089854  0  1.048107  0  0  0.092853  0  1.045538  0  0.117155  0  0.115954  0.087577  0  1.050139  0
H  H7  1  0.39783669  0.69972832  0.43820312  1  0  0.08398  0  0.979437  0  0  0.089911  0  1.04782  0  0  0.092916  0  1.045239  0  0.117407  0  0.115979  0.087575  0  1.049921  0
H  H8  1  0.21507902  0.16350690  0.92561567  1  0  0.113362  0  0.951404  0  0  0.123407  0  1.011063  0  0  0.126642  0  1.0102  0  0.092799  0  0.112421  0.121071  0  1.011818  0
H  H9  1  0.78488956  0.33649245  0.42560535  1  0  0.113416  0  0.951324  0  0  0.12347  0  1.010981  0  0  0.126709  0  1.010117  0  0.093052  0  0.112444  0.121152  0  1.011724  0
H  H10  1  0.78491852  0.83649813  0.07438014  1  0  0.1134  0  0.951349  0  0  0.123448  0  1.010994  0  0  0.126684  0  1.01013  0  0.092793  0  0.112448  0.121113  0  1.011748  0
H  H11  1  0.21510663  0.66350554  0.57439773  1  0  0.113448  0  0.951435  0  0  0.123513  0  1.011068  0  0  0.126744  0  1.010218  0  0.093013  0  0.112441  0.121201  0  1.011791  0
H  H12  1  0.84148690  0.31839307  0.81868180  1  0  0.11404  0  0.950999  0  0  0.123326  0  1.013145  0  0  0.126564  0  1.011729  0  0.123441  0  0.112379  0.120972  0  1.014316  0
H  H13  1  0.15848684  0.18159685  0.31868965  1  0  0.114144  0  0.950814  0  0  0.123373  0  1.013039  0  0  0.126611  0  1.011624  0  0.123444  0  0.11241  0.121017  0  1.0142  0
H  H14  1  0.15850687  0.68161979  0.18131946  1  0  0.114183  0  0.950935  0  0  0.123441  0  1.013098  0  0  0.126679  0  1.011681  0  0.123287  0  0.112455  0.121085  0  1.014265  0
H  H15  1  0.84152481  0.81839018  0.68131221  1  0  0.114151  0  0.950848  0  0  0.123381  0  1.013088  0  0  0.12662  0  1.011672  0  0.12358  0  0.112408  0.121019  0  1.014252  0
H  H16  1  0.00029209  0.34993278  0.95860245  1  0  0.08331  0  0.953051  0  0  0.087433  0  1.025858  0  0  0.089917  0  1.02416  0  0.133931  0  0.111746  0.085608  0  1.027142  0
H  H17  1  0.99968164  0.15006446  0.45861393  1  0  0.083494  0  0.952909  0  0  0.087512  0  1.025768  0  0  0.089999  0  1.024073  0  0.133828  0  0.111744  0.085684  0  1.027055  0
H  H18  1  0.99969742  0.65007616  0.04139881  1  0  0.083333  0  0.953077  0  0  0.087453  0  1.025856  0  0  0.089942  0  1.024163  0  0.133736  0  0.111747  0.085631  0  1.027135  0
H  H19  1  0.00032022  0.84992648  0.54138673  1  0  0.083546  0  0.952972  0  0  0.087503  0  1.025883  0  0  0.089984  0  1.024184  0  0.133876  0  0.111753  0.08568  0  1.027164  0
H  H20  1  0.76818241  0.29833383  0.68329515  1  0  0.383637  0  0.914569  0  0  0.357841  0  0.986172  0  0  0.368744  0  0.974116  0  0.640475  0  0.293627  0.350115  0  0.99469  0
H  H21  1  0.23179488  0.20166949  0.18329573  1  0  0.383487  0  0.914889  0  0  0.357746  0  0.986402  0  0  0.368653  0  0.974339  0  0.640599  0  0.293571  0.350019  0  0.994923  0
H  H22  1  0.23181865  0.70167120  0.31670490  1  0  0.383642  0  0.914456  0  0  0.357901  0  0.985999  0  0  0.368804  0  0.973934  0  0.640483  0  0.293667  0.350172  0  0.994528  0
H  H23  1  0.76820688  0.79833006  0.81670614  1  0  0.38333  0  0.915076  0  0  0.357673  0  0.986454  0  0  0.368577  0  0.97439  0  0.640616  0  0.293552  0.349945  0  0.994979  0
H  H24  1  0.15627654  0.44381759  0.63366054  1  0  0.042625  0  0.910683  0  0  0.060721  0  0.96975  0  0  0.060459  0  0.969701  0  0.025461  0  0.09818  0.060807  0  0.969886  0
H  H25  1  0.84371795  0.05617676  0.13367505  1  0  0.042729  0  0.91068  0  0  0.060816  0  0.96978  0  0  0.060553  0  0.969735  0  0.025547  0  0.098218  0.060902  0  0.969917  0
H  H26  1  0.84372960  0.55617726  0.36632558  1  0  0.042747  0  0.910715  0  0  0.060789  0  0.96986  0  0  0.060526  0  0.969816  0  0.025351  0  0.098248  0.060876  0  0.969997  0
H  H27  1  0.15628426  0.94382514  0.86632318  1  0  0.042719  0  0.910688  0  0  0.060783  0  0.96982  0  0  0.060521  0  0.969775  0  0.02549  0  0.098218  0.060868  0  0.969957  0
H  H28  1  0.01235270  0.44533627  0.72847087  1  0  0.031682  0  0.938484  0  0  0.046548  0  1.006116  0  0  0.046793  0  1.005492  0  0.066933  0  0.086145  0.046217  0  1.006759  0
H  H29  1  0.98767472  0.05465840  0.22847751  1  0  0.03169  0  0.938691  0  0  0.046623  0  1.006248  0  0  0.046872  0  1.005624  0  0.066941  0  0.086178  0.046295  0  1.006885  0
H  H30  1  0.98768977  0.55466484  0.27152130  1  0  0.031701  0  0.938833  0  0  0.046659  0  1.006352  0  0  0.046908  0  1.005726  0  0.066815  0  0.086211  0.046331  0  1.006988  0
H  H31  1  0.01233347  0.94533803  0.77151951  1  0  0.031672  0  0.938839  0  0  0.046633  0  1.006387  0  0  0.046888  0  1.005762  0  0.06687  0  0.086193  0.046304  0  1.007024  0
H  H32  1  0.86123062  0.57928786  0.63992369  1  0  0.113839  0  0.975465  0  0  0.132424  0  1.040556  0  0  0.133692  0  1.0415  0  0.062117  0  0.086806  0.131442  0  1.040013  0
H  H33  1  0.13878248  0.92071400  0.13992306  1  0  0.113832  0  0.975473  0  0  0.132398  0  1.040588  0  0  0.133666  0  1.041528  0  0.062179  0  0.086793  0.131416  0  1.040044  0
H  H34  1  0.13878344  0.42071170  0.36007636  1  0  0.113819  0  0.975467  0  0  0.132394  0  1.040566  0  0  0.13366  0  1.04151  0  0.062131  0  0.086813  0.131413  0  1.040019  0
H  H35  1  0.86122676  0.07928790  0.86006790  1  0  0.113846  0  0.97547  0  0  0.132418  0  1.040576  0  0  0.133683  0  1.041522  0  0.062106  0  0.086804  0.131437  0  1.04003  0
H  H36  1  0.63070462  0.47975869  0.65782161  1  0  0.104641  0  0.951412  0  0  0.12308  0  1.016528  0  0  0.124451  0  1.016932  0  0.027204  0  0.085697  0.122052  0  1.016278  0
H  H37  1  0.36930562  0.02024764  0.15780826  1  0  0.104657  0  0.951426  0  0  0.12311  0  1.016502  0  0  0.12448  0  1.016903  0  0.027126  0  0.08568  0.12208  0  1.016258  0
H  H38  1  0.36931165  0.52024321  0.34218510  1  0  0.104603  0  0.951442  0  0  0.123047  0  1.016551  0  0  0.124418  0  1.016952  0  0.027087  0  0.085663  0.122017  0  1.016302  0
H  H39  1  0.63070026  0.97975505  0.84218149  1  0  0.104642  0  0.951354  0  0  0.123081  0  1.016477  0  0  0.124453  0  1.016877  0  0.027188  0  0.085692  0.122054  0  1.016228  0
H  H40  1  0.78244124  0.48469597  0.56309729  1  0  0.095115  0  0.952725  0  0  0.116451  0  1.012959  0  0  0.117458  0  1.013678  0  -0.018527  0  0.082086  0.115734  0  1.012417  0
H  H41  1  0.21753811  0.01531159  0.06309302  1  0  0.095278  0  0.952715  0  0  0.116593  0  1.01296  0  0  0.117601  0  1.013679  0  -0.018537  0  0.08217  0.115875  0  1.012417  0
H  H42  1  0.21754868  0.51530592  0.43690397  1  0  0.095105  0  0.952795  0  0  0.116454  0  1.013004  0  0  0.117461  0  1.013723  0  -0.018583  0  0.082091  0.115736  0  1.012461  0
H  H43  1  0.78245446  0.98469501  0.93689976  1  0  0.095065  0  0.952807  0  0  0.116437  0  1.013007  0  0  0.117445  0  1.013725  0  -0.018298  0  0.082058  0.115719  0  1.012467  0
C  C44  1  0.61663010  0.04523446  0.61727617  1  0  0.323665  0  4.013572  0  0  0.302359  0  4.314476  0  0  0.325766  0  4.329286  0  0.586562  0  0.152984  0.286394  0  4.304088  0
C  C45  1  0.38334152  0.45476054  0.11727978  1  0  0.323763  0  4.01374  0  0  0.302472  0  4.31463  0  0  0.32588  0  4.329442  0  0.587404  0  0.153013  0.286508  0  4.30424  0
C  C46  1  0.38335991  0.95475883  0.38272206  1  0  0.323632  0  4.013845  0  0  0.302325  0  4.314757  0  0  0.325734  0  4.329565  0  0.586991  0  0.152956  0.286363  0  4.304366  0
C  C47  1  0.61664780  0.54523823  0.88273056  1  0  0.323558  0  4.013943  0  0  0.302255  0  4.314839  0  0  0.325666  0  4.329646  0  0.587339  0  0.15286  0.286291  0  4.30445  0
C  C48  1  0.49224179  0.22343031  0.00661020  1  0  0.125911  0  3.703044  0  0  0.096528  0  3.952848  0  0  0.102709  0  3.971377  0  0.390503  0  0.046104  0.092551  0  3.940227  0
C  C49  1  0.50771985  0.27657514  0.50660780  1  0  0.125617  0  3.703371  0  0  0.096129  0  3.95324  0  0  0.102295  0  3.971782  0  0.390365  0  0.045898  0.092153  0  3.940629  0
C  C50  1  0.50774888  0.77657550  0.99338804  1  0  0.125802  0  3.703115  0  0  0.096379  0  3.952925  0  0  0.10255  0  3.971457  0  0.390339  0  0.046041  0.092379  0  3.940297  0
C  C51  1  0.49227137  0.72342441  0.49339467  1  0  0.12584  0  3.703012  0  0  0.096378  0  3.952882  0  0  0.102548  0  3.971414  0  0.389922  0  0.045997  0.092416  0  3.94028  0
C  C52  1  0.39042682  0.20389209  0.93109631  1  0  -0.118893  0  3.704155  0  0  -0.140533  0  3.949645  0  0  -0.145731  0  3.969949  0  0.115736  0  -0.075327  -0.137181  0  3.936077  0
C  C53  1  0.60954290  0.29610678  0.43109204  1  0  -0.118781  0  3.704177  0  0  -0.140438  0  3.949706  0  0  -0.145637  0  3.970015  0  0.116334  0  -0.075288  -0.137106  0  3.936124  0
C  C54  1  0.60956751  0.79611451  0.06890132  1  0  -0.118967  0  3.704087  0  0  -0.140513  0  3.949666  0  0  -0.145708  0  3.969971  0  0.11609  0  -0.075302  -0.137168  0  3.936111  0
C  C55  1  0.39045636  0.70388886  0.56891043  1  0  -0.118975  0  3.704496  0  0  -0.140649  0  3.950047  0  0  -0.14585  0  3.970352  0  0.116499  0  -0.075381  -0.137314  0  3.936464  0
C  C56  1  0.51274954  0.23950391  0.86167593  1  0  -0.003696  0  3.731862  0  0  0.015526  0  3.963211  0  0  0.013658  0  3.982223  0  -0.089397  0  0.007755  0.016751  0  3.950459  0
C  C57  1  0.48722720  0.26048694  0.36167591  1  0  -0.004003  0  3.732058  0  0  0.015289  0  3.963375  0  0  0.013424  0  3.982384  0  -0.090198  0  0.007647  0.016512  0  3.950628  0
C  C58  1  0.48724334  0.76050425  0.13832230  1  0  -0.003512  0  3.731664  0  0  0.01543  0  3.963386  0  0  0.013562  0  3.982391  0  -0.089926  0  0.007748  0.01666  0  3.950635  0
C  C59  1  0.51277672  0.73950557  0.63832717  1  0  -0.003958  0  3.732353  0  0  0.01533  0  3.963666  0  0  0.013468  0  3.982672  0  -0.089953  0  0.007762  0.01655  0  3.950923  0
C  C60  1  0.73793416  0.29072010  0.87091652  1  0  -0.102084  0  3.685252  0  0  -0.126083  0  3.934883  0  0  -0.130409  0  3.953647  0  0.07431  0  -0.071742  -0.123376  0  3.922517  0
C  C61  1  0.26204051  0.20927386  0.37092134  1  0  -0.102072  0  3.685393  0  0  -0.126077  0  3.935029  0  0  -0.130405  0  3.953794  0  0.074611  0  -0.07176  -0.12336  0  3.922651  0
C  C62  1  0.26205886  0.70928884  0.12908353  1  0  -0.102201  0  3.685259  0  0  -0.126098  0  3.934972  0  0  -0.130418  0  3.953732  0  0.074467  0  -0.071778  -0.12339  0  3.922603  0
C  C63  1  0.73796326  0.79071787  0.62908053  1  0  -0.102033  0  3.68572  0  0  -0.126047  0  3.935345  0  0  -0.130371  0  3.954105  0  0.074338  0  -0.071816  -0.123326  0  3.922968  0
C  C64  1  0.82834992  0.30744824  0.94850121  1  0  0.128002  0  3.685673  0  0  0.098357  0  3.93816  0  0  0.104509  0  3.956713  0  0.412446  0  0.049302  0.094361  0  3.92553  0
C  C65  1  0.17162628  0.19254754  0.44850785  1  0  0.127924  0  3.685583  0  0  0.098425  0  3.938036  0  0  0.104573  0  3.956589  0  0.411612  0  0.049324  0.094431  0  3.925405  0
C  C66  1  0.17164587  0.69255679  0.05149883  1  0  0.127886  0  3.685696  0  0  0.098273  0  3.938113  0  0  0.104416  0  3.956673  0  0.412434  0  0.049227  0.094278  0  3.925483  0
C  C67  1  0.82837282  0.80744731  0.55149341  1  0  0.127847  0  3.685816  0  0  0.09842  0  3.938257  0  0  0.104579  0  3.956802  0  0.412393  0  0.049358  0.094423  0  3.925631  0
C  C68  1  0.39647552  0.22489663  0.78027254  1  0  0.634961  0  3.912615  0  0  0.584348  0  4.202021  0  0  0.618525  0  4.195213  0  1.563655  0  0.203089  0.561282  0  4.205624  0
C  C69  1  0.60350509  0.27509116  0.28027130  1  0  0.635106  0  3.912352  0  0  0.584465  0  4.201797  0  0  0.618638  0  4.19499  0  1.563042  0  0.203121  0.561397  0  4.205401  0
C  C70  1  0.60352508  0.77510605  0.21972509  1  0  0.634897  0  3.912633  0  0  0.584308  0  4.202153  0  0  0.618485  0  4.195342  0  1.5637  0  0.203006  0.561237  0  4.205762  0
C  C71  1  0.39649898  0.72490213  0.71973178  1  0  0.63483  0  3.912497  0  0  0.584192  0  4.201968  0  0  0.618364  0  4.195156  0  1.562922  0  0.203004  0.561126  0  4.205576  0
C  C72  1  0.98429622  0.42846359  0.66355420  1  0  0.208926  0  3.635921  0  0  0.154799  0  3.912069  0  0  0.163846  0  3.917676  0  0.40375  0  -0.077761  0.148597  0  3.908192  0
C  C73  1  0.01570819  0.07153362  0.16355902  1  0  0.208874  0  3.636178  0  0  0.15463  0  3.91244  0  0  0.163672  0  3.918053  0  0.40365  0  -0.077794  0.148429  0  3.908561  0
C  C74  1  0.01571945  0.57153517  0.33643918  1  0  0.208785  0  3.636172  0  0  0.154543  0  3.912493  0  0  0.163587  0  3.918098  0  0.404049  0  -0.077894  0.148341  0  3.908617  0
C  C75  1  0.98429548  0.92846671  0.83643800  1  0  0.208892  0  3.636183  0  0  0.15461  0  3.912497  0  0  0.163648  0  3.918108  0  0.403492  0  -0.077833  0.148409  0  3.908621  0
C  C76  1  0.80363708  0.49671452  0.62872985  1  0  -0.345927  0  3.714956  0  0  -0.41987  0  3.958476  0  0  -0.423906  0  3.968528  0  -0.028018  0  -0.257569  -0.416858  0  3.951503  0
C  C77  1  0.19636314  0.00328887  0.12872619  1  0  -0.34616  0  3.715067  0  0  -0.420073  0  3.958601  0  0  -0.424106  0  3.968654  0  -0.02804  0  -0.257663  -0.417061  0  3.951629  0
C  C78  1  0.19637010  0.50328582  0.37127141  1  0  -0.345904  0  3.715071  0  0  -0.419807  0  3.958556  0  0  -0.423843  0  3.968616  0  -0.027959  0  -0.257563  -0.416793  0  3.951579  0
C  C79  1  0.80363937  0.99671459  0.87126659  1  0  -0.345907  0  3.715029  0  0  -0.419844  0  3.958562  0  0  -0.42388  0  3.968623  0  -0.027962  0  -0.257557  -0.416834  0  3.95159  0
S  S80  1  0.35497744  0.99119064  0.63814608  1  0  -0.335317  0  2.159181  0  0  -0.302154  0  2.479575  0  0  -0.322205  0  2.474447  0  0.076617  0  -0.133016  -0.288128  0  2.482792  0
S  S81  1  0.64498281  0.50880041  0.13816422  1  0  -0.335392  0  2.159316  0  0  -0.302209  0  2.47966  0  0  -0.322261  0  2.474532  0  0.076193  0  -0.133032  -0.288181  0  2.482875  0
S  S82  1  0.64500555  0.00880265  0.36184671  1  0  -0.335324  0  2.159365  0  0  -0.302115  0  2.479672  0  0  -0.322168  0  2.474545  0  0.076612  0  -0.133008  -0.288087  0  2.482886  0
S  S83  1  0.35500796  0.49119679  0.86185036  1  0  -0.335179  0  2.159294  0  0  -0.301987  0  2.479638  0  0  -0.322038  0  2.474507  0  0.076333  0  -0.132919  -0.287959  0  2.48285  0
N  N84  1  0.80672851  0.08399293  0.60058171  1  0  -0.55863  0  2.895706  0  0  -0.500084  0  3.17838  0  0  -0.523325  0  3.183563  0  -1.300933  0  -0.406156  -0.484141  0  3.174667  0
N  N85  1  0.19325090  0.41600666  0.10057381  1  0  -0.558691  0  2.895826  0  0  -0.500159  0  3.178504  0  0  -0.523399  0  3.183686  0  -1.301357  0  -0.406188  -0.484218  0  3.174791  0
N  N86  1  0.19326181  0.91600192  0.39942198  1  0  -0.558633  0  2.895858  0  0  -0.500109  0  3.178558  0  0  -0.52335  0  3.183737  0  -1.301364  0  -0.406161  -0.484169  0  3.174845  0
N  N87  1  0.80674193  0.58399211  0.89943472  1  0  -0.558669  0  2.89592  0  0  -0.500122  0  3.178562  0  0  -0.52336  0  3.18374  0  -1.301447  0  -0.406145  -0.484182  0  3.174852  0
N  N88  1  0.70726082  0.27473730  0.01523361  1  0  -0.329572  0  3.27473  0  0  -0.248273  0  3.53574  0  0  -0.268402  0  3.555571  0  -1.218923  0  -0.329123  -0.23447  0  3.52183  0
N  N89  1  0.29270641  0.22526505  0.51523666  1  0  -0.329584  0  3.274949  0  0  -0.248287  0  3.535946  0  0  -0.268412  0  3.555781  0  -1.218486  0  -0.329032  -0.234484  0  3.522031  0
N  N90  1  0.29272985  0.72526851  0.98476644  1  0  -0.329508  0  3.274715  0  0  -0.248186  0  3.535696  0  0  -0.268311  0  3.555531  0  -1.218454  0  -0.329059  -0.234386  0  3.521799  0
N  N91  1  0.70728787  0.77473215  0.48476460  1  0  -0.329577  0  3.274703  0  0  -0.248296  0  3.535684  0  0  -0.268425  0  3.555518  0  -1.219141  0  -0.329059  -0.234493  0  3.521765  0
O  O92  1  0.18863930  0.17945683  0.77872568  1  0  -0.617731  0  1.993165  0  0  -0.552775  0  2.234449  0  0  -0.582386  0  2.227107  0  -1.142186  0  -0.316633  -0.53201  0  2.238543  0
O  O93  1  0.81134717  0.32052405  0.27872020  1  0  -0.617795  0  1.99321  0  0  -0.552851  0  2.234525  0  0  -0.582462  0  2.227185  0  -1.141801  0  -0.316712  -0.532088  0  2.238627  0
O  O94  1  0.81136246  0.82054272  0.22127134  1  0  -0.617731  0  1.993186  0  0  -0.552758  0  2.234461  0  0  -0.582369  0  2.227124  0  -1.142173  0  -0.316615  -0.531989  0  2.23855  0
O  O95  1  0.18865369  0.67947080  0.72128227  1  0  -0.617622  0  1.993261  0  0  -0.552677  0  2.234572  0  0  -0.582283  0  2.227234  0  -1.141845  0  -0.316609  -0.53191  0  2.238657  0
O  O96  1  0.50444376  0.25810189  0.71647271  1  0  -0.64014  0  2.012254  0  0  -0.577066  0  2.244586  0  0  -0.605424  0  2.235847  0  -1.18404  0  -0.31473  -0.557149  0  2.249743  0
O  O97  1  0.49553218  0.24189304  0.21647268  1  0  -0.640061  0  2.012049  0  0  -0.577013  0  2.244405  0  0  -0.605366  0  2.235655  0  -1.18381  0  -0.314656  -0.557105  0  2.249588  0
O  O98  1  0.49555408  0.74190470  0.28352613  1  0  -0.640127  0  2.01234  0  0  -0.577009  0  2.244607  0  0  -0.605388  0  2.235898  0  -1.183958  0  -0.314667  -0.557088  0  2.249766  0
O  O99  1  0.50447496  0.75809790  0.78352979  1  0  -0.639981  0  2.012159  0  0  -0.576923  0  2.244419  0  0  -0.60531  0  2.235743  0  -1.183709  0  -0.314659  -0.557006  0  2.249581  0
O  O100  1  0.91584103  0.31861478  0.65184373  1  0  -0.600154  0  2.142659  0  0  -0.529329  0  2.394385  0  0  -0.550353  0  2.37977  0  -1.155888  0  -0.418794  -0.514465  0  2.404195  0
O  O101  1  0.08414555  0.18138425  0.15184370  1  0  -0.600079  0  2.142893  0  0  -0.529183  0  2.39445  0  0  -0.550209  0  2.379837  0  -1.155958  0  -0.418755  -0.514318  0  2.404257  0
O  O102  1  0.08416073  0.68138478  0.34815450  1  0  -0.600127  0  2.142424  0  0  -0.529307  0  2.39406  0  0  -0.550323  0  2.379441  0  -1.155927  0  -0.418825  -0.514441  0  2.403868  0
O  O103  1  0.91585827  0.81861687  0.84815695  1  0  -0.599966  0  2.142932  0  0  -0.529123  0  2.394434  0  0  -0.550145  0  2.379834  0  -1.155968  0  -0.418723  -0.514258  0  2.404235  0
