# generated using pymatgen
data_Na2H5C2N9O2
_symmetry_space_group_name_H-M   'P 1'
_cell_length_a   5.87869492
_cell_length_b   6.43925135
_cell_length_c   10.74098599
_cell_angle_alpha   89.99999816
_cell_angle_beta   97.06267998
_cell_angle_gamma   89.99999720
_symmetry_Int_Tables_number   1
_chemical_formula_structural   Na2H5C2N9O2
_chemical_formula_sum   'Na4 H10 C4 N18 O4'
_cell_volume   403.50838192
_cell_formula_units_Z   2
loop_
 _symmetry_equiv_pos_site_id
 _symmetry_equiv_pos_as_xyz
  1  'x, y, z'
loop_
 _atom_site_type_symbol
 _atom_site_label
 _atom_site_symmetry_multiplicity
 _atom_site_fract_x
 _atom_site_fract_y
 _atom_site_fract_z
 _atom_site_occupancy
 _atom_site_hle17_bader_spin_density
 _atom_site_hle17_ddec_charge
 _atom_site_hle17_ddec_spin_density
 _atom_site_hle17_ddec_sum_bond_order
 _atom_site_hle17_magmom
 _atom_site_hse06_10hf_bader_spin_density
 _atom_site_hse06_10hf_ddec_charge
 _atom_site_hse06_10hf_ddec_spin_density
 _atom_site_hse06_10hf_ddec_sum_bond_order
 _atom_site_hse06_10hf_magmom
 _atom_site_hse06_bader_spin_density
 _atom_site_hse06_ddec_charge
 _atom_site_hse06_ddec_spin_density
 _atom_site_hse06_ddec_sum_bond_order
 _atom_site_hse06_magmom
 _atom_site_pbe_bader_spin_density
 _atom_site_pbe_cm5_charge
 _atom_site_pbe_ddec_charge
 _atom_site_pbe_ddec_spin_density
 _atom_site_pbe_ddec_sum_bond_order
 _atom_site_pbe_magmom
Na  Na0  1  0.16382494  0.99655684  0.17215078  1  0  0.859338  0  0.450118  0  0  0.788407  0  0.635369  0  0  0.799396  0  0.614963  0  0  0.749573  0.780281  0  0.650213  0
Na  Na1  1  0.83617560  0.49655769  0.82785038  1  0  0.859329  0  0.450139  0  0  0.7884  0  0.635388  0  0  0.799389  0  0.614983  0  0  0.749567  0.780274  0  0.650231  0
Na  Na2  1  0.83617562  0.00344291  0.82784945  1  0  0.859326  0  0.450131  0  0  0.788402  0  0.635372  0  0  0.799388  0  0.614967  0  0  0.749564  0.780275  0  0.650216  0
Na  Na3  1  0.16382496  0.50344206  0.17214985  1  0  0.859347  0  0.4501  0  0  0.788405  0  0.635372  0  0  0.799396  0  0.614968  0  0  0.749574  0.780281  0  0.650216  0
H  H4  1  0.24878925  0.75000022  0.38004382  1  0  0.389728  0  0.933967  0  0  0.347387  0  1.017638  0  0  0.358801  0  1.001371  0  0  0.277453  0.339485  0  1.0288  0
H  H5  1  0.75121131  0.24999953  0.61995641  1  0  0.389742  0  0.933946  0  0  0.3474  0  1.017619  0  0  0.358814  0  1.00135  0  0  0.277453  0.3395  0  1.028778  0
H  H6  1  0.50782882  0.75000021  0.35334786  1  0  0.403933  0  0.905837  0  0  0.368967  0  0.979001  0  0  0.378331  0  0.964978  0  0  0.294553  0.36217  0  0.989155  0
H  H7  1  0.49217174  0.25000109  0.64665330  1  0  0.403937  0  0.905833  0  0  0.368971  0  0.978999  0  0  0.378336  0  0.964974  0  0  0.294554  0.362176  0  0.98915  0
H  H8  1  0.81188538  0.75000020  0.27078588  1  0  0.398298  0  0.910088  0  0  0.362894  0  0.985447  0  0  0.373268  0  0.970127  0  0  0.293786  0.355606  0  0.996227  0
H  H9  1  0.18811518  0.25000110  0.72921342  1  0  0.398302  0  0.910066  0  0  0.362894  0  0.985443  0  0  0.373269  0  0.970122  0  0  0.293792  0.355607  0  0.996222  0
H  H10  1  0.72428895  0.75000021  0.12365993  1  0  0.386937  0  0.932176  0  0  0.34583  0  1.013509  0  0  0.356573  0  0.998011  0  0  0.289741  0.33818  0  1.024514  0
H  H11  1  0.27571162  0.24999954  0.87634030  1  0  0.386929  0  0.932188  0  0  0.345826  0  1.013512  0  0  0.356569  0  0.998015  0  0  0.289739  0.338176  0  1.024516  0
H  H12  1  0.56753918  0.24999954  0.36913367  1  0  0.309069  0  0.91727  0  0  0.27577  0  1.006934  0  0  0.285023  0  0.998189  0  0  0.317394  0.269506  0  1.012467  0
H  H13  1  0.43246138  0.75000021  0.63086656  1  0  0.30905  0  0.917308  0  0  0.275762  0  1.006959  0  0  0.28501  0  0.99822  0  0  0.317402  0.269497  0  1.012489  0
C  C14  1  0.92060601  0.25000108  0.39086604  1  0  0.498115  0  3.835192  0  0  0.448492  0  4.127713  0  0  0.467163  0  4.139856  0  0  0.324897  0.435999  0  4.119409  0
C  C15  1  0.07939455  0.74999867  0.60913512  1  0  0.4981  0  3.835173  0  0  0.448482  0  4.127687  0  0  0.467149  0  4.139831  0  0  0.324908  0.435987  0  4.119384  0
C  C16  1  0.67439915  0.24999954  0.19157617  1  0  0.516876  0  3.822809  0  0  0.476083  0  4.09995  0  0  0.49558  0  4.110243  0  0  0.330083  0.46307  0  4.092864  0
C  C17  1  0.32560313  0.75000332  0.80842417  1  0  0.516825  0  3.822907  0  0  0.476057  0  4.100013  0  0  0.49555  0  4.110308  0  0  0.330056  0.463042  0  4.09293  0
N  N18  1  0.70901456  0.24999798  0.32028967  1  0  -0.482103  0  3.302984  0  0  -0.423426  0  3.550553  0  0  -0.444  0  3.554554  0  0  -0.38468  -0.409283  0  3.547288  0
N  N19  1  0.29098600  0.75000021  0.67971056  1  0  -0.482122  0  3.303147  0  0  -0.423435  0  3.550647  0  0  -0.443999  0  3.554638  0  0  -0.38473  -0.409291  0  3.547385  0
N  N20  1  0.95035071  0.24999797  0.51706046  1  0  -0.356387  0  2.981784  0  0  -0.312681  0  3.249908  0  0  -0.328514  0  3.264116  0  0  -0.219608  -0.302091  0  3.240429  0
N  N21  1  0.04964642  0.75000022  0.48293861  1  0  -0.356344  0  2.981789  0  0  -0.312641  0  3.249917  0  0  -0.328474  0  3.264128  0  0  -0.219584  -0.30205  0  3.240436  0
N  N22  1  0.18041445  0.25000265  0.54823627  1  0  -0.12249  0  3.099442  0  0  -0.093244  0  3.384036  0  0  -0.095585  0  3.39645  0  0  -0.095407  -0.09133  0  3.375761  0
N  N23  1  0.81958269  0.75000020  0.45176279  1  0  -0.122476  0  3.09946  0  0  -0.093238  0  3.384061  0  0  -0.095578  0  3.396476  0  0  -0.095382  -0.091324  0  3.375784  0
N  N24  1  0.28272677  0.24999644  0.44635408  1  0  -0.088407  0  3.075983  0  0  -0.070333  0  3.369236  0  0  -0.070237  0  3.379418  0  0  -0.104004  -0.070003  0  3.361882  0
N  N25  1  0.71727208  0.75000020  0.55364510  1  0  -0.088483  0  3.075952  0  0  -0.070414  0  3.369214  0  0  -0.070317  0  3.379396  0  0  -0.104061  -0.070083  0  3.361859  0
N  N26  1  0.12328258  0.25000110  0.34429384  1  0  -0.505991  0  3.076541  0  0  -0.467966  0  3.373648  0  0  -0.481323  0  3.382599  0  0  -0.373696  -0.459057  0  3.367773  0
N  N27  1  0.87671799  0.75000175  0.65570546  1  0  -0.505956  0  3.07654  0  0  -0.467938  0  3.373653  0  0  -0.481294  0  3.382603  0  0  -0.373689  -0.459028  0  3.367778  0
N  N28  1  0.46205797  0.24999799  0.12631454  1  0  -0.501663  0  3.016641  0  0  -0.467878  0  3.313344  0  0  -0.481332  0  3.321903  0  0  -0.369035  -0.459048  0  3.308244  0
N  N29  1  0.53794431  0.74999865  0.87368674  1  0  -0.501638  0  3.016707  0  0  -0.467865  0  3.313392  0  0  -0.481321  0  3.321953  0  0  -0.368967  -0.459033  0  3.308288  0
N  N30  1  0.49918890  0.25000110  0.00488680  1  0  -0.064606  0  3.155939  0  0  -0.036488  0  3.442724  0  0  -0.037109  0  3.454571  0  0  -0.096152  -0.035599  0  3.434652  0
N  N31  1  0.50081167  0.75000020  0.99511343  1  0  -0.064642  0  3.155996  0  0  -0.036522  0  3.442784  0  0  -0.037141  0  3.454629  0  0  -0.096178  -0.035631  0  3.434709  0
N  N32  1  0.71944797  0.24999952  0.99667903  1  0  -0.196353  0  3.136954  0  0  -0.174335  0  3.441948  0  0  -0.174576  0  3.450616  0  0  -0.21157  -0.173773  0  3.435816  0
N  N33  1  0.28055431  0.75000022  0.00332132  1  0  -0.196218  0  3.13705  0  0  -0.174197  0  3.442037  0  0  -0.174436  0  3.450704  0  0  -0.211478  -0.173636  0  3.435906  0
N  N34  1  0.83804673  0.24999798  0.11350978  1  0  -0.491738  0  3.06047  0  0  -0.452549  0  3.349484  0  0  -0.464953  0  3.356471  0  0  -0.356418  -0.444265  0  3.345057  0
N  N35  1  0.16195555  0.74999866  0.88649057  1  0  -0.49177  0  3.060595  0  0  -0.452599  0  3.349611  0  0  -0.464999  0  3.356598  0  0  -0.356468  -0.444312  0  3.345178  0
O  O36  1  0.35070622  0.74999866  0.31073526  1  0  -0.917397  0  1.83898  0  0  -0.864714  0  2.040187  0  0  -0.880674  0  2.00706  0  0  -0.721086  -0.853351  0  2.063405  0
O  O37  1  0.64929434  0.25000108  0.68926590  1  0  -0.917406  0  1.838968  0  0  -0.864725  0  2.040173  0  0  -0.880684  0  2.007043  0  0  -0.721077  -0.853362  0  2.063387  0
O  O38  1  0.86415289  0.75000020  0.18697136  1  0  -0.894503  0  1.850885  0  0  -0.838628  0  2.049079  0  0  -0.855236  0  2.016568  0  0  -0.695411  -0.826789  0  2.071894  0
O  O39  1  0.13584767  0.25000110  0.81302887  1  0  -0.894488  0  1.850876  0  0  -0.838615  0  2.049076  0  0  -0.855225  0  2.016567  0  0  -0.695406  -0.826775  0  2.071889  0
