# generated using pymatgen
data_Zn4H28C49N4O21
_symmetry_space_group_name_H-M   'P 1'
_cell_length_a   19.52348998
_cell_length_b   19.58220265
_cell_length_c   19.54857276
_cell_angle_alpha   90.18976195
_cell_angle_beta   95.56160730
_cell_angle_gamma   95.24741899
_symmetry_Int_Tables_number   1
_chemical_formula_structural   Zn4H28C49N4O21
_chemical_formula_sum   'Zn4 H28 C49 N4 O21'
_cell_volume   7406.75713975
_cell_formula_units_Z   1
loop_
 _symmetry_equiv_pos_site_id
 _symmetry_equiv_pos_as_xyz
  1  'x, y, z'
loop_
 _atom_site_type_symbol
 _atom_site_label
 _atom_site_symmetry_multiplicity
 _atom_site_fract_x
 _atom_site_fract_y
 _atom_site_fract_z
 _atom_site_occupancy
 _atom_site_pbe_bader_charge
 _atom_site_pbe_bader_spin_density
 _atom_site_pbe_cm5_charge
 _atom_site_pbe_ddec_charge
 _atom_site_pbe_ddec_spin_density
 _atom_site_pbe_ddec_sum_bond_order
 _atom_site_pbe_magmom
Zn  Zn0  1  0.55726611  0.44285574  0.55993964  1  1.316134  0  0.676702  0.970752  0  2.362167  0
Zn  Zn1  1  0.55975958  0.56376339  0.44803388  1  1.317067  0  0.670982  0.964054  0  2.367458  0
Zn  Zn2  1  0.44860612  0.55290827  0.55757274  1  1.313483  0  0.675109  0.962211  0  2.386909  0
Zn  Zn3  1  0.43737997  0.44247623  0.43374107  1  1.316167  0  0.676185  0.972398  0  2.352566  0
H  H4  1  0.62424650  0.77159251  0.51009031  1  0.088347  0  0.108908  0.11418  0  0.989812  0
H  H5  1  0.58211986  0.00554430  0.52456377  1  0.030738  0  0.106756  0.102267  0  0.993941  0
H  H6  1  0.41353933  0.89356899  0.51460419  1  0.079529  0  0.105395  0.111902  0  1.00456  0
H  H7  1  0.38093484  0.22826212  0.47326883  1  0.140105  0  0.128743  0.146687  0  0.970194  0
H  H8  1  0.42630801  0.99161471  0.47726141  1  0.094188  0  0.106945  0.112069  0  1.03343  0
H  H9  1  0.59347081  0.10676627  0.49132034  1  0.11966  0  0.120617  0.13144  0  0.990141  0
H  H10  1  0.63480284  0.89934660  0.51343750  1  0.041013  0  0.103975  0.104399  0  0.994064  0
H  H11  1  0.43212617  0.56240550  0.76537990  1  0.106053  0  0.109991  0.11606  0  0.989833  0
H  H12  1  0.43842203  0.41423884  0.22340988  1  0.110378  0  0.108777  0.114881  0  0.991083  0
H  H13  1  0.54097310  0.61819213  0.23789054  1  0.070763  0  0.107661  0.111994  0  0.992645  0
H  H14  1  0.49030360  0.57290405  0.99721575  1  0.064753  0  0.10308  0.101618  0  0.998055  0
H  H15  1  0.55837731  0.38772842  0.89653236  1  0.051655  0  0.103562  0.103457  0  0.992692  0
H  H16  1  0.43713397  0.41660349  0.09604852  1  0.077564  0  0.103217  0.103404  0  0.998343  0
H  H17  1  0.56306465  0.39734218  0.76990881  1  0.10934  0  0.109354  0.114838  0  0.990597  0
H  H18  1  0.50125410  0.41725369  0.00070508  1  0.0374  0  0.103763  0.102245  0  0.994968  0
H  H19  1  0.42742471  0.55385368  0.89177068  1  0.049693  0  0.10393  0.103722  0  0.999105  0
H  H20  1  0.53766630  0.62230241  0.11014806  1  0.077827  0  0.103562  0.104487  0  0.992507  0
H  H21  1  0.77362668  0.56120604  0.42007700  1  0.117547  0  0.116131  0.121096  0  0.979693  0
H  H22  1  0.76850642  0.46717218  0.61819237  1  0.152015  0  0.124374  0.141683  0  0.986008  0
H  H23  1  0.01141241  0.51828229  0.58520385  1  0.101972  0  0.110965  0.116055  0  1.009576  0
H  H24  1  0.09648156  0.49724781  0.37314996  1  0.062627  0  0.109861  0.109737  0  0.983387  0
H  H25  1  0.90172937  0.56318461  0.43144274  1  0.070049  0  0.108786  0.109812  0  0.991946  0
H  H26  1  0.22311132  0.48876988  0.37776310  1  0.108731  0  0.116353  0.122278  0  0.975041  0
H  H27  1  0.99151147  0.49484721  0.42844726  1  0.055879  0  0.104976  0.101683  0  0.996376  0
H  H28  1  0.11108699  0.49033732  0.59527461  1  0.118571  0  0.121704  0.139319  0  0.983568  0
H  H29  1  0.34304120  0.79632366  0.50608045  1  0.014629  0  0.091547  0.124072  0  0.998743  0
H  H30  1  0.37129622  0.71860246  0.47583621  1  0.031145  0  0.094629  0.135381  0  0.990615  0
H  H31  1  0.37564481  0.73468230  0.56465955  1  0.051887  0  0.100471  0.146985  0  0.98051  0
C  C32  1  0.49214234  0.51268395  0.31451470  1  1.535758  0  0.225354  0.6042  0  4.168304  0
C  C33  1  0.50157691  0.48739337  0.68480641  1  1.526074  0  0.22822  0.608442  0  4.162681  0
C  C34  1  0.68549079  0.50946875  0.51102454  1  1.559824  0  0.230204  0.606511  0  4.168446  0
C  C35  1  0.31525265  0.48967196  0.48912858  1  1.575333  0  0.228947  0.611748  0  4.196249  0
C  C36  1  0.51228129  0.68500121  0.51101237  1  1.530031  0  0.228197  0.609783  0  4.157235  0
C  C37  1  0.49505479  0.31653765  0.48686272  1  1.639117  0  0.231807  0.61547  0  4.185893  0
C  C38  1  0.49206501  0.23985885  0.48232070  1  0.058297  0  0.000264  -0.05743  0  3.937356  0
C  C39  1  0.55059132  0.20274620  0.48703027  1  0.191513  0  0.092804  0.075818  0  3.91909  0
C  C40  1  0.54594488  0.13198499  0.48990836  1  0.006007  0  -0.067075  -0.159377  0  3.901609  0
C  C41  1  0.48151960  0.09263112  0.48890350  1  0.091216  0  0.013959  0.10531  0  3.989383  0
C  C42  1  0.42293398  0.13068901  0.48223077  1  0.211645  0  0.085473  0.026782  0  3.859025  0
C  C43  1  0.42790005  0.20197681  0.47820537  1  0.019435  0  -0.060562  -0.1155  0  3.929283  0
C  C44  1  0.46018718  0.86706675  0.51314957  1  -0.020607  0  -0.086247  -0.191665  0  3.900286  0
C  C45  1  0.45321990  0.79556456  0.51393357  1  0.000127  0  0.006566  0.171598  0  3.939226  0
C  C46  1  0.57850100  0.79932006  0.51156028  1  -0.000567  0  -0.082404  -0.083244  0  4.008015  0
C  C47  1  0.58421954  0.87049499  0.51313745  1  -0.015872  0  -0.090209  -0.143334  0  3.990867  0
C  C48  1  0.52446686  0.90577429  0.51228943  1  0.00526  0  -0.00789  0.117621  0  4.064424  0
C  C49  1  0.47716889  0.01823575  0.49101929  1  -0.078089  0  -0.092713  -0.142069  0  3.990942  0
C  C50  1  0.53040614  0.98035592  0.50986769  1  -0.021167  0  -0.071135  -0.091014  0  3.947441  0
C  C51  1  0.51400077  0.76134236  0.51222713  1  -0.043302  0  -0.013473  -0.094502  0  3.909689  0
C  C52  1  0.49883707  0.48124288  0.76025732  1  0.014687  0  -0.019523  -0.047923  0  3.983708  0
C  C53  1  0.46061086  0.52527105  0.79490123  1  -0.055201  0  -0.078089  -0.077394  0  3.979549  0
C  C54  1  0.45855131  0.52056934  0.86545823  1  -0.019622  0  -0.087784  -0.133463  0  3.96401  0
C  C55  1  0.49436863  0.47156843  0.90347544  1  -0.000139  0  -0.004932  0.120515  0  4.037124  0
C  C56  1  0.53087125  0.42630372  0.86784417  1  -0.05763  0  -0.087894  -0.136131  0  3.971395  0
C  C57  1  0.53378579  0.43147069  0.79727633  1  -0.046184  0  -0.079907  -0.081982  0  3.980757  0
C  C58  1  0.46091173  0.46047571  0.12703390  1  -0.024048  0  -0.087635  -0.13332  0  3.967658  0
C  C59  1  0.46109949  0.45901895  0.19799480  1  -0.053523  0  -0.081507  -0.083949  0  3.986938  0
C  C60  1  0.51835003  0.57440261  0.20627354  1  0.023743  0  -0.081361  -0.081995  0  3.990315  0
C  C61  1  0.51643086  0.57637018  0.13509027  1  -0.097123  0  -0.089877  -0.140409  0  3.975319  0
C  C62  1  0.48901691  0.51904462  0.09413495  1  0.009944  0  -0.004875  0.123579  0  4.038756  0
C  C63  1  0.49427629  0.46745820  0.97796139  1  -0.045028  0  -0.084651  -0.126439  0  3.991183  0
C  C64  1  0.49001491  0.52178064  0.01972005  1  -0.047685  0  -0.088218  -0.134826  0  3.99981  0
C  C65  1  0.49054905  0.51563183  0.23838159  1  -0.036981  0  -0.023382  -0.052078  0  3.990601  0
C  C66  1  0.23822154  0.48619093  0.48777685  1  0.064465  0  -0.002442  -0.065975  0  3.940675  0
C  C67  1  0.20429446  0.48642030  0.54791258  1  0.228413  0  0.086362  0.064131  0  3.927458  0
C  C68  1  0.13407196  0.49207071  0.54668151  1  -0.010799  0  -0.068172  -0.161686  0  3.890289  0
C  C69  1  0.09369071  0.49716389  0.48344512  1  -0.01913  0  0.000812  0.131063  0  4.028911  0
C  C70  1  0.12689539  0.49456779  0.42280758  1  0.005243  0  -0.077008  -0.122541  0  3.945962  0
C  C71  1  0.19777214  0.48941384  0.42500150  1  -0.062305  0  -0.074001  -0.078865  0  3.972226  0
C  C72  1  0.87229188  0.54043922  0.47163941  1  -0.037954  0  -0.079927  -0.126114  0  3.953429  0
C  C73  1  0.80083780  0.54023063  0.46537686  1  0.004303  0  -0.066382  -0.064664  0  3.95424  0
C  C74  1  0.79724697  0.48802036  0.57684742  1  0.047232  0  -0.06295  -0.117295  0  3.932954  0
C  C75  1  0.86880228  0.48876690  0.58249728  1  0.172032  0  0.081048  0.020144  0  3.873571  0
C  C76  1  0.90891009  0.51347044  0.52967939  1  -0.002712  0  0.012271  0.093118  0  3.985738  0
C  C77  1  0.01941914  0.50256815  0.47958839  1  -0.017224  0  -0.082107  -0.123398  0  3.972281  0
C  C78  1  0.98383625  0.51290786  0.53406910  1  -0.002866  0  -0.082969  -0.116077  0  3.987016  0
C  C79  1  0.76257504  0.51282974  0.51765973  1  -0.010174  0  -0.011061  -0.027929  0  3.966811  0
C  C80  1  0.38194031  0.75944015  0.51505588  1  0.013963  0  -0.236425  -0.410569  0  3.973942  0
N  N81  1  0.62034179  0.23811185  0.48305250  1  0.399621  0  0.060911  0.519999  0  4.213566  0
N  N82  1  0.24198812  0.47519878  0.61567786  1  0.379839  0  0.059919  0.521711  0  4.208338  0
N  N83  1  0.90068392  0.45923701  0.64595961  1  0.39739  0  0.05822  0.520581  0  4.195014  0
N  N84  1  0.35188099  0.09710422  0.48014512  1  0.377696  0  0.05823  0.518974  0  4.20247  0
O  O85  1  0.50069129  0.49950786  0.49895560  1  -1.231434  0  -0.572717  -1.032197  0  2.536791  0
O  O86  1  0.45659763  0.46207776  0.33920851  1  -1.168961  0  -0.318631  -0.553158  0  2.341764  0
O  O87  1  0.53644656  0.44547390  0.65555101  1  -1.171928  0  -0.317351  -0.549841  0  2.331152  0
O  O88  1  0.65671557  0.54157856  0.46101257  1  -1.166088  0  -0.312198  -0.543201  0  2.317007  0
O  O89  1  0.34865044  0.53145486  0.53288325  1  -1.15928  0  -0.310679  -0.539545  0  2.352497  0
O  O90  1  0.55895900  0.65904628  0.48035402  1  -1.170271  0  -0.318326  -0.553884  0  2.319378  0
O  O91  1  0.44882787  0.34414720  0.44906592  1  -1.166346  0  -0.305423  -0.528564  0  2.309592  0
O  O92  1  0.46474852  0.65145464  0.54087161  1  -1.165632  0  -0.306815  -0.536901  0  2.363049  0
O  O93  1  0.54138541  0.34553974  0.53030607  1  -1.160787  0  -0.307991  -0.535639  0  2.332484  0
O  O94  1  0.65523734  0.47456112  0.55620270  1  -1.171434  0  -0.310915  -0.539435  0  2.333305  0
O  O95  1  0.33946990  0.45350448  0.44451578  1  -1.165293  0  -0.309641  -0.536894  0  2.308519  0
O  O96  1  0.52896871  0.56054080  0.34943129  1  -1.177134  0  -0.318633  -0.551168  0  2.328071  0
O  O97  1  0.46917442  0.53465185  0.65486104  1  -1.170796  0  -0.316317  -0.549978  0  2.3502  0
O  O98  1  0.66830830  0.21762931  0.52129273  1  -0.439046  0  -0.135124  -0.328443  0  1.847076  0
O  O99  1  0.62567824  0.28393768  0.43996675  1  -0.418741  0  -0.128795  -0.320953  0  1.872577  0
O  O100  1  0.22659956  0.50812827  0.66525806  1  -0.444329  0  -0.138671  -0.334357  0  1.849765  0
O  O101  1  0.28468223  0.43200559  0.61823145  1  -0.409779  0  -0.133752  -0.327869  0  1.87515  0
O  O102  1  0.95634253  0.43357378  0.64344529  1  -0.470479  0  -0.138631  -0.338211  0  1.890096  0
O  O103  1  0.86931307  0.46115592  0.69798154  1  -0.436735  0  -0.139163  -0.335429  0  1.858534  0
O  O104  1  0.34191982  0.04465504  0.51470007  1  -0.445593  0  -0.136938  -0.335381  0  1.887359  0
O  O105  1  0.30623663  0.12445499  0.44448537  1  -0.449092  0  -0.135084  -0.330055  0  1.854269  0
