# generated using pymatgen
data_Cu3H6C9N13
_symmetry_space_group_name_H-M   'P 1'
_cell_length_a   20.79989750
_cell_length_b   21.92934326
_cell_length_c   24.38948179
_cell_angle_alpha   85.61860643
_cell_angle_beta   89.42976610
_cell_angle_gamma   87.79300270
_symmetry_Int_Tables_number   1
_chemical_formula_structural   Cu3H6C9N13
_chemical_formula_sum   'Cu12 H24 C36 N52'
_cell_volume   11083.71470092
_cell_formula_units_Z   4
loop_
 _symmetry_equiv_pos_site_id
 _symmetry_equiv_pos_as_xyz
  1  'x, y, z'
loop_
 _atom_site_type_symbol
 _atom_site_label
 _atom_site_symmetry_multiplicity
 _atom_site_fract_x
 _atom_site_fract_y
 _atom_site_fract_z
 _atom_site_occupancy
 _atom_site_pbe_bader_charge
 _atom_site_pbe_bader_spin_density
 _atom_site_pbe_cm5_charge
 _atom_site_pbe_ddec_charge
 _atom_site_pbe_ddec_spin_density
 _atom_site_pbe_ddec_sum_bond_order
 _atom_site_pbe_magmom
Cu  Cu0  1  0.09030001  0.12573238  0.16686217  1  0.554514  0  0.495408  0.222022  0  2.0835  0
Cu  Cu1  1  0.11906318  0.16877789  0.04206258  1  0.552564  0  0.497124  0.217092  0  2.108378  0
Cu  Cu2  1  0.16123551  0.03690771  0.08618925  1  0.551119  0  0.495629  0.216624  0  2.110147  0
Cu  Cu3  1  0.43207377  0.89167102  0.67036029  1  0.54891  0  0.494183  0.213638  0  2.127047  0
Cu  Cu4  1  0.41160239  0.88054395  0.54881154  1  0.55123  0  0.497136  0.220774  0  2.122473  0
Cu  Cu5  1  0.29572089  0.93450357  0.61813734  1  0.553328  0  0.491421  0.218812  0  2.074879  0
Cu  Cu6  1  0.94107864  0.61944158  0.32997886  1  0.551805  0  0.491804  0.216176  0  2.094308  0
Cu  Cu7  1  0.88740308  0.64879675  0.44448697  1  0.547343  0  0.495424  0.214296  0  2.128373  0
Cu  Cu8  1  0.82340234  0.54302807  0.38583785  1  0.553045  0  0.492328  0.216639  0  2.086042  0
Cu  Cu9  1  0.58629761  0.37012947  0.83273804  1  0.553747  0  0.493508  0.221218  0  2.083885  0
Cu  Cu10  1  0.60878300  0.33000643  0.95912099  1  0.54908  0  0.492314  0.210987  0  2.125273  0
Cu  Cu11  1  0.64170032  0.45991311  0.91516184  1  0.546854  0  0.494534  0.215862  0  2.122743  0
H  H12  1  0.98952585  0.23157651  0.19855915  1  0.117221  0  0.12895  0.126889  0  0.979649  0
H  H13  1  0.01197803  0.27516131  0.02288181  1  0.150491  0  0.130842  0.128436  0  0.969823  0
H  H14  1  0.15886725  0.91182430  0.16160586  1  0.1352  0  0.129088  0.127187  0  0.972365  0
H  H15  1  0.10422948  0.04259032  0.28034362  1  0.114457  0  0.127997  0.126031  0  0.982043  0
H  H16  1  0.21522519  0.18904903  0.93857616  1  0.093665  0  0.133428  0.130331  0  0.973679  0
H  H17  1  0.25880657  0.99830156  0.99153704  1  0.096905  0  0.134076  0.131061  0  0.965846  0
H  H18  1  0.53617464  0.77827872  0.69814435  1  0.130953  0  0.130887  0.129037  0  0.977151  0
H  H19  1  0.52483920  0.78547541  0.51991436  1  0.111681  0  0.130516  0.128274  0  0.971328  0
H  H20  1  0.23975308  0.01646637  0.71310502  1  0.099731  0  0.126865  0.126809  0  0.977269  0
H  H21  1  0.43799464  0.98230707  0.76408130  1  0.098152  0  0.12679  0.125542  0  0.983552  0
H  H22  1  0.35297565  0.89747590  0.42980531  1  0.1187  0  0.131215  0.12852  0  0.969701  0
H  H23  1  0.18130646  0.92192405  0.52984541  1  0.123781  0  0.13066  0.12823  0  0.975871  0
H  H24  1  0.03720674  0.73248686  0.30628554  1  0.105993  0  0.128691  0.127751  0  0.979455  0
H  H25  1  0.99192863  0.74120525  0.47977715  1  0.110382  0  0.12842  0.127304  0  0.974274  0
H  H26  1  0.80117580  0.45211981  0.29281968  1  0.099323  0  0.128085  0.126129  0  0.980356  0
H  H27  1  0.97684783  0.53601095  0.23333062  1  0.116662  0  0.12999  0.128455  0  0.970044  0
H  H28  1  0.79121187  0.66384326  0.54342069  1  0.125585  0  0.127509  0.125007  0  0.981615  0
H  H29  1  0.71706397  0.50191865  0.47805642  1  0.117493  0  0.129584  0.127978  0  0.973102  0
H  H30  1  0.49349012  0.26551101  0.80064905  1  0.10216  0  0.127413  0.126251  0  0.982204  0
H  H31  1  0.49986202  0.23255323  0.97835235  1  0.135624  0  0.128096  0.12657  0  0.974328  0
H  H32  1  0.63520365  0.58349713  0.83863106  1  0.119015  0  0.128266  0.126258  0  0.974334  0
H  H33  1  0.60723535  0.45127887  0.71804550  1  0.118606  0  0.129207  0.128453  0  0.977843  0
H  H34  1  0.71013207  0.30816965  0.05975966  1  0.135852  0  0.128776  0.126225  0  0.979857  0
H  H35  1  0.72676192  0.50221898  0.01335516  1  0.127704  0  0.1303  0.128105  0  0.970907  0
C  C36  1  0.00419935  0.23481927  0.15569267  1  0.455002  0  0.019691  -0.060332  0  3.905288  0
C  C37  1  0.97985258  0.27368352  0.11132386  1  0.487611  0  0.070595  0.096978  0  4.127889  0
C  C38  1  0.01534154  0.25645196  0.06528303  1  0.377152  0  0.022412  -0.053219  0  3.917025  0
C  C39  1  0.14509507  0.95190674  0.18307503  1  0.40176  0  0.01844  -0.058979  0  3.91911  0
C  C40  1  0.13345431  0.95671320  0.23942414  1  0.450547  0  0.069133  0.096206  0  4.12438  0
C  C41  1  0.11845250  0.01933255  0.24422296  1  0.437577  0  0.016669  -0.065399  0  3.914896  0
C  C42  1  0.21770676  0.14325859  0.95881341  1  0.475274  0  0.029731  -0.043919  0  3.886664  0
C  C43  1  0.25716880  0.09198836  0.94685484  1  0.508667  0  0.073185  0.084143  0  4.109091  0
C  C44  1  0.23950399  0.04499439  0.98593296  1  0.451505  0  0.030229  -0.043038  0  3.911237  0
C  C45  1  0.52556045  0.78860259  0.65491355  1  0.407949  0  0.021201  -0.058563  0  3.897416  0
C  C46  1  0.54933846  0.75985231  0.60850895  1  0.482542  0  0.070493  0.095904  0  4.129232  0
C  C47  1  0.52018255  0.79307785  0.56321712  1  0.444411  0  0.021925  -0.053399  0  3.92339  0
C  C48  1  0.28945850  0.00065384  0.71870034  1  0.435759  0  0.011843  -0.072653  0  3.926769  0
C  C49  1  0.33518738  0.01794591  0.75588763  1  0.418385  0  0.067457  0.09923  0  4.134024  0
C  C50  1  0.39167310  0.98400884  0.74389607  1  0.448927  0  0.011435  -0.075705  0  3.935346  0
C  C51  1  0.31820377  0.90467598  0.46234772  1  0.395576  0  0.023546  -0.050829  0  3.918091  0
C  C52  1  0.25070114  0.90788783  0.45952167  1  0.484339  0  0.070922  0.092326  0  4.123104  0
C  C53  1  0.22974216  0.91567742  0.51387751  1  0.472383  0  0.023327  -0.054971  0  3.8984  0
C  C54  1  0.01734266  0.72740446  0.34758365  1  0.447603  0  0.014839  -0.068776  0  3.912088  0
C  C55  1  0.03322138  0.75733707  0.39448324  1  0.446792  0  0.068332  0.095685  0  4.135039  0
C  C56  1  0.99509762  0.73082442  0.43703621  1  0.410929  0  0.015748  -0.064588  0  3.929608  0
C  C57  1  0.84257292  0.48022492  0.28522405  1  0.460551  0  0.017443  -0.064063  0  3.910994  0
C  C58  1  0.89054444  0.47734185  0.24419021  1  0.458498  0  0.069178  0.094978  0  4.128974  0
C  C59  1  0.93349360  0.52264880  0.25544870  1  0.431568  0  0.020913  -0.057027  0  3.914086  0
C  C60  1  0.78064501  0.62575166  0.51956414  1  0.474199  0  0.017125  -0.06532  0  3.922329  0
C  C61  1  0.73399721  0.58121398  0.52916401  1  0.394822  0  0.068703  0.092439  0  4.120583  0
C  C62  1  0.74322532  0.54191509  0.48664312  1  0.449372  0  0.01887  -0.058978  0  3.914569  0
C  C63  1  0.50423868  0.26432040  0.84414272  1  0.464444  0  0.014385  -0.069326  0  3.916708  0
C  C64  1  0.47658523  0.22951913  0.88866658  1  0.407181  0  0.06722  0.098325  0  4.134528  0
C  C65  1  0.50673456  0.24820197  0.93549822  1  0.432821  0  0.016024  -0.063491  0  3.92624  0
C  C66  1  0.62770846  0.54307643  0.81682693  1  0.416241  0  0.017231  -0.06111  0  3.927562  0
C  C67  1  0.62323725  0.53781167  0.75994669  1  0.45333  0  0.069333  0.095149  0  4.13745  0
C  C68  1  0.61495218  0.47501455  0.75469330  1  0.422552  0  0.01625  -0.066877  0  3.910452  0
C  C69  1  0.70667393  0.35456605  0.04091109  1  0.419597  0  0.020234  -0.059618  0  3.908345  0
C  C70  1  0.73830822  0.40708614  0.05455043  1  0.456146  0  0.069978  0.094027  0  4.12307  0
C  C71  1  0.71413501  0.45455801  0.01755411  1  0.422138  0  0.021969  -0.053282  0  3.917118  0
N  N72  1  0.63702733  0.62478573  0.63620355  1  -0.045957  0  0.077478  0.220754  0  3.770806  0
N  N73  1  0.86035049  0.37575293  0.14786161  1  -0.028824  0  0.07865  0.199862  0  3.847281  0
N  N74  1  0.37476974  0.12294730  0.84689177  1  -0.044001  0  0.071839  0.20513  0  3.757811  0
N  N75  1  0.13360279  0.87806367  0.36734978  1  -0.033763  0  0.077027  0.220921  0  3.771438  0
N  N76  1  0.05817251  0.21130177  0.08098975  1  -0.782619  0  -0.337024  -0.140831  0  3.764631  0
N  N77  1  0.05075066  0.19736779  0.13696293  1  -0.784472  0  -0.332729  -0.134895  0  3.745049  0
N  N78  1  0.12107583  0.04936571  0.19413541  1  -0.789468  0  -0.333453  -0.133849  0  3.746027  0
N  N79  1  0.13869148  0.00774381  0.15635032  1  -0.777735  0  -0.338091  -0.142591  0  3.760424  0
N  N80  1  0.19360485  0.06651317  0.01907052  1  -0.790797  0  -0.335524  -0.14073  0  3.743278  0
N  N81  1  0.17983437  0.12737345  0.00190771  1  -0.77934  0  -0.32831  -0.125076  0  3.739484  0
N  N82  1  0.48119810  0.83768102  0.58105398  1  -0.765024  0  -0.341504  -0.14847  0  3.754864  0
N  N83  1  0.48494720  0.83514979  0.63784310  1  -0.804086  0  -0.33229  -0.127982  0  3.748682  0
N  N84  1  0.38018016  0.94908694  0.70238731  1  -0.775439  0  -0.338297  -0.134111  0  3.776041  0
N  N85  1  0.31723190  0.96009405  0.68593388  1  -0.775291  0  -0.335635  -0.142129  0  3.743589  0
N  N86  1  0.28141150  0.91669263  0.54636907  1  -0.775782  0  -0.32823  -0.129757  0  3.731677  0
N  N87  1  0.33630078  0.90867554  0.51454875  1  -0.78443  0  -0.33868  -0.144316  0  3.743231  0
N  N88  1  0.95813824  0.68900335  0.41679028  1  -0.779609  0  -0.340741  -0.141648  0  3.77485  0
N  N89  1  0.97300922  0.68580092  0.36176593  1  -0.784998  0  -0.33449  -0.135739  0  3.750593  0
N  N90  1  0.91207382  0.55134244  0.29917986  1  -0.792082  0  -0.33424  -0.137554  0  3.756778  0
N  N91  1  0.85647966  0.52407930  0.31841763  1  -0.773895  0  -0.331655  -0.132931  0  3.748637  0
N  N92  1  0.79115020  0.56238354  0.45344299  1  -0.78271  0  -0.334464  -0.139616  0  3.752397  0
N  N93  1  0.81504488  0.61352831  0.47462669  1  -0.781579  0  -0.336731  -0.13108  0  3.770152  0
N  N94  1  0.55010976  0.29017874  0.92002467  1  -0.769541  0  -0.338478  -0.140361  0  3.770087  0
N  N95  1  0.54784161  0.30089038  0.86347499  1  -0.797724  0  -0.333574  -0.13457  0  3.74645  0
N  N96  1  0.61440975  0.44542240  0.80512260  1  -0.773731  0  -0.332902  -0.135673  0  3.742479  0
N  N97  1  0.62355034  0.48748459  0.84352379  1  -0.768709  0  -0.339397  -0.141685  0  3.76811  0
N  N98  1  0.67221101  0.43192771  0.98362220  1  -0.788918  0  -0.339387  -0.144414  0  3.754312  0
N  N99  1  0.66684747  0.37018785  0.99871709  1  -0.777676  0  -0.333995  -0.129983  0  3.752231  0
N  N100  1  0.91461471  0.33858133  0.15356280  1  -0.023239  0  -0.056795  -0.085886  0  3.243793  0
N  N101  1  0.93125501  0.31863022  0.10758987  1  -0.541246  0  -0.16686  -0.162976  0  3.350784  0
N  N102  1  0.59970720  0.67558021  0.64646457  1  -0.031137  0  -0.054863  -0.085293  0  3.22995  0
N  N103  1  0.58894584  0.70877371  0.60218350  1  -0.512366  0  -0.167796  -0.170617  0  3.381824  0
N  N104  1  0.08768288  0.83675570  0.35999216  1  -0.037319  0  -0.047287  -0.07313  0  3.261957  0
N  N105  1  0.07850201  0.80071414  0.40236238  1  -0.466633  0  -0.169121  -0.169694  0  3.339815  0
N  N106  1  0.42493376  0.16079892  0.84569560  1  -0.037935  0  -0.055884  -0.093626  0  3.275778  0
N  N107  1  0.42903174  0.18671700  0.89047919  1  -0.505742  0  -0.175269  -0.176064  0  3.343495  0
N  N108  1  0.14516331  0.92327954  0.32663111  1  -0.031214  0  -0.051126  -0.088505  0  3.266651  0
N  N109  1  0.13387978  0.90747644  0.27879296  1  -0.490492  0  -0.165919  -0.163801  0  3.332284  0
N  N110  1  0.64210729  0.57522456  0.67405581  1  -0.050989  0  -0.047788  -0.076128  0  3.236269  0
N  N111  1  0.62324877  0.58781174  0.72163443  1  -0.48716  0  -0.167233  -0.167347  0  3.364191  0
N  N112  1  0.37661341  0.08625624  0.80453456  1  -0.021061  0  -0.041232  -0.069644  0  3.305331  0
N  N113  1  0.32532587  0.05872735  0.79666671  1  -0.492784  0  -0.174745  -0.171816  0  3.292209  0
N  N114  1  0.84750490  0.41911364  0.18440699  1  -0.050426  0  -0.056441  -0.087031  0  3.241478  0
N  N115  1  0.89951492  0.43976055  0.20143408  1  -0.501097  0  -0.16355  -0.156324  0  3.333399  0
N  N116  1  0.32315756  0.13398788  0.88401407  1  -0.042189  0  -0.04839  -0.083063  0  3.147783  0
N  N117  1  0.30709067  0.08466425  0.90977301  1  -0.48606  0  -0.142141  -0.119355  0  3.347757  0
N  N118  1  0.67461463  0.62703000  0.58943571  1  -0.041082  0  -0.045389  -0.0776  0  3.285589  0
N  N119  1  0.68822341  0.57549513  0.57110834  1  -0.480252  0  -0.16132  -0.15682  0  3.298531  0
N  N120  1  0.81713340  0.36637638  0.10768878  1  -0.039267  0  -0.054929  -0.083362  0  3.256866  0
N  N121  1  0.78572018  0.41563759  0.09242078  1  -0.486587  0  -0.164582  -0.158277  0  3.330755  0
N  N122  1  0.16204836  0.88177742  0.41783802  1  -0.03178  0  -0.052047  -0.085636  0  3.207738  0
N  N123  1  0.21864533  0.90101078  0.41106973  1  -0.526768  0  -0.156942  -0.151582  0  3.359277  0
