# generated using pymatgen
data_HgH5C7ClO
_symmetry_space_group_name_H-M   'P 1'
_cell_length_a   7.37561336
_cell_length_b   9.45822232
_cell_length_c   10.95178591
_cell_angle_alpha   89.99986148
_cell_angle_beta   89.99997102
_cell_angle_gamma   101.56744947
_symmetry_Int_Tables_number   1
_chemical_formula_structural   HgH5C7ClO
_chemical_formula_sum   'Hg4 H20 C28 Cl4 O4'
_cell_volume   748.48134824
_cell_formula_units_Z   4
loop_
 _symmetry_equiv_pos_site_id
 _symmetry_equiv_pos_as_xyz
  1  'x, y, z'
loop_
 _atom_site_type_symbol
 _atom_site_label
 _atom_site_symmetry_multiplicity
 _atom_site_fract_x
 _atom_site_fract_y
 _atom_site_fract_z
 _atom_site_occupancy
 _atom_site_hle17_bader_spin_density
 _atom_site_hle17_ddec_charge
 _atom_site_hle17_ddec_spin_density
 _atom_site_hle17_ddec_sum_bond_order
 _atom_site_hle17_magmom
 _atom_site_hse06_10hf_bader_spin_density
 _atom_site_hse06_10hf_ddec_charge
 _atom_site_hse06_10hf_ddec_spin_density
 _atom_site_hse06_10hf_ddec_sum_bond_order
 _atom_site_hse06_10hf_magmom
 _atom_site_hse06_bader_spin_density
 _atom_site_hse06_ddec_charge
 _atom_site_hse06_ddec_spin_density
 _atom_site_hse06_ddec_sum_bond_order
 _atom_site_hse06_magmom
 _atom_site_pbe_bader_spin_density
 _atom_site_pbe_cm5_charge
 _atom_site_pbe_ddec_charge
 _atom_site_pbe_ddec_spin_density
 _atom_site_pbe_ddec_sum_bond_order
 _atom_site_pbe_magmom
Hg  Hg0  1  0.00772055  0.79831569  0.42323511  1  0  0.646375  0  1.969556  0  0  0.518017  0  2.412916  0  0  0.555401  0  2.388157  0  0  0.470636  0.493491  0  2.427567  0
Hg  Hg1  1  0.00774479  0.29832321  0.07676980  1  0  0.646421  0  1.969567  0  0  0.518058  0  2.412958  0  0  0.555441  0  2.388198  0  0  0.470661  0.493532  0  2.427608  0
Hg  Hg2  1  0.99226973  0.20168169  0.57677219  1  0  0.646428  0  1.969627  0  0  0.518062  0  2.413026  0  0  0.555448  0  2.388261  0  0  0.470673  0.493536  0  2.427679  0
Hg  Hg3  1  0.99226347  0.70168053  0.92322564  1  0  0.646401  0  1.96965  0  0  0.518058  0  2.413011  0  0  0.55544  0  2.388257  0  0  0.470672  0.493532  0  2.427661  0
H  H4  1  0.60192219  0.31353483  0.56860087  1  0  0.085827  0  0.952743  0  0  0.097188  0  1.0174  0  0  0.099384  0  1.016509  0  0  0.097895  0.095395  0  1.018369  0
H  H5  1  0.60194944  0.81354749  0.93140416  1  0  0.085853  0  0.952674  0  0  0.097246  0  1.01729  0  0  0.099443  0  1.016401  0  0  0.097926  0.095447  0  1.018274  0
H  H6  1  0.39806443  0.68645392  0.43139730  1  0  0.085863  0  0.952845  0  0  0.097267  0  1.017437  0  0  0.099465  0  1.016542  0  0  0.097954  0.095475  0  1.018403  0
H  H7  1  0.39806935  0.18645511  0.06860314  1  0  0.085851  0  0.952688  0  0  0.097246  0  1.017307  0  0  0.099443  0  1.016415  0  0  0.097919  0.095458  0  1.018264  0
H  H8  1  0.48905574  0.22817403  0.36204563  1  0  0.096811  0  0.967157  0  0  0.107706  0  1.026778  0  0  0.109951  0  1.026547  0  0  0.091475  0.106161  0  1.026955  0
H  H9  1  0.48907964  0.72818863  0.13794921  1  0  0.096774  0  0.967394  0  0  0.107743  0  1.026927  0  0  0.109986  0  1.026695  0  0  0.091449  0.106193  0  1.02711  0
H  H10  1  0.51093561  0.77182226  0.63794523  1  0  0.0968  0  0.967129  0  0  0.107724  0  1.026723  0  0  0.109964  0  1.026498  0  0  0.091494  0.106204  0  1.026873  0
H  H11  1  0.51092833  0.27181404  0.86205261  1  0  0.096803  0  0.967288  0  0  0.107737  0  1.026872  0  0  0.109979  0  1.026638  0  0  0.091481  0.106214  0  1.027027  0
H  H12  1  0.58661620  0.38693849  0.18046775  1  0  0.083746  0  0.968213  0  0  0.09114  0  1.037404  0  0  0.093325  0  1.036798  0  0  0.090566  0.089012  0  1.038639  0
H  H13  1  0.58662777  0.88694292  0.31953401  1  0  0.083792  0  0.968109  0  0  0.091175  0  1.03734  0  0  0.093359  0  1.036729  0  0  0.09057  0.089047  0  1.038575  0
H  H14  1  0.41338586  0.61306746  0.81952951  1  0  0.083814  0  0.968151  0  0  0.091183  0  1.037355  0  0  0.093369  0  1.036747  0  0  0.090569  0.089055  0  1.038588  0
H  H15  1  0.41337081  0.11306521  0.68046873  1  0  0.083807  0  0.968104  0  0  0.091189  0  1.03731  0  0  0.093377  0  1.036698  0  0  0.090559  0.089061  0  1.038544  0
H  H16  1  0.79840789  0.62132822  0.20493195  1  0  0.095863  0  0.976211  0  0  0.103606  0  1.044306  0  0  0.105552  0  1.044179  0  0  0.091316  0.103113  0  1.042871  0
H  H17  1  0.79844255  0.12132964  0.29507579  1  0  0.096011  0  0.976061  0  0  0.103725  0  1.044168  0  0  0.105672  0  1.044038  0  0  0.09136  0.103232  0  1.042733  0
H  H18  1  0.20158655  0.37867453  0.79507078  1  0  0.095875  0  0.976249  0  0  0.103609  0  1.044359  0  0  0.105553  0  1.044235  0  0  0.091331  0.103116  0  1.042923  0
H  H19  1  0.20156435  0.87867411  0.70492420  1  0  0.095916  0  0.976016  0  0  0.103652  0  1.044135  0  0  0.105597  0  1.044008  0  0  0.091317  0.103159  0  1.0427  0
H  H20  1  0.76904986  0.47592904  0.70006324  1  0  0.030288  0  0.94177  0  0  0.034498  0  1.020719  0  0  0.03687  0  1.01564  0  0  0.089326  0.033229  0  1.023271  0
H  H21  1  0.76905786  0.97594544  0.79993589  1  0  0.030386  0  0.941545  0  0  0.034578  0  1.020519  0  0  0.03696  0  1.015426  0  0  0.08931  0.033306  0  1.023074  0
H  H22  1  0.23094073  0.52405428  0.29993220  1  0  0.030364  0  0.941582  0  0  0.034557  0  1.020568  0  0  0.036939  0  1.015469  0  0  0.089304  0.033287  0  1.023122  0
H  H23  1  0.23094160  0.02405079  0.20006684  1  0  0.030374  0  0.941549  0  0  0.034568  0  1.020529  0  0  0.036946  0  1.01544  0  0  0.089302  0.033297  0  1.023084  0
C  C24  1  0.82003065  0.60382554  0.40096758  1  0  -0.180364  0  3.671938  0  0  -0.140325  0  3.942735  0  0  -0.154005  0  3.976289  0  0  -0.108491  -0.1308  0  3.919358  0
C  C25  1  0.82005389  0.10383949  0.09903564  1  0  -0.18025  0  3.671909  0  0  -0.140226  0  3.942676  0  0  -0.15391  0  3.976231  0  0  -0.108457  -0.130703  0  3.919298  0
C  C26  1  0.17996311  0.39616965  0.59903516  1  0  -0.180328  0  3.671774  0  0  -0.140284  0  3.942612  0  0  -0.153963  0  3.976167  0  0  -0.108484  -0.130757  0  3.919234  0
C  C27  1  0.17995146  0.89616859  0.90096984  1  0  -0.180287  0  3.671888  0  0  -0.140233  0  3.942733  0  0  -0.153916  0  3.976295  0  0  -0.108478  -0.130705  0  3.919347  0
C  C28  1  0.76394228  0.51527235  0.50339025  1  0  -0.043213  0  3.871257  0  0  -0.022486  0  4.094048  0  0  -0.029773  0  4.126279  0  0  -0.041326  -0.017121  0  4.071826  0
C  C29  1  0.76395461  0.01528199  0.99661447  1  0  -0.043474  0  3.871275  0  0  -0.022677  0  4.094009  0  0  -0.02995  0  4.126205  0  0  -0.041423  -0.017313  0  4.071787  0
C  C30  1  0.23605255  0.48472175  0.49660975  1  0  -0.043414  0  3.871197  0  0  -0.022732  0  4.094092  0  0  -0.030026  0  4.126337  0  0  -0.041448  -0.017371  0  4.071877  0
C  C31  1  0.23604659  0.98472072  0.00339010  1  0  -0.043434  0  3.871319  0  0  -0.022809  0  4.094305  0  0  -0.030087  0  4.126509  0  0  -0.041458  -0.017443  0  4.072079  0
C  C32  1  0.64556435  0.38013603  0.48815637  1  0  -0.069975  0  3.732734  0  0  -0.090485  0  3.979849  0  0  -0.091885  0  4.003064  0  0  -0.080674  -0.089544  0  3.964088  0
C  C33  1  0.64559056  0.88014881  0.01184447  1  0  -0.069912  0  3.732684  0  0  -0.090474  0  3.979833  0  0  -0.091883  0  4.003059  0  0  -0.080636  -0.089531  0  3.964068  0
C  C34  1  0.35442207  0.61985705  0.51183997  1  0  -0.069914  0  3.732787  0  0  -0.090436  0  3.979939  0  0  -0.09184  0  4.003159  0  0  -0.080682  -0.089493  0  3.964184  0
C  C35  1  0.35442069  0.11985599  0.98815645  1  0  -0.069886  0  3.732682  0  0  -0.090386  0  3.979847  0  0  -0.091793  0  4.003068  0  0  -0.080597  -0.089445  0  3.964097  0
C  C36  1  0.58167732  0.33273107  0.37262551  1  0  -0.066368  0  3.739504  0  0  -0.076131  0  3.983359  0  0  -0.079931  0  4.006902  0  0  -0.09161  -0.075168  0  3.968077  0
C  C37  1  0.58169573  0.83274033  0.12737272  1  0  -0.066271  0  3.739276  0  0  -0.076136  0  3.98321  0  0  -0.079931  0  4.006753  0  0  -0.09161  -0.075167  0  3.967931  0
C  C38  1  0.41831432  0.66726630  0.62736901  1  0  -0.066328  0  3.739177  0  0  -0.076153  0  3.983115  0  0  -0.07995  0  4.006659  0  0  -0.091617  -0.075211  0  3.967824  0
C  C39  1  0.41831175  0.16726558  0.87263002  1  0  -0.066327  0  3.739461  0  0  -0.076173  0  3.983384  0  0  -0.079966  0  4.006925  0  0  -0.091632  -0.07523  0  3.968101  0
C  C40  1  0.63602239  0.42124501  0.27169392  1  0  -0.029845  0  3.708194  0  0  -0.045303  0  3.95735  0  0  -0.046928  0  3.979984  0  0  -0.080174  -0.043032  0  3.94257  0
C  C41  1  0.63604472  0.92125396  0.22830957  1  0  -0.029867  0  3.708106  0  0  -0.045316  0  3.957291  0  0  -0.046935  0  3.979915  0  0  -0.080197  -0.043043  0  3.942507  0
C  C42  1  0.36397146  0.57875558  0.72830517  1  0  -0.03  0  3.708186  0  0  -0.045408  0  3.957346  0  0  -0.047026  0  3.979959  0  0  -0.080226  -0.043137  0  3.942571  0
C  C43  1  0.36396450  0.07875843  0.77169408  1  0  -0.029918  0  3.708167  0  0  -0.045341  0  3.957325  0  0  -0.046961  0  3.979945  0  0  -0.080211  -0.043069  0  3.942549  0
C  C44  1  0.75536288  0.55582360  0.28552437  1  0  -0.075823  0  3.785528  0  0  -0.09205  0  4.029507  0  0  -0.095229  0  4.058476  0  0  -0.101157  -0.091671  0  4.010145  0
C  C45  1  0.75538876  0.05582747  0.21447715  1  0  -0.076082  0  3.785975  0  0  -0.092285  0  4.02998  0  0  -0.095465  0  4.05895  0  0  -0.101214  -0.091904  0  4.010613  0
C  C46  1  0.24463098  0.44417700  0.71447654  1  0  -0.075779  0  3.785613  0  0  -0.092  0  4.02955  0  0  -0.095177  0  4.058518  0  0  -0.101129  -0.091619  0  4.010184  0
C  C47  1  0.24462278  0.94417841  0.78552285  1  0  -0.075904  0  3.785513  0  0  -0.092123  0  4.029453  0  0  -0.095303  0  4.058426  0  0  -0.101111  -0.091743  0  4.010087  0
C  C48  1  0.82331202  0.55701432  0.62862091  1  0  0.325034  0  3.707136  0  0  0.279958  0  3.976423  0  0  0.300652  0  3.980623  0  0  0.083953  0.265913  0  3.973229  0
C  C49  1  0.82332963  0.05703833  0.87138187  1  0  0.325027  0  3.707027  0  0  0.279948  0  3.976263  0  0  0.300636  0  3.980475  0  0  0.083957  0.265907  0  3.97307  0
C  C50  1  0.17667722  0.44296901  0.37137818  1  0  0.324969  0  3.707034  0  0  0.279896  0  3.976332  0  0  0.30059  0  3.980536  0  0  0.083924  0.26585  0  3.973142  0
C  C51  1  0.17667872  0.94297081  0.12861904  1  0  0.325032  0  3.706864  0  0  0.279979  0  3.976175  0  0  0.300668  0  3.980384  0  0  0.083979  0.265934  0  3.972983  0
Cl  Cl52  1  0.24839656  0.00328057  0.44774154  1  0  -0.449674  0  1.07715  0  0  -0.381099  0  1.371493  0  0  -0.396866  0  1.350687  0  0  -0.248211  -0.369757  0  1.383648  0
Cl  Cl53  1  0.24840967  0.50329008  0.05225389  1  0  -0.449694  0  1.077218  0  0  -0.38114  0  1.37156  0  0  -0.396908  0  1.350756  0  0  -0.248227  -0.369799  0  1.383712  0
Cl  Cl54  1  0.75159729  0.99672002  0.55225663  1  0  -0.449686  0  1.077217  0  0  -0.381116  0  1.371547  0  0  -0.396887  0  1.350747  0  0  -0.248221  -0.369776  0  1.383706  0
Cl  Cl55  1  0.75159965  0.49671257  0.94774428  1  0  -0.449691  0  1.077178  0  0  -0.381126  0  1.371486  0  0  -0.396898  0  1.350696  0  0  -0.248234  -0.369788  0  1.383645  0
O  O56  1  0.92475367  0.67203494  0.65870627  1  0  -0.448679  0  2.059729  0  0  -0.384221  0  2.296219  0  0  -0.406512  0  2.294548  0  0  -0.263514  -0.36921  0  2.296801  0
O  O57  1  0.92477230  0.17205255  0.84128891  1  0  -0.44872  0  2.059902  0  0  -0.384238  0  2.296323  0  0  -0.406529  0  2.294655  0  0  -0.263472  -0.369229  0  2.296908  0
O  O58  1  0.07523314  0.32794949  0.34129282  1  0  -0.448651  0  2.059846  0  0  -0.384161  0  2.296276  0  0  -0.406452  0  2.294606  0  0  -0.263434  -0.369149  0  2.296859  0
O  O59  1  0.07523779  0.82794794  0.15870561  1  0  -0.448744  0  2.059662  0  0  -0.384242  0  2.296061  0  0  -0.406532  0  2.294392  0  0  -0.263521  -0.369231  0  2.296644  0
