# generated using pymatgen
data_AgH11C10S(NO)3
_symmetry_space_group_name_H-M   'P 1'
_cell_length_a   4.60627791
_cell_length_b   10.19346375
_cell_length_c   12.54096174
_cell_angle_alpha   84.56477138
_cell_angle_beta   84.16839312
_cell_angle_gamma   85.32941827
_symmetry_Int_Tables_number   1
_chemical_formula_structural   AgH11C10S(NO)3
_chemical_formula_sum   'Ag2 H22 C20 S2 N6 O6'
_cell_volume   581.63144998
_cell_formula_units_Z   2
loop_
 _symmetry_equiv_pos_site_id
 _symmetry_equiv_pos_as_xyz
  1  'x, y, z'
loop_
 _atom_site_type_symbol
 _atom_site_label
 _atom_site_symmetry_multiplicity
 _atom_site_fract_x
 _atom_site_fract_y
 _atom_site_fract_z
 _atom_site_occupancy
 _atom_site_hle17_bader_spin_density
 _atom_site_hle17_ddec_charge
 _atom_site_hle17_ddec_spin_density
 _atom_site_hle17_ddec_sum_bond_order
 _atom_site_hle17_magmom
 _atom_site_hse06_10hf_bader_spin_density
 _atom_site_hse06_10hf_ddec_charge
 _atom_site_hse06_10hf_ddec_spin_density
 _atom_site_hse06_10hf_ddec_sum_bond_order
 _atom_site_hse06_10hf_magmom
 _atom_site_hse06_bader_spin_density
 _atom_site_hse06_ddec_charge
 _atom_site_hse06_ddec_spin_density
 _atom_site_hse06_ddec_sum_bond_order
 _atom_site_hse06_magmom
 _atom_site_pbe_bader_spin_density
 _atom_site_pbe_cm5_charge
 _atom_site_pbe_ddec_charge
 _atom_site_pbe_ddec_spin_density
 _atom_site_pbe_ddec_sum_bond_order
 _atom_site_pbe_magmom
Ag  Ag0  1  0.22362819  0.35789208  0.06880692  1  0  0.549238  0  1.430203  0  0  0.442552  0  1.86757  0  0  0.465997  0  1.821393  0  0  0.431475  0.426185  0  1.900144  0
Ag  Ag1  1  0.77635490  0.64209495  0.93119249  1  0  0.549221  0  1.430197  0  0  0.442564  0  1.867487  0  0  0.466009  0  1.821315  0  0  0.431471  0.426201  0  1.900058  0
H  H2  1  0.79156564  0.81334488  0.39427907  1  0  0.126337  0  0.962831  0  0  0.146773  0  1.02291  0  0  0.148388  0  1.022828  0  0  0.097973  0.145544  0  1.023049  0
H  H3  1  0.20845653  0.18665954  0.60573371  1  0  0.126359  0  0.962828  0  0  0.146799  0  1.022872  0  0  0.14841  0  1.022793  0  0  0.098006  0.145567  0  1.023016  0
H  H4  1  0.70877860  0.93352286  0.48881172  1  0  0.122574  0  0.949717  0  0  0.144659  0  1.010205  0  0  0.145888  0  1.010145  0  0  0.097707  0.143701  0  1.010412  0
H  H5  1  0.29123607  0.06649631  0.51119852  1  0  0.122622  0  0.949645  0  0  0.144637  0  1.010222  0  0  0.145865  0  1.010161  0  0  0.097716  0.143685  0  1.010422  0
H  H6  1  0.04832619  0.93103029  0.40984644  1  0  0.119942  0  0.960684  0  0  0.140626  0  1.02403  0  0  0.141957  0  1.024033  0  0  0.096745  0.139599  0  1.024164  0
H  H7  1  0.95170543  0.06898213  0.59015984  1  0  0.11999  0  0.960683  0  0  0.140669  0  1.024034  0  0  0.142001  0  1.024036  0  0  0.096791  0.139643  0  1.02417  0
H  H8  1  0.45510847  0.86682282  0.25448107  1  0  0.141592  0  0.957461  0  0  0.147319  0  1.022224  0  0  0.152052  0  1.019658  0  0  0.112124  0.143754  0  1.02468  0
H  H9  1  0.54494248  0.13317293  0.74551717  1  0  0.141545  0  0.957398  0  0  0.147275  0  1.022168  0  0  0.152001  0  1.019614  0  0  0.112106  0.143713  0  1.02461  0
H  H10  1  0.18042064  0.10753395  0.03132973  1  0  0.124629  0  0.95684  0  0  0.143069  0  1.022978  0  0  0.146047  0  1.019831  0  0  0.092981  0.140661  0  1.025573  0
H  H11  1  0.81958320  0.89244835  0.96866784  1  0  0.124598  0  0.956911  0  0  0.143036  0  1.023075  0  0  0.146014  0  1.019926  0  0  0.092951  0.140626  0  1.025679  0
H  H12  1  0.99286676  0.00350893  0.13429352  1  0  0.124521  0  0.969881  0  0  0.14677  0  1.027721  0  0  0.147058  0  1.030602  0  0  0.097281  0.146508  0  1.025874  0
H  H13  1  0.00715051  0.99647858  0.86571757  1  0  0.124514  0  0.969824  0  0  0.146788  0  1.027677  0  0  0.147073  0  1.03056  0  0  0.097274  0.146526  0  1.025831  0
H  H14  1  0.30241144  0.93679792  0.05883626  1  0  0.138238  0  0.948849  0  0  0.16028  0  1.004181  0  0  0.161384  0  1.005374  0  0  0.102531  0.159278  0  1.003635  0
H  H15  1  0.69759689  0.06318249  0.94116690  1  0  0.138193  0  0.948893  0  0  0.160259  0  1.004215  0  0  0.161361  0  1.005411  0  0  0.102471  0.159259  0  1.003663  0
H  H16  1  0.04989375  0.31119539  0.36035902  1  0  0.113849  0  0.93864  0  0  0.124576  0  1.004196  0  0  0.126813  0  1.002776  0  0  0.102665  0.123007  0  1.005217  0
H  H17  1  0.95006826  0.68880630  0.63964865  1  0  0.113834  0  0.938841  0  0  0.124571  0  1.004375  0  0  0.126812  0  1.002955  0  0  0.102654  0.123004  0  1.005392  0
H  H18  1  0.09246053  0.47915051  0.30734506  1  0  0.11301  0  0.963288  0  0  0.121556  0  1.036313  0  0  0.122831  0  1.036526  0  0  0.100099  0.120655  0  1.036175  0
H  H19  1  0.90751351  0.52085626  0.69266104  1  0  0.112806  0  0.963352  0  0  0.121437  0  1.03634  0  0  0.122728  0  1.036548  0  0  0.100035  0.12054  0  1.036195  0
H  H20  1  0.60492300  0.63808280  0.32829274  1  0  0.10244  0  0.95927  0  0  0.110781  0  1.025565  0  0  0.113907  0  1.023431  0  0  0.100616  0.108559  0  1.027163  0
H  H21  1  0.39502435  0.36191768  0.67170830  1  0  0.102435  0  0.95903  0  0  0.110751  0  1.025334  0  0  0.113872  0  1.023207  0  0  0.10059  0.108532  0  1.026926  0
H  H22  1  0.76298033  0.27917497  0.52937329  1  0  0.088304  0  0.969573  0  0  0.101514  0  1.031297  0  0  0.103655  0  1.030912  0  0  0.097907  0.100031  0  1.031617  0
H  H23  1  0.23699110  0.72082480  0.47062866  1  0  0.08833  0  0.969786  0  0  0.101553  0  1.031469  0  0  0.103699  0  1.031079  0  0  0.097987  0.100073  0  1.031782  0
C  C24  1  0.65892859  0.21838022  0.23843122  1  0  0.350798  0  3.811109  0  0  0.332554  0  4.09769  0  0  0.350626  0  4.11031  0  0  0.237794  0.320066  0  4.08922  0
C  C25  1  0.34108065  0.78161701  0.76156659  1  0  0.350781  0  3.811243  0  0  0.332609  0  4.097734  0  0  0.350682  0  4.110348  0  0  0.237789  0.320124  0  4.089259  0
C  C26  1  0.68932143  0.01014041  0.32365318  1  0  0.362431  0  3.729338  0  0  0.368388  0  3.981916  0  0  0.381311  0  3.997501  0  0  0.133673  0.359964  0  3.971245  0
C  C27  1  0.31069490  0.98986385  0.67634624  1  0  0.362027  0  3.729423  0  0  0.368179  0  3.981778  0  0  0.381101  0  3.997364  0  0  0.133636  0.359752  0  3.971112  0
C  C28  1  0.81587113  0.91597229  0.40848145  1  0  -0.376309  0  3.682962  0  0  -0.460161  0  3.915679  0  0  -0.462951  0  3.921151  0  0  -0.236118  -0.458124  0  3.912032  0
C  C29  1  0.18413400  0.08404274  0.59151985  1  0  -0.376305  0  3.682862  0  0  -0.460151  0  3.915538  0  0  -0.462941  0  3.921011  0  0  -0.236246  -0.458118  0  3.911893  0
C  C30  1  0.50751210  0.96936958  0.25260606  1  0  -0.29234  0  3.617753  0  0  -0.31347  0  3.85874  0  0  -0.325754  0  3.875798  0  0  -0.092558  -0.306018  0  3.848155  0
C  C31  1  0.49252818  0.03062505  0.74739259  1  0  -0.292288  0  3.617541  0  0  -0.313464  0  3.858487  0  0  -0.325749  0  3.875551  0  0  -0.092629  -0.306006  0  3.847901  0
C  C32  1  0.40044060  0.06292095  0.17424011  1  0  0.385806  0  3.700963  0  0  0.385109  0  3.953033  0  0  0.399662  0  3.968215  0  0  0.139079  0.375541  0  3.942416  0
C  C33  1  0.59959888  0.93706772  0.82575745  1  0  0.38582  0  3.700705  0  0  0.385183  0  3.952746  0  0  0.399738  0  3.967921  0  0  0.139277  0.375617  0  3.942128  0
C  C34  1  0.20818037  0.02679025  0.09454497  1  0  -0.383318  0  3.661314  0  0  -0.463057  0  3.89124  0  0  -0.467404  0  3.898086  0  0  -0.242132  -0.45977  0  3.886866  0
C  C35  1  0.79185050  0.97319638  0.90545940  1  0  -0.383163  0  3.661314  0  0  -0.463041  0  3.891354  0  0  -0.467385  0  3.898197  0  0  -0.242088  -0.459754  0  3.886983  0
C  C36  1  0.93435860  0.40531505  0.33458258  1  0  -0.180508  0  3.63425  0  0  -0.222547  0  3.884157  0  0  -0.221567  0  3.893177  0  0  -0.144246  -0.223166  0  3.877803  0
C  C37  1  0.06560806  0.59468858  0.66541043  1  0  -0.180266  0  3.634361  0  0  -0.222355  0  3.884262  0  0  -0.221405  0  3.893328  0  0  -0.144108  -0.222976  0  3.877902  0
C  C38  1  0.71047472  0.45367016  0.42002248  1  0  0.097616  0  3.766816  0  0  0.12048  0  3.998372  0  0  0.119199  0  4.025231  0  0  -0.018108  0.121418  0  3.979893  0
C  C39  1  0.28947141  0.54634614  0.57997653  1  0  0.097732  0  3.767045  0  0  0.120404  0  3.998843  0  0  0.119125  0  4.025708  0  0  -0.018123  0.121336  0  3.980373  0
C  C40  1  0.56042117  0.57813640  0.40418754  1  0  -0.12151  0  3.744819  0  0  -0.140601  0  3.991734  0  0  -0.143333  0  4.013629  0  0  -0.095005  -0.13872  0  3.976579  0
C  C41  1  0.43952307  0.42187887  0.59581002  1  0  -0.121448  0  3.744557  0  0  -0.140431  0  3.991501  0  0  -0.143156  0  4.01339  0  0  -0.094935  -0.138551  0  3.97635  0
C  C42  1  0.64697106  0.37599983  0.51652325  1  0  -0.110764  0  3.739729  0  0  -0.130697  0  3.983629  0  0  -0.133608  0  4.006731  0  0  -0.093159  -0.128334  0  3.967526  0
C  C43  1  0.35297841  0.62401059  0.48347852  1  0  -0.110621  0  3.739908  0  0  -0.13049  0  3.983846  0  0  -0.1334  0  4.006939  0  0  -0.093171  -0.128133  0  3.96775  0
S  S44  1  0.76708433  0.38157354  0.21235446  1  0  0.020807  0  2.584312  0  0  0.027595  0  2.996766  0  0  0.022601  0  2.984779  0  0  0.045807  0.031181  0  3.00534  0
S  S45  1  0.23291224  0.61843051  0.78764878  1  0  0.020701  0  2.584175  0  0  0.02751  0  2.996549  0  0  0.022509  0  2.984586  0  0  0.045765  0.031093  0  3.005137  0
N  N46  1  0.47505900  0.18862748  0.16820502  1  0  -0.450393  0  3.195154  0  0  -0.388229  0  3.473128  0  0  -0.410027  0  3.484294  0  0  -0.338563  -0.373323  0  3.465368  0
N  N47  1  0.52495369  0.81136577  0.83178502  1  0  -0.450329  0  3.195301  0  0  -0.388178  0  3.473195  0  0  -0.409976  0  3.484362  0  0  -0.338585  -0.373273  0  3.465433  0
N  N48  1  0.76616557  0.13645104  0.31622725  1  0  -0.432776  0  3.005587  0  0  -0.398098  0  3.266454  0  0  -0.415488  0  3.279986  0  0  -0.321057  -0.386561  0  3.257326  0
N  N49  1  0.23384593  0.86355515  0.68377296  1  0  -0.432625  0  3.005408  0  0  -0.39807  0  3.26626  0  0  -0.41546  0  3.27979  0  0  -0.321026  -0.386531  0  3.25713  0
N  N50  1  0.29490724  0.66756082  0.11939360  1  0  0.687915  0  4.124468  0  0  0.72921  0  4.401464  0  0  0.758135  0  4.408019  0  0  0.091054  0.709436  0  4.39605  0
N  N51  1  0.70509910  0.33243041  0.88060158  1  0  0.687885  0  4.124471  0  0  0.729184  0  4.401469  0  0  0.758115  0  4.408033  0  0  0.091013  0.709419  0  4.396044  0
O  O52  1  0.22719823  0.59849726  0.04525377  1  0  -0.534863  0  1.94453  0  0  -0.514901  0  2.234646  0  0  -0.533159  0  2.218766  0  0  -0.231764  -0.501387  0  2.244925  0
O  O53  1  0.77283619  0.40149626  0.95473638  1  0  -0.534743  0  1.944398  0  0  -0.514802  0  2.234556  0  0  -0.533051  0  2.218646  0  0  -0.231716  -0.501291  0  2.244832  0
O  O54  1  0.12724352  0.68167908  0.20289520  1  0  -0.424311  0  1.741351  0  0  -0.413951  0  1.942823  0  0  -0.428085  0  1.939001  0  0  -0.173069  -0.404226  0  1.94554  0
O  O55  1  0.87274954  0.31830405  0.79709625  1  0  -0.42424  0  1.741258  0  0  -0.413948  0  1.942833  0  0  -0.428044  0  1.938925  0  0  -0.173038  -0.404233  0  1.945555  0
O  O56  1  0.53797906  0.72079338  0.10443260  1  0  -0.463136  0  1.819676  0  0  -0.448265  0  2.056356  0  0  -0.466311  0  2.048896  0  0  -0.19178  -0.435627  0  2.061698  0
O  O57  1  0.46201571  0.27920964  0.89556757  1  0  -0.463187  0  1.819766  0  0  -0.448312  0  2.056462  0  0  -0.466373  0  2.049005  0  0  -0.191816  -0.435679  0  2.061803  0
