# generated using pymatgen
data_CdH8C12N7O3
_symmetry_space_group_name_H-M   'P 1'
_cell_length_a   6.26098222
_cell_length_b   10.71575317
_cell_length_c   11.33749369
_cell_angle_alpha   107.91423845
_cell_angle_beta   96.35794418
_cell_angle_gamma   104.90736043
_symmetry_Int_Tables_number   1
_chemical_formula_structural   CdH8C12N7O3
_chemical_formula_sum   'Cd2 H16 C24 N14 O6'
_cell_volume   684.33417908
_cell_formula_units_Z   2
loop_
 _symmetry_equiv_pos_site_id
 _symmetry_equiv_pos_as_xyz
  1  'x, y, z'
loop_
 _atom_site_type_symbol
 _atom_site_label
 _atom_site_symmetry_multiplicity
 _atom_site_fract_x
 _atom_site_fract_y
 _atom_site_fract_z
 _atom_site_occupancy
 _atom_site_hle17_bader_spin_density
 _atom_site_hle17_ddec_charge
 _atom_site_hle17_ddec_spin_density
 _atom_site_hle17_ddec_sum_bond_order
 _atom_site_hle17_magmom
 _atom_site_hse06_10hf_bader_spin_density
 _atom_site_hse06_10hf_ddec_charge
 _atom_site_hse06_10hf_ddec_spin_density
 _atom_site_hse06_10hf_ddec_sum_bond_order
 _atom_site_hse06_10hf_magmom
 _atom_site_hse06_bader_spin_density
 _atom_site_hse06_ddec_charge
 _atom_site_hse06_ddec_spin_density
 _atom_site_hse06_ddec_sum_bond_order
 _atom_site_hse06_magmom
 _atom_site_pbe_bader_spin_density
 _atom_site_pbe_cm5_charge
 _atom_site_pbe_ddec_charge
 _atom_site_pbe_ddec_spin_density
 _atom_site_pbe_ddec_sum_bond_order
 _atom_site_pbe_magmom
Cd  Cd0  1  0.31625987  0.68840808  0.30659562  1  0  1.009391  0  1.871851  0  0  0.817071  0  2.335972  0  0  0.868971  0  2.291238  0  0  0.799513  0.779578  0  2.368406  0
Cd  Cd1  1  0.68374480  0.31159268  0.69340411  1  0  1.009324  0  1.871908  0  0  0.81702  0  2.336023  0  0  0.868918  0  2.291291  0  0  0.799498  0.779523  0  2.368456  0
H  H2  1  0.22962271  0.96347122  0.50049166  1  0  0.092632  0  0.928992  0  0  0.10265  0  0.990684  0  0  0.104811  0  0.988853  0  0  0.1207  0.100984  0  0.992258  0
H  H3  1  0.77037027  0.03652534  0.49950620  1  0  0.092626  0  0.928975  0  0  0.102645  0  0.99067  0  0  0.104807  0  0.988839  0  0  0.120716  0.100976  0  0.992246  0
H  H4  1  0.06953684  0.01991603  0.69546486  1  0  0.111545  0  0.968726  0  0  0.115891  0  1.037904  0  0  0.119399  0  1.036492  0  0  0.105826  0.113747  0  1.038226  0
H  H5  1  0.93045667  0.98008157  0.30453422  1  0  0.111551  0  0.968718  0  0  0.115897  0  1.037891  0  0  0.119405  0  1.036478  0  0  0.10583  0.113752  0  1.03821  0
H  H6  1  0.05448284  0.86618488  0.82624716  1  0  0.096815  0  0.96053  0  0  0.108872  0  1.019488  0  0  0.11112  0  1.018359  0  0  0.108362  0.107143  0  1.020736  0
H  H7  1  0.94552450  0.13381796  0.17375597  1  0  0.096825  0  0.96053  0  0  0.108897  0  1.019475  0  0  0.111145  0  1.018342  0  0  0.108373  0.107165  0  1.020743  0
H  H8  1  0.20220055  0.66577054  0.75711730  1  0  0.121199  0  0.945873  0  0  0.129152  0  1.007523  0  0  0.132503  0  1.006268  0  0  0.110482  0.127084  0  1.007961  0
H  H9  1  0.79780679  0.33423231  0.24288583  1  0  0.12115  0  0.945856  0  0  0.129105  0  1.007513  0  0  0.132457  0  1.006256  0  0  0.110475  0.127043  0  1.007948  0
H  H10  1  0.37082013  0.17196992  0.20250363  1  0  0.112866  0  0.978929  0  0  0.119197  0  1.042982  0  0  0.12258  0  1.041796  0  0  0.107475  0.116298  0  1.045116  0
H  H11  1  0.62918192  0.82802877  0.79749535  1  0  0.112874  0  0.978979  0  0  0.119195  0  1.043042  0  0  0.122578  0  1.041856  0  0  0.107468  0.116291  0  1.045181  0
H  H12  1  0.25745744  0.09372305  0.97124647  1  0  0.104282  0  0.939165  0  0  0.117078  0  0.995689  0  0  0.11924  0  0.994313  0  0  0.11325  0.115337  0  0.996963  0
H  H13  1  0.74254675  0.90627668  0.02875381  1  0  0.104316  0  0.939136  0  0  0.117155  0  0.995618  0  0  0.11932  0  0.994244  0  0  0.113263  0.11541  0  0.996894  0
H  H14  1  0.19437759  0.26319762  0.86862167  1  0  0.099658  0  0.979377  0  0  0.106374  0  1.045714  0  0  0.108174  0  1.046921  0  0  0.108927  0.1048  0  1.045808  0
H  H15  1  0.80561754  0.73679999  0.13137838  1  0  0.099681  0  0.979368  0  0  0.106419  0  1.045683  0  0  0.108219  0  1.046889  0  0  0.108961  0.104845  0  1.045776  0
H  H16  1  0.23851665  0.50375322  0.00818924  1  0  0.091031  0  0.942669  0  0  0.098872  0  1.007884  0  0  0.101608  0  1.005429  0  0  0.117968  0.097019  0  1.009434  0
H  H17  1  0.76148103  0.49624645  0.99180802  1  0  0.091053  0  0.942692  0  0  0.098902  0  1.007883  0  0  0.101639  0  1.005427  0  0  0.117987  0.097046  0  1.009435  0
C  C18  1  0.22252696  0.90085706  0.56056452  1  0  0.150593  0  3.681246  0  0  0.115617  0  3.939867  0  0  0.122855  0  3.957549  0  0  0.053513  0.110904  0  3.927915  0
C  C19  1  0.77747188  0.09914160  0.43943516  1  0  0.150555  0  3.681172  0  0  0.115575  0  3.939827  0  0  0.122814  0  3.957509  0  0  0.053494  0.110862  0  3.927877  0
C  C20  1  0.13388163  0.93210471  0.66985254  1  0  -0.099072  0  3.688553  0  0  -0.113297  0  3.944438  0  0  -0.11959  0  3.964655  0  0  -0.07704  -0.109062  0  3.930291  0
C  C21  1  0.86611719  0.06789395  0.33014625  1  0  -0.099088  0  3.688549  0  0  -0.113297  0  3.944431  0  0  -0.119591  0  3.964646  0  0  -0.077064  -0.109057  0  3.930282  0
C  C22  1  0.12528770  0.84682360  0.74142812  1  0  0.001115  0  3.700812  0  0  -0.020098  0  3.951323  0  0  -0.017265  0  3.970168  0  0  -0.067026  -0.021891  0  3.938327  0
C  C23  1  0.87471701  0.15317717  0.25857338  1  0  0.001124  0  3.700834  0  0  -0.020103  0  3.951341  0  0  -0.017269  0  3.970188  0  0  -0.067  -0.021903  0  3.938353  0
C  C24  1  0.20988964  0.73554942  0.70415574  1  0  -0.127886  0  3.68661  0  0  -0.147844  0  3.935783  0  0  -0.153534  0  3.955713  0  0  -0.07536  -0.144094  0  3.92193  0
C  C25  1  0.79011507  0.26445135  0.29584575  1  0  -0.127759  0  3.686549  0  0  -0.147727  0  3.935724  0  0  -0.153417  0  3.955654  0  0  -0.075357  -0.143975  0  3.92187  0
C  C26  1  0.30555290  0.71493265  0.59693698  1  0  0.177818  0  3.745785  0  0  0.174183  0  3.987284  0  0  0.179792  0  4.008165  0  0  0.117305  0.170792  0  3.972962  0
C  C27  1  0.69444856  0.28506809  0.40306345  1  0  0.177694  0  3.74581  0  0  0.174113  0  3.987317  0  0  0.179722  0  4.008197  0  0  0.11731  0.170726  0  3.97299  0
C  C28  1  0.41166198  0.60404176  0.55319017  1  0  0.149836  0  3.665663  0  0  0.13886  0  3.91508  0  0  0.144225  0  3.931013  0  0  0.144869  0.134922  0  3.904736  0
C  C29  1  0.58833735  0.39595793  0.44680895  1  0  0.149943  0  3.665668  0  0  0.138833  0  3.915132  0  0  0.144197  0  3.931065  0  0  0.144861  0.134897  0  3.904783  0
C  C30  1  0.45181721  0.44033874  0.37000397  1  0  0.138196  0  3.677639  0  0  0.127094  0  3.92841  0  0  0.13216  0  3.9452  0  0  0.141253  0.123748  0  3.916976  0
C  C31  1  0.54817839  0.55965990  0.62999464  1  0  0.13831  0  3.677479  0  0  0.126984  0  3.92846  0  0  0.132049  0  3.945249  0  0  0.141206  0.123644  0  3.91702  0
C  C32  1  0.37965222  0.38323682  0.22955986  1  0  0.176053  0  3.755339  0  0  0.171247  0  3.998425  0  0  0.17648  0  4.020676  0  0  0.118233  0.168274  0  3.982588  0
C  C33  1  0.62034614  0.61676081  0.77044037  1  0  0.175854  0  3.755538  0  0  0.171158  0  3.998589  0  0  0.176391  0  4.020838  0  0  0.118209  0.168183  0  3.982748  0
C  C34  1  0.34765598  0.24545560  0.15820597  1  0  -0.14127  0  3.716266  0  0  -0.158545  0  3.961277  0  0  -0.164932  0  3.981452  0  0  -0.075699  -0.155854  0  3.949686  0
C  C35  1  0.65234175  0.75454408  0.84179394  1  0  -0.141137  0  3.716387  0  0  -0.158411  0  3.961353  0  0  -0.164799  0  3.981533  0  0  -0.075643  -0.155719  0  3.949755  0
C  C36  1  0.28022562  0.20056091  0.02709715  1  0  0.020583  0  3.685075  0  0  -0.001177  0  3.936702  0  0  0.002981  0  3.952735  0  0  -0.058655  -0.003266  0  3.926793  0
C  C37  1  0.71977220  0.79943569  0.97290099  1  0  0.020391  0  3.685343  0  0  -0.001412  0  3.937026  0  0  0.002738  0  3.953064  0  0  -0.058778  -0.003501  0  3.927113  0
C  C38  1  0.24368605  0.29351000  0.97063992  1  0  -0.082404  0  3.702359  0  0  -0.09994  0  3.960748  0  0  -0.105622  0  3.981967  0  0  -0.076638  -0.097864  0  3.947848  0
C  C39  1  0.75631016  0.70648658  0.02935813  1  0  -0.082359  0  3.702461  0  0  -0.099942  0  3.960884  0  0  -0.105623  0  3.982103  0  0  -0.07666  -0.097869  0  3.947983  0
C  C40  1  0.26977880  0.42792030  0.04790673  1  0  0.135422  0  3.684745  0  0  0.104177  0  3.938005  0  0  0.110681  0  3.956049  0  0  0.052123  0.100411  0  3.925326  0
C  C41  1  0.73021582  0.57207628  0.95209211  1  0  0.135315  0  3.68468  0  0  0.104098  0  3.937967  0  0  0.110602  0  3.956008  0  0  0.052074  0.100332  0  3.92529  0
N  N42  1  0.30419015  0.79414508  0.52415489  1  0  -0.351137  0  3.21311  0  0  -0.28194  0  3.467901  0  0  -0.300739  0  3.486975  0  0  -0.319877  -0.268773  0  3.454399  0
N  N43  1  0.69580868  0.20585358  0.47584390  1  0  -0.351062  0  3.213075  0  0  -0.281914  0  3.467902  0  0  -0.300713  0  3.486973  0  0  -0.319891  -0.26875  0  3.454402  0
N  N44  1  0.37237789  0.54305825  0.42740957  1  0  -0.323366  0  3.240236  0  0  -0.271063  0  3.499505  0  0  -0.284096  0  3.515822  0  0  -0.302198  -0.262514  0  3.488923  0
N  N45  1  0.62762094  0.45694041  0.57258923  1  0  -0.323442  0  3.240166  0  0  -0.271038  0  3.499503  0  0  -0.28407  0  3.515819  0  0  -0.302197  -0.262487  0  3.488911  0
N  N46  1  0.33526215  0.47157818  0.17416082  1  0  -0.34809  0  3.22629  0  0  -0.276445  0  3.476245  0  0  -0.295734  0  3.497138  0  0  -0.321527  -0.261782  0  3.461197  0
N  N47  1  0.66473296  0.52841943  0.82583834  1  0  -0.347889  0  3.226223  0  0  -0.276285  0  3.476156  0  0  -0.295572  0  3.497048  0  0  -0.321435  -0.261623  0  3.461107  0
N  N48  1  0.27992039  0.85895436  0.15756705  1  0  0.681554  0  4.152371  0  0  0.711349  0  4.447915  0  0  0.739707  0  4.455066  0  0  0.092084  0.692259  0  4.442126  0
N  N49  1  0.72008111  0.14104328  0.84242895  1  0  0.681206  0  4.152786  0  0  0.710794  0  4.448549  0  0  0.739151  0  4.455711  0  0  0.09192  0.691703  0  4.442757  0
N  N50  1  0.71795515  0.76233492  0.35972041  1  0  -0.497346  0  2.568461  0  0  -0.479  0  2.849259  0  0  -0.496685  0  2.85772  0  0  -0.261999  -0.466761  0  2.843852  0
N  N51  1  0.28204726  0.23767098  0.64028421  1  0  -0.497629  0  2.568217  0  0  -0.479301  0  2.849049  0  0  -0.49699  0  2.857509  0  0  -0.262139  -0.467046  0  2.843638  0
N  N52  1  0.81863190  0.68388188  0.32108388  1  0  0.398621  0  4.260357  0  0  0.427965  0  4.547414  0  0  0.445174  0  4.578228  0  0  0.071291  0.416319  0  4.526794  0
N  N53  1  0.18136756  0.31613118  0.67892266  1  0  0.398789  0  4.260354  0  0  0.428127  0  4.547396  0  0  0.445336  0  4.578211  0  0  0.071293  0.416481  0  4.526783  0
N  N54  1  0.91869927  0.60493592  0.28172441  1  0  -0.505277  0  2.547895  0  0  -0.489539  0  2.82723  0  0  -0.507042  0  2.834808  0  0  -0.272285  -0.477567  0  2.822416  0
N  N55  1  0.08130894  0.39507206  0.71827937  1  0  -0.505172  0  2.548187  0  0  -0.489415  0  2.8275  0  0  -0.506912  0  2.835082  0  0  -0.272129  -0.477453  0  2.822687  0
O  O56  1  0.30182281  0.73875209  0.11103491  1  0  -0.487904  0  1.811376  0  0  -0.467089  0  2.045656  0  0  -0.486677  0  2.04081  0  0  -0.201046  -0.452787  0  2.049268  0
O  O57  1  0.69819148  0.26124872  0.88896273  1  0  -0.487759  0  1.811489  0  0  -0.466902  0  2.045853  0  0  -0.486492  0  2.041011  0  0  -0.201014  -0.452596  0  2.049453  0
O  O58  1  0.26823144  0.90186349  0.27505381  1  0  -0.491281  0  1.754718  0  0  -0.470126  0  1.979129  0  0  -0.488806  0  1.973183  0  0  -0.207108  -0.456853  0  1.982811  0
O  O59  1  0.73175984  0.09813304  0.72493954  1  0  -0.491111  0  1.754825  0  0  -0.469893  0  1.979301  0  0  -0.48857  0  1.973349  0  0  -0.206986  -0.456615  0  1.982976  0
O  O60  1  0.26932590  0.93107608  0.09091298  1  0  -0.414218  0  1.748592  0  0  -0.409504  0  1.956543  0  0  -0.421701  0  1.951942  0  0  -0.166692  -0.400511  0  1.960217  0
O  O61  1  0.73067187  0.06892050  0.90908251  1  0  -0.414135  0  1.748694  0  0  -0.409319  0  1.956675  0  0  -0.421509  0  1.95207  0  0  -0.166669  -0.400324  0  1.960349  0
