# generated using pymatgen
data_BaH6C5NO4
_symmetry_space_group_name_H-M   'P 1'
_cell_length_a   8.13109906
_cell_length_b   9.74769335
_cell_length_c   10.41819540
_cell_angle_alpha   118.81024695
_cell_angle_beta   90.00010714
_cell_angle_gamma   89.99990136
_symmetry_Int_Tables_number   1
_chemical_formula_structural   BaH6C5NO4
_chemical_formula_sum   'Ba4 H24 C20 N4 O16'
_cell_volume   723.53079827
_cell_formula_units_Z   4
loop_
 _symmetry_equiv_pos_site_id
 _symmetry_equiv_pos_as_xyz
  1  'x, y, z'
loop_
 _atom_site_type_symbol
 _atom_site_label
 _atom_site_symmetry_multiplicity
 _atom_site_fract_x
 _atom_site_fract_y
 _atom_site_fract_z
 _atom_site_occupancy
 _atom_site_hle17_bader_spin_density
 _atom_site_hle17_ddec_charge
 _atom_site_hle17_ddec_spin_density
 _atom_site_hle17_ddec_sum_bond_order
 _atom_site_hle17_magmom
 _atom_site_hse06_10hf_bader_spin_density
 _atom_site_hse06_10hf_ddec_charge
 _atom_site_hse06_10hf_ddec_spin_density
 _atom_site_hse06_10hf_ddec_sum_bond_order
 _atom_site_hse06_10hf_magmom
 _atom_site_hse06_bader_spin_density
 _atom_site_hse06_ddec_charge
 _atom_site_hse06_ddec_spin_density
 _atom_site_hse06_ddec_sum_bond_order
 _atom_site_hse06_magmom
 _atom_site_pbe_bader_spin_density
 _atom_site_pbe_cm5_charge
 _atom_site_pbe_ddec_charge
 _atom_site_pbe_ddec_spin_density
 _atom_site_pbe_ddec_sum_bond_order
 _atom_site_pbe_magmom
Ba  Ba0  1  0.53618270  0.94884805  0.27116763  1  0  1.602236  0  1.222899  0  0  1.44553  0  1.630678  0  0  1.486976  0  1.589411  0  0  0.975527  1.416919  0  1.658112  0
Ba  Ba1  1  0.03618352  0.05115255  0.22883227  1  0  1.60223  0  1.222901  0  0  1.445516  0  1.630694  0  0  1.486961  0  1.589428  0  0  0.975521  1.416909  0  1.658125  0
Ba  Ba2  1  0.46381512  0.05115320  0.72883057  1  0  1.602232  0  1.222893  0  0  1.445563  0  1.63066  0  0  1.48701  0  1.589393  0  0  0.975522  1.416935  0  1.658129  0
Ba  Ba3  1  0.96381430  0.94884757  0.77117117  1  0  1.602229  0  1.222911  0  0  1.445557  0  1.630677  0  0  1.487002  0  1.589412  0  0  0.975514  1.416937  0  1.65813  0
H  H4  1  0.54183999  0.41854450  0.83471204  1  0  0.055978  0  0.93274  0  0  0.071044  0  1.002846  0  0  0.072456  0  1.002029  0  0  0.105599  0.070513  0  1.002409  0
H  H5  1  0.04183956  0.58145547  0.66528776  1  0  0.055994  0  0.932737  0  0  0.071053  0  1.002857  0  0  0.072465  0  1.002042  0  0  0.105603  0.070521  0  1.002422  0
H  H6  1  0.45815660  0.58146146  0.16529306  1  0  0.0559  0  0.932822  0  0  0.070962  0  1.002933  0  0  0.072376  0  1.002114  0  0  0.105555  0.07043  0  1.002501  0
H  H7  1  0.95816072  0.41853758  0.33470580  1  0  0.05588  0  0.932846  0  0  0.070955  0  1.002944  0  0  0.072367  0  1.002126  0  0  0.105535  0.070422  0  1.002509  0
H  H8  1  0.68561399  0.51126639  0.97999153  1  0  0.072262  0  0.931931  0  0  0.090578  0  0.990806  0  0  0.091571  0  0.989962  0  0  0.113427  0.089494  0  0.99229  0
H  H9  1  0.18561463  0.48873346  0.52000939  1  0  0.072278  0  0.931911  0  0  0.090593  0  0.990789  0  0  0.091588  0  0.989942  0  0  0.113426  0.089513  0  0.992268  0
H  H10  1  0.31438383  0.48873957  0.02001260  1  0  0.072232  0  0.931957  0  0  0.090541  0  0.990851  0  0  0.091534  0  0.990009  0  0  0.113399  0.089478  0  0.992312  0
H  H11  1  0.81438565  0.51125843  0.47998365  1  0  0.072224  0  0.931975  0  0  0.090545  0  0.990858  0  0  0.091539  0  0.990014  0  0  0.113389  0.089469  0  0.992333  0
H  H12  1  0.39413643  0.60148610  0.76092371  1  0  0.086034  0  0.915318  0  0  0.098239  0  0.978548  0  0  0.100656  0  0.976598  0  0  0.105138  0.096583  0  0.97991  0
H  H13  1  0.89413790  0.39851473  0.73907700  1  0  0.086024  0  0.915322  0  0  0.098244  0  0.978544  0  0  0.100653  0  0.976589  0  0  0.105137  0.096587  0  0.979907  0
H  H14  1  0.60586262  0.39851986  0.23908139  1  0  0.085986  0  0.915403  0  0  0.098229  0  0.978615  0  0  0.100631  0  0.976659  0  0  0.105117  0.096574  0  0.979975  0
H  H15  1  0.10586484  0.60148184  0.26091910  1  0  0.08597  0  0.915373  0  0  0.098205  0  0.978588  0  0  0.100616  0  0.976635  0  0  0.105117  0.09655  0  0.979948  0
H  H16  1  0.27724834  0.61904450  0.91318314  1  0  0.101145  0  0.921179  0  0  0.118627  0  0.976085  0  0  0.120749  0  0.974207  0  0  0.123071  0.116985  0  0.977886  0
H  H17  1  0.77724948  0.38095643  0.58681743  1  0  0.101193  0  0.921089  0  0  0.118639  0  0.97606  0  0  0.120755  0  0.974176  0  0  0.123073  0.116997  0  0.97786  0
H  H18  1  0.72275071  0.38096380  0.08682204  1  0  0.101136  0  0.92115  0  0  0.118626  0  0.976083  0  0  0.120736  0  0.974198  0  0  0.123065  0.116985  0  0.977883  0
H  H19  1  0.22275203  0.61903898  0.41318006  1  0  0.10114  0  0.921156  0  0  0.118621  0  0.976087  0  0  0.120738  0  0.974205  0  0  0.123062  0.11698  0  0.977887  0
H  H20  1  0.63332174  0.80823198  0.87804245  1  0  0.116223  0  0.953685  0  0  0.130232  0  1.014204  0  0  0.13329  0  1.01204  0  0  0.135203  0.12798  0  1.015868  0
H  H21  1  0.13332201  0.19176439  0.62195492  1  0  0.1162  0  0.953728  0  0  0.130275  0  1.014153  0  0  0.133336  0  1.011999  0  0  0.135207  0.128023  0  1.015818  0
H  H22  1  0.36668347  0.19177165  0.12196353  1  0  0.116256  0  0.953674  0  0  0.130253  0  1.014218  0  0  0.133314  0  1.012057  0  0  0.135221  0.128001  0  1.015881  0
H  H23  1  0.86668196  0.80822631  0.37803471  1  0  0.116249  0  0.953732  0  0  0.130229  0  1.014272  0  0  0.133292  0  1.012106  0  0  0.135203  0.127976  0  1.015936  0
H  H24  1  0.70449671  0.61402739  0.78643757  1  0  0.08793  0  0.930063  0  0  0.099974  0  0.99859  0  0  0.102056  0  0.997104  0  0  0.108999  0.098466  0  0.999652  0
H  H25  1  0.20449803  0.38597126  0.71356188  1  0  0.087952  0  0.930062  0  0  0.099979  0  0.998597  0  0  0.102066  0  0.997112  0  0  0.109007  0.098472  0  0.999659  0
H  H26  1  0.29550112  0.38597504  0.21356211  1  0  0.087917  0  0.930074  0  0  0.099975  0  0.998588  0  0  0.102067  0  0.997101  0  0  0.108974  0.098465  0  0.999656  0
H  H27  1  0.79549980  0.61402299  0.28643798  1  0  0.087924  0  0.930087  0  0  0.099961  0  0.998588  0  0  0.102053  0  0.997105  0  0  0.10895  0.09845  0  0.999656  0
C  C28  1  0.55688104  0.51376308  0.94909052  1  0  -0.026707  0  3.657046  0  0  -0.086933  0  3.928505  0  0  -0.084062  0  3.939855  0  0  -0.059876  -0.089044  0  3.920887  0
C  C29  1  0.05688177  0.48623570  0.55090878  1  0  -0.026783  0  3.657054  0  0  -0.087006  0  3.928512  0  0  -0.084136  0  3.939862  0  0  -0.059895  -0.089119  0  3.920886  0
C  C30  1  0.44311678  0.48624170  0.05091213  1  0  -0.026658  0  3.657101  0  0  -0.086859  0  3.928528  0  0  -0.08399  0  3.939882  0  0  -0.059833  -0.088982  0  3.920901  0
C  C31  1  0.94311851  0.51375619  0.44908618  1  0  -0.026621  0  3.657083  0  0  -0.086839  0  3.928528  0  0  -0.083968  0  3.939876  0  0  -0.0598  -0.088955  0  3.920902  0
C  C32  1  0.37962432  0.67008503  0.88111471  1  0  -0.167318  0  3.652137  0  0  -0.221735  0  3.909184  0  0  -0.222627  0  3.915127  0  0  -0.059018  -0.221258  0  3.905075  0
C  C33  1  0.87962565  0.32991464  0.61888546  1  0  -0.167314  0  3.651994  0  0  -0.22177  0  3.909137  0  0  -0.222622  0  3.915022  0  0  -0.059022  -0.221291  0  3.905027  0
C  C34  1  0.62037227  0.32992092  0.11888847  1  0  -0.16722  0  3.652069  0  0  -0.221726  0  3.90926  0  0  -0.222554  0  3.91511  0  0  -0.058951  -0.221251  0  3.905153  0
C  C35  1  0.12037341  0.67008078  0.38111300  1  0  -0.16721  0  3.651998  0  0  -0.221691  0  3.909139  0  0  -0.222558  0  3.915043  0  0  -0.058959  -0.221217  0  3.905033  0
C  C36  1  0.32531789  0.83705867  0.92314011  1  0  0.726903  0  3.846667  0  0  0.678051  0  4.149508  0  0  0.711973  0  4.139743  0  0  0.240215  0.655171  0  4.155398  0
C  C37  1  0.82531946  0.16293987  0.57685851  1  0  0.726929  0  3.846517  0  0  0.678099  0  4.149359  0  0  0.712012  0  4.139588  0  0  0.240214  0.655217  0  4.15525  0
C  C38  1  0.67468362  0.16294730  0.07686596  1  0  0.726995  0  3.846464  0  0  0.678151  0  4.149334  0  0  0.71207  0  4.139543  0  0  0.240247  0.65527  0  4.155228  0
C  C39  1  0.17468083  0.83705670  0.42313662  1  0  0.726937  0  3.846471  0  0  0.678108  0  4.149325  0  0  0.712029  0  4.139543  0  0  0.240203  0.655226  0  4.155217  0
C  C40  1  0.66931699  0.70969644  0.89556172  1  0  -0.192441  0  3.68832  0  0  -0.243874  0  3.93907  0  0  -0.245878  0  3.945879  0  0  -0.064608  -0.242622  0  3.934413  0
C  C41  1  0.16931948  0.29030225  0.60443865  1  0  -0.192572  0  3.688353  0  0  -0.243959  0  3.938989  0  0  -0.245994  0  3.945841  0  0  -0.064626  -0.242707  0  3.934334  0
C  C42  1  0.33068329  0.29030601  0.10444180  1  0  -0.192535  0  3.688463  0  0  -0.243961  0  3.939145  0  0  -0.245996  0  3.945998  0  0  -0.064583  -0.242709  0  3.934489  0
C  C43  1  0.83068326  0.70969315  0.39555692  1  0  -0.192562  0  3.688518  0  0  -0.243894  0  3.939072  0  0  -0.245932  0  3.94593  0  0  -0.064539  -0.242641  0  3.934412  0
C  C44  1  0.82180320  0.76738142  0.99193505  1  0  0.685795  0  3.909483  0  0  0.638439  0  4.210633  0  0  0.672397  0  4.200639  0  0  0.207423  0.615448  0  4.216812  0
C  C45  1  0.32180434  0.23261830  0.50806505  1  0  0.685935  0  3.909328  0  0  0.638514  0  4.210555  0  0  0.672481  0  4.200559  0  0  0.207439  0.615522  0  4.216736  0
C  C46  1  0.17819954  0.23261170  0.00807198  1  0  0.685897  0  3.909393  0  0  0.638535  0  4.210577  0  0  0.672498  0  4.200583  0  0  0.207377  0.615543  0  4.216759  0
C  C47  1  0.67820086  0.76738760  0.49192754  1  0  0.685907  0  3.909303  0  0  0.638535  0  4.210484  0  0  0.6725  0  4.200489  0  0  0.207387  0.615545  0  4.21666  0
N  N48  1  0.52970130  0.66774100  0.95859634  1  0  -0.220713  0  3.279005  0  0  -0.142068  0  3.530768  0  0  -0.156025  0  3.551546  0  0  -0.361719  -0.132581  0  3.515771  0
N  N49  1  0.02970232  0.33225899  0.54140441  1  0  -0.220639  0  3.278876  0  0  -0.142002  0  3.530674  0  0  -0.155958  0  3.551448  0  0  -0.361697  -0.132517  0  3.515679  0
N  N50  1  0.47029652  0.33226614  0.04140928  1  0  -0.220695  0  3.278997  0  0  -0.142039  0  3.530812  0  0  -0.156006  0  3.551581  0  0  -0.361727  -0.13255  0  3.515814  0
N  N51  1  0.97029673  0.66773408  0.45859203  1  0  -0.220647  0  3.278975  0  0  -0.142017  0  3.530757  0  0  -0.155974  0  3.551534  0  0  -0.361694  -0.132527  0  3.51575  0
O  O52  1  0.32429106  0.93624617  0.05907845  1  0  -0.739064  0  2.008529  0  0  -0.674253  0  2.262542  0  0  -0.701783  0  2.253638  0  0  -0.392797  -0.655275  0  2.267915  0
O  O53  1  0.82429370  0.06375300  0.44092123  1  0  -0.739075  0  2.008486  0  0  -0.674245  0  2.262446  0  0  -0.701775  0  2.253545  0  0  -0.392781  -0.655266  0  2.26782  0
O  O54  1  0.67570308  0.06376094  0.94092140  1  0  -0.739081  0  2.008279  0  0  -0.674309  0  2.262371  0  0  -0.701847  0  2.253466  0  0  -0.392806  -0.655327  0  2.267747  0
O  O55  1  0.17570166  0.93624010  0.55908196  1  0  -0.739009  0  2.008239  0  0  -0.674248  0  2.2623  0  0  -0.701781  0  2.253393  0  0  -0.392755  -0.655266  0  2.267676  0
O  O56  1  0.28141346  0.86573519  0.82137346  1  0  -0.73482  0  1.945955  0  0  -0.671123  0  2.194713  0  0  -0.697717  0  2.184613  0  0  -0.383391  -0.652948  0  2.201403  0
O  O57  1  0.78141410  0.13426455  0.67862467  1  0  -0.734847  0  1.945881  0  0  -0.671155  0  2.194639  0  0  -0.697751  0  2.184541  0  0  -0.383398  -0.652982  0  2.201331  0
O  O58  1  0.71858928  0.13426956  0.17862438  1  0  -0.734866  0  1.946045  0  0  -0.671159  0  2.194818  0  0  -0.697756  0  2.184716  0  0  -0.383412  -0.652989  0  2.201509  0
O  O59  1  0.21858495  0.86573556  0.32137877  1  0  -0.734859  0  1.946055  0  0  -0.671161  0  2.194824  0  0  -0.697755  0  2.18472  0  0  -0.383421  -0.652993  0  2.201516  0
O  O60  1  0.94675054  0.79902811  0.93673154  1  0  -0.73443  0  1.957906  0  0  -0.673826  0  2.205889  0  0  -0.700899  0  2.196088  0  0  -0.397213  -0.654668  0  2.210753  0
O  O61  1  0.44675188  0.20097033  0.56326914  1  0  -0.734439  0  1.957828  0  0  -0.673831  0  2.205856  0  0  -0.700905  0  2.196052  0  0  -0.397201  -0.654672  0  2.210722  0
O  O62  1  0.05325220  0.20097317  0.06327243  1  0  -0.734334  0  1.957996  0  0  -0.67371  0  2.205937  0  0  -0.700779  0  2.196136  0  0  -0.397138  -0.654552  0  2.2108  0
O  O63  1  0.55325332  0.79902975  0.43672853  1  0  -0.734344  0  1.957913  0  0  -0.673727  0  2.205859  0  0  -0.700798  0  2.196057  0  0  -0.397154  -0.65457  0  2.210721  0
O  O64  1  0.81654577  0.79079941  0.12297464  1  0  -0.719014  0  1.984434  0  0  -0.656913  0  2.226259  0  0  -0.683145  0  2.216763  0  0  -0.395971  -0.639171  0  2.232643  0
O  O65  1  0.31654785  0.20920093  0.37702459  1  0  -0.719093  0  1.984396  0  0  -0.656987  0  2.226274  0  0  -0.683219  0  2.21677  0  0  -0.396018  -0.639244  0  2.23266  0
O  O66  1  0.18345697  0.20918197  0.87702138  1  0  -0.719156  0  1.984261  0  0  -0.657068  0  2.226119  0  0  -0.6833  0  2.216614  0  0  -0.396025  -0.639322  0  2.23251  0
O  O67  1  0.68345489  0.79081670  0.62297805  1  0  -0.719187  0  1.984343  0  0  -0.657088  0  2.226169  0  0  -0.683321  0  2.216665  0  0  -0.396036  -0.639341  0  2.232558  0
