# generated using pymatgen
data_CdCuH12(CO2)6
_symmetry_space_group_name_H-M   'P 1'
_cell_length_a   6.66671750
_cell_length_b   12.93921131
_cell_length_c   13.97720000
_cell_angle_alpha   90.00000000
_cell_angle_beta   90.00000000
_cell_angle_gamma   90.00000000
_symmetry_Int_Tables_number   1
_chemical_formula_structural   CdCuH12(CO2)6
_chemical_formula_sum   'Cd4 Cu4 H48 C24 O48'
_cell_volume   1205.70215428
_cell_formula_units_Z   4
loop_
 _symmetry_equiv_pos_site_id
 _symmetry_equiv_pos_as_xyz
  1  'x, y, z'
loop_
 _atom_site_type_symbol
 _atom_site_label
 _atom_site_symmetry_multiplicity
 _atom_site_fract_x
 _atom_site_fract_y
 _atom_site_fract_z
 _atom_site_occupancy
 _atom_site_hle17_ddec_charge
 _atom_site_hle17_ddec_spin_density
 _atom_site_hle17_ddec_sum_bond_order
 _atom_site_hle17_magmom
 _atom_site_hse06_10hf_ddec_charge
 _atom_site_hse06_10hf_ddec_spin_density
 _atom_site_hse06_10hf_ddec_sum_bond_order
 _atom_site_hse06_10hf_magmom
 _atom_site_hse06_ddec_charge
 _atom_site_hse06_ddec_spin_density
 _atom_site_hse06_ddec_sum_bond_order
 _atom_site_hse06_magmom
 _atom_site_pbe_bader_charge
 _atom_site_pbe_bader_spin_density
 _atom_site_pbe_cm5_charge
 _atom_site_pbe_ddec_charge
 _atom_site_pbe_ddec_spin_density
 _atom_site_pbe_ddec_sum_bond_order
 _atom_site_pbe_magmom
Cd  Cd0  1  0.99999888  0.74999780  0.77615402  1  1.271853  0.000589  1.54353  0.0  1.101762  0.001508  1.9716  0.0  1.161101  0.000713  1.911653  0.0  1.351159  0.001595  0.779078  1.058631  0.002585  2.013584  0.001
Cd  Cd1  1  0.50000019  0.25000055  0.72384169  1  1.271726  0.000589  1.543712  0.0  1.101638  0.001508  1.971813  0.0  1.160982  0.000714  1.911856  0.0  1.35103  0.001595  0.779026  1.058505  0.002585  2.013796  0.001
Cd  Cd2  1  0.00000450  0.25000596  0.22384455  1  1.271826  0.00059  1.543557  0.0  1.10178  0.001508  1.971619  0.0  1.161128  0.000714  1.911666  0.0  1.351107  0.001594  0.779026  1.058647  0.002584  2.013605  0.001
Cd  Cd3  1  0.50000469  0.74999934  0.27615831  1  1.271782  0.00059  1.543639  0.0  1.10167  0.001509  1.971727  0.0  1.161013  0.000714  1.911768  0.0  1.351049  0.001594  0.77905  1.058536  0.002585  2.013713  0.001
Cu  Cu4  1  0.99998388  0.49999724  0.00000072  1  1.021081  0.704239  1.720423  0.534  1.013057  0.795441  2.112243  0.654  1.096152  0.854829  2.053165  0.737  1.142732  0.597002  0.722147  0.950069  0.750437  2.167834  0.596
Cu  Cu5  1  0.49999119  0.00000155  0.49999714  1  1.021076  0.704216  1.720465  0.534  1.013056  0.795426  2.112247  0.654  1.096177  0.854814  2.05313  0.737  1.14281  0.59699  0.722142  0.950116  0.750426  2.167783  0.596
Cu  Cu6  1  0.49999869  0.50000034  0.50000072  1  1.020906  0.704244  1.720717  0.534  1.012985  0.795441  2.11237  0.654  1.095993  0.854819  2.053398  0.737  1.142783  0.596996  0.722125  0.949987  0.750438  2.167978  0.596
Cu  Cu7  1  0.00002250  0.00000618  0.00000072  1  1.021125  0.70423  1.720286  0.534  1.013124  0.795435  2.112049  0.654  1.096204  0.854825  2.052995  0.737  1.142667  0.597007  0.722184  0.950126  0.75044  2.16767  0.596
H  H8  1  0.13042401  0.38008267  0.72125819  1  0.160117  -0.00028  0.945473  0.0  0.17107  -8.3e-05  1.001905  0.0  0.175119  -0.000116  0.999737  0.0  0.116279  -7.3e-05  0.111038  0.168102  -3.9e-05  1.003625  0.0
H  H9  1  0.36959268  0.88008687  0.77874395  1  0.160131  -0.000289  0.945432  0.0  0.171085  -8.3e-05  1.001896  0.0  0.175135  -0.000116  0.999725  0.0  0.116314  -7.2e-05  0.111058  0.168116  -3.9e-05  1.003621  0.0
H  H10  1  0.63040919  0.61991027  0.77874896  1  0.160134  -0.000279  0.945452  0.0  0.171114  -8.3e-05  1.001903  0.0  0.175163  -0.000116  0.999733  0.0  0.116225  -7.3e-05  0.111063  0.168143  -3.9e-05  1.003624  0.0
H  H11  1  0.86957337  0.11990994  0.72125676  1  0.160093  -0.000281  0.945488  0.0  0.171058  -8.3e-05  1.001916  0.0  0.175106  -0.000116  0.999747  0.0  0.116265  -7.3e-05  0.111018  0.168085  -3.9e-05  1.003636  0.0
H  H12  1  0.86958687  0.61992805  0.27874395  1  0.160104  -0.000284  0.94544  0.0  0.171045  -8.3e-05  1.00192  0.0  0.175095  -0.000116  0.999749  0.0  0.116255  -7.3e-05  0.111033  0.168067  -4e-05  1.003643  0.0
H  H13  1  0.63041219  0.11990916  0.22125461  1  0.160117  -0.000282  0.945469  0.0  0.171094  -8.3e-05  1.001888  0.0  0.175144  -0.000116  0.99972  0.0  0.11631  -7.3e-05  0.111079  0.168131  -4e-05  1.003613  0.0
H  H14  1  0.36958218  0.38009349  0.22125676  1  0.160126  -0.000283  0.945391  0.0  0.17109  -8.3e-05  1.001826  0.0  0.175141  -0.000116  0.999658  0.0  0.116263  -7.3e-05  0.111062  0.168111  -4e-05  1.003542  0.0
H  H15  1  0.13039701  0.88008610  0.27874682  1  0.160113  -0.000278  0.945405  0.0  0.171068  -8.3e-05  1.001904  0.0  0.175116  -0.000116  0.99974  0.0  0.116234  -7.3e-05  0.111054  0.168096  -3.9e-05  1.003624  0.0
H  H16  1  0.91175155  0.37046076  0.79107475  1  0.172724  -0.000359  0.927826  0.0  0.183201  -0.000175  0.98834  0.0  0.187132  -0.000165  0.986862  0.0  0.15328  -0.000183  0.122552  0.180378  -0.000173  0.9895  0.0
H  H17  1  0.58825202  0.87047500  0.70890879  1  0.172708  -0.000367  0.927858  0.0  0.183196  -0.000175  0.988358  0.0  0.18713  -0.000165  0.98688  0.0  0.153278  -0.000183  0.122526  0.180378  -0.000173  0.98952  0.0
H  H18  1  0.41174536  0.62952446  0.70891881  1  0.172684  -0.000357  0.927915  0.0  0.183173  -0.000175  0.98844  0.0  0.187098  -0.000165  0.98697  0.0  0.153298  -0.000183  0.122507  0.18035  -0.000173  0.989605  0.0
H  H19  1  0.08825183  0.12953340  0.79107475  1  0.172779  -0.000358  0.927854  0.0  0.183211  -0.000175  0.988423  0.0  0.187117  -0.000165  0.986969  0.0  0.153299  -0.000183  0.122546  0.180386  -0.000173  0.989579  0.0
H  H20  1  0.08824733  0.62954069  0.20891523  1  0.172687  -0.000358  0.927839  0.0  0.183134  -0.000175  0.988429  0.0  0.187067  -0.000165  0.986948  0.0  0.153238  -0.000183  0.122513  0.180303  -0.000173  0.989584  0.0
H  H21  1  0.41174986  0.12952644  0.29108477  1  0.172726  -0.00036  0.927914  0.0  0.183208  -0.000175  0.988424  0.0  0.187131  -0.000165  0.986959  0.0  0.153314  -0.000184  0.122536  0.180391  -0.000173  0.989589  0.0
H  H22  1  0.58825651  0.37047312  0.29107761  1  0.172749  -0.000354  0.92787  0.0  0.183183  -0.000175  0.988436  0.0  0.187102  -0.000165  0.986974  0.0  0.153281  -0.000184  0.122506  0.18035  -0.000173  0.989596  0.0
H  H23  1  0.91174555  0.87047655  0.20891666  1  0.172598  -0.000355  0.928024  0.0  0.183104  -0.000175  0.98853  0.0  0.187032  -0.000165  0.987057  0.0  0.15306  -0.000184  0.122484  0.180283  -0.000173  0.989686  0.0
H  H24  1  0.21421487  0.80458072  0.93730075  1  0.420278  -6.2e-05  0.882835  0.0  0.388023  9e-06  0.95007  0.0  0.399563  -2.8e-05  0.933063  0.0  0.632427  -3e-06  0.291028  0.379873  5.1e-05  0.962085  0.0
H  H25  1  0.28578982  0.30458193  0.56269639  1  0.420157  -6.3e-05  0.883022  0.0  0.387917  9e-06  0.950216  0.0  0.39945  -2.8e-05  0.93322  0.0  0.632413  -3e-06  0.290992  0.37977  5.1e-05  0.962225  0.0
H  H26  1  0.71421055  0.19541454  0.56269568  1  0.420156  -6.2e-05  0.883003  0.0  0.387905  9e-06  0.950231  0.0  0.399441  -2.8e-05  0.933229  0.0  0.63236  -3e-06  0.290976  0.379756  5.1e-05  0.962243  0.0
H  H27  1  0.78578401  0.69541797  0.93730289  1  0.420208  -6.3e-05  0.882921  0.0  0.387969  9e-06  0.950138  0.0  0.399506  -2.8e-05  0.933136  0.0  0.632436  -3e-06  0.291005  0.379821  5.1e-05  0.962149  0.0
H  H28  1  0.78579301  0.19541840  0.06269782  1  0.420222  -6.2e-05  0.882927  0.0  0.387967  9e-06  0.950164  0.0  0.399506  -2.8e-05  0.933158  0.0  0.632404  -3e-06  0.290994  0.379817  5.1e-05  0.962177  0.0
H  H29  1  0.71421505  0.69541797  0.43730576  1  0.420135  -6.2e-05  0.883027  0.0  0.387891  9e-06  0.950253  0.0  0.399424  -2.8e-05  0.933257  0.0  0.632405  -3e-06  0.29096  0.379742  5.1e-05  0.962264  0.0
H  H30  1  0.28578682  0.80458072  0.43730218  1  0.420235  -6.1e-05  0.882898  0.0  0.387979  9e-06  0.950134  0.0  0.399518  -2.8e-05  0.933128  0.0  0.632414  -3e-06  0.291014  0.37983  5.1e-05  0.962147  0.0
H  H31  1  0.21421337  0.30458503  0.06269568  1  0.420163  -6.4e-05  0.882998  0.0  0.387922  9e-06  0.950208  0.0  0.399458  -2.8e-05  0.933207  0.0  0.632334  -3e-06  0.290985  0.379775  5.1e-05  0.962217  0.0
H  H32  1  0.30647616  0.69510264  0.91817818  1  0.433202  -9e-06  0.864613  0.0  0.404923  7e-06  0.922982  0.0  0.415395  1.3e-05  0.907913  0.0  0.637389  -1.4e-05  0.289052  0.397379  -3e-06  0.93383  0.0
H  H33  1  0.19351652  0.19510540  0.58182254  1  0.433135  -9e-06  0.86467  0.0  0.404842  7e-06  0.923071  0.0  0.415314  1.3e-05  0.908001  0.0  0.63737  -1.4e-05  0.289038  0.397292  -3e-06  0.933928  0.0
H  H34  1  0.80647935  0.30489107  0.58182182  1  0.433154  -1e-05  0.864668  0.0  0.404859  7e-06  0.92307  0.0  0.415331  1.3e-05  0.908  0.0  0.637403  -1.4e-05  0.289041  0.397313  -3e-06  0.933921  0.0
H  H35  1  0.69351671  0.80489759  0.91817961  1  0.433205  -9e-06  0.86458  0.0  0.404935  8e-06  0.922939  0.0  0.415405  1.3e-05  0.907872  0.0  0.637337  -1.4e-05  0.289043  0.397387  -3e-06  0.933793  0.0
H  H36  1  0.69352421  0.30489494  0.08182254  1  0.433197  -1e-05  0.864592  0.0  0.404904  7e-06  0.922994  0.0  0.415376  1.3e-05  0.907925  0.0  0.637415  -1.4e-05  0.289047  0.397357  -3e-06  0.933845  0.0
H  H37  1  0.80648535  0.80489295  0.41817961  1  0.433135  -9e-06  0.864669  0.0  0.40484  7e-06  0.923072  0.0  0.415311  1.3e-05  0.908004  0.0  0.637376  -1.4e-05  0.289014  0.397293  -3e-06  0.933924  0.0
H  H38  1  0.19352402  0.69510342  0.41817674  1  0.433134  -9e-06  0.864674  0.0  0.404842  7e-06  0.92307  0.0  0.415313  1.3e-05  0.908003  0.0  0.637431  -1.4e-05  0.289023  0.397294  -3e-06  0.933924  0.0
H  H39  1  0.30647916  0.19510695  0.08182397  1  0.433167  -9e-06  0.864616  0.0  0.404879  8e-06  0.923009  0.0  0.415353  1.3e-05  0.907937  0.0  0.637373  -1.4e-05  0.289047  0.39733  -3e-06  0.933864  0.0
H  H40  1  0.64714907  0.34517019  0.93825444  1  0.427145  -0.000108  0.859453  0.0  0.39529  -0.000101  0.931421  0.0  0.406121  -8.8e-05  0.915244  0.0  0.65743  -4.8e-05  0.296128  0.387537  -0.000109  0.942987  0.0
H  H41  1  0.85284700  0.84517748  0.56174627  1  0.427247  -0.000106  0.859215  0.0  0.395399  -0.000101  0.93123  0.0  0.406227  -8.8e-05  0.91506  0.0  0.657503  -4.8e-05  0.296201  0.387648  -0.000109  0.942785  0.0
H  H42  1  0.14714588  0.65482276  0.56174270  1  0.4272  -0.000107  0.859296  0.0  0.395313  -0.000101  0.931356  0.0  0.406151  -8.8e-05  0.915176  0.0  0.657553  -4.8e-05  0.296196  0.387547  -0.000109  0.942923  0.0
H  H43  1  0.35285131  0.15483092  0.93825087  1  0.427218  -0.000105  0.859348  0.0  0.395349  -0.000101  0.931345  0.0  0.40618  -8.8e-05  0.915172  0.0  0.657389  -4.8e-05  0.296123  0.3876  -0.000109  0.942907  0.0
H  H44  1  0.35284681  0.65482353  0.06174627  1  0.427222  -0.000106  0.85924  0.0  0.395364  -0.000101  0.931273  0.0  0.40619  -8.8e-05  0.915107  0.0  0.657489  -4.8e-05  0.296194  0.387608  -0.000109  0.942832  0.0
H  H45  1  0.14714888  0.15482165  0.43825516  1  0.427161  -0.000104  0.859324  0.0  0.395342  -0.000101  0.931291  0.0  0.406169  -8.8e-05  0.915123  0.0  0.657522  -4.8e-05  0.296213  0.387595  -0.000109  0.942841  0.0
H  H46  1  0.85285300  0.34517483  0.43825516  1  0.42716  -0.000106  0.859305  0.0  0.395305  -0.000101  0.931375  0.0  0.406136  -8.8e-05  0.915199  0.0  0.657473  -4.8e-05  0.296149  0.387553  -0.000109  0.942939  0.0
H  H47  1  0.64714607  0.84518134  0.06174556  1  0.427171  -0.000106  0.859411  0.0  0.395348  -0.000101  0.931317  0.0  0.406172  -8.8e-05  0.915155  0.0  0.657537  -4.8e-05  0.296207  0.387607  -0.000109  0.942866  0.0
H  H48  1  0.48560030  0.40899479  0.99247059  1  0.427018  -2.3e-05  0.837756  0.0  0.403611  -5e-06  0.904764  0.0  0.412492  -8e-06  0.892036  0.0  0.613133  -8.5e-05  0.30676  0.397165  -7e-06  0.912098  0.0
H  H49  1  0.01441789  0.90898121  0.50752797  1  0.427234  -1.9e-05  0.837593  0.0  0.40378  -6e-06  0.904673  0.0  0.412663  -7e-06  0.891851  0.0  0.61295  -8.5e-05  0.306814  0.397331  -7e-06  0.912025  0.0
H  H50  1  0.98559599  0.59100356  0.50752511  1  0.427201  -1.9e-05  0.83761  0.0  0.40374  -6e-06  0.90472  0.0  0.412626  -7e-06  0.891899  0.0  0.613001  -8.5e-05  0.306805  0.397288  -7e-06  0.912066  0.0
H  H51  1  0.51438358  0.09099705  0.99246845  1  0.426927  -2e-05  0.837967  0.0  0.403595  -5e-06  0.904886  0.0  0.412479  -7e-06  0.892091  0.0  0.613271  -8.5e-05  0.306719  0.397151  -7e-06  0.912229  0.0
H  H52  1  0.51441958  0.59102211  0.00752654  1  0.427161  -2.1e-05  0.837675  0.0  0.403757  -6e-06  0.90469  0.0  0.412641  -8e-06  0.891883  0.0  0.612971  -8.5e-05  0.306791  0.397308  -7e-06  0.912031  0.0
H  H53  1  0.98560049  0.09100168  0.49247417  1  0.427069  -2.1e-05  0.837748  0.0  0.403686  -5e-06  0.904737  0.0  0.41257  -7e-06  0.891956  0.0  0.613109  -8.5e-05  0.306755  0.397238  -7e-06  0.912086  0.0
H  H54  1  0.01441789  0.40898397  0.49247203  1  0.42716  -1.9e-05  0.837657  0.0  0.403759  -6e-06  0.904676  0.0  0.412644  -7e-06  0.891874  0.0  0.612931  -8.5e-05  0.306815  0.397309  -7e-06  0.912015  0.0
H  H55  1  0.48556280  0.90897503  0.00752654  1  0.427191  -2e-05  0.837587  0.0  0.403767  -6e-06  0.904666  0.0  0.412652  -7e-06  0.891877  0.0  0.612857  -8.5e-05  0.306791  0.397321  -7e-06  0.91201  0.0
C  C56  1  0.04127969  0.51820315  0.79629468  1  0.735365  -0.007427  3.81521  -0.006  0.696131  -0.001634  4.105805  -0.002  0.734172  -0.001447  4.098765  -0.001  1.532444  -0.001786  0.213505  0.669958  -0.001663  4.109194  -0.002
C  C57  1  0.45872800  0.01820049  0.70370103  1  0.735405  -0.007428  3.815209  -0.006  0.696144  -0.001635  4.105914  -0.002  0.734182  -0.001449  4.09888  -0.001  1.532396  -0.001788  0.213442  0.66997  -0.001665  4.109317  -0.002
C  C58  1  0.54127237  0.48179443  0.70370747  1  0.735293  -0.007419  3.815323  -0.006  0.696127  -0.001634  4.10593  -0.002  0.734164  -0.001448  4.098887  -0.001  1.532102  -0.001787  0.213436  0.669955  -0.001664  4.109316  -0.002
C  C59  1  0.95871919  0.98179323  0.79629754  1  0.735162  -0.007432  3.815538  -0.006  0.696022  -0.001634  4.106054  -0.002  0.734038  -0.001448  4.099038  -0.001  1.532636  -0.001786  0.213379  0.66984  -0.001663  4.109452  -0.002
C  C60  1  0.95871619  0.48179984  0.20370818  1  0.73526  -0.007429  3.815367  -0.006  0.695993  -0.001633  4.106017  -0.002  0.73403  -0.001447  4.098984  -0.001  1.532697  -0.001786  0.213453  0.669811  -0.001664  4.109399  -0.002
C  C61  1  0.54127087  0.98179477  0.29629182  1  0.735238  -0.007414  3.815506  -0.006  0.69605  -0.001635  4.106089  -0.002  0.734088  -0.001449  4.099056  -0.001  1.53257  -0.001786  0.213398  0.669881  -0.001664  4.10949  -0.002
C  C62  1  0.45873100  0.51820546  0.29629468  1  0.735139  -0.007422  3.815401  -0.006  0.695963  -0.001635  4.105953  -0.002  0.733997  -0.001449  4.098919  -0.001  1.532384  -0.001787  0.213342  0.669777  -0.001665  4.109335  -0.002
C  C63  1  0.04128419  0.01820513  0.20370890  1  0.735257  -0.007422  3.815446  -0.006  0.696069  -0.001635  4.106073  -0.002  0.734099  -0.001447  4.099046  -0.001  1.53197  -0.001787  0.213433  0.669888  -0.001665  4.109472  -0.002
C  C64  1  0.06557500  0.40241402  0.79007527  1  -0.462555  -6.3e-05  3.638857  0.001  -0.499867  -7.6e-05  3.875788  0.001  -0.513483  -0.000333  3.877765  0.0  -0.065785  0.000945  -0.172473  -0.490392  0.00011  3.874269  0.001
C  C65  1  0.43442369  0.90241513  0.70992330  1  -0.46246  -3.7e-05  3.638819  0.001  -0.499844  -7.7e-05  3.875933  0.001  -0.513465  -0.000333  3.877911  0.0  -0.065852  0.000943  -0.172446  -0.490367  0.000108  3.874418  0.001
C  C66  1  0.56557069  0.59758124  0.70992974  1  -0.462296  -7e-05  3.638576  0.001  -0.499902  -7.7e-05  3.875921  0.001  -0.51351  -0.000333  3.877905  0.0  -0.065614  0.000944  -0.17246  -0.490431  0.000109  3.874401  0.001
C  C67  1  0.93442838  0.09758477  0.79007455  1  -0.462538  -6.2e-05  3.638903  0.001  -0.49989  -7.5e-05  3.875906  0.001  -0.513479  -0.000332  3.877914  0.0  -0.065655  0.000946  -0.172454  -0.490368  0.00011  3.874337  0.001
C  C68  1  0.93442538  0.59758975  0.20992545  1  -0.462419  -5.9e-05  3.638766  0.001  -0.499759  -7.6e-05  3.875785  0.001  -0.513376  -0.000333  3.877769  0.0  -0.065906  0.000943  -0.172422  -0.49024  0.000108  3.874209  0.001
C  C69  1  0.56557369  0.09758168  0.29007527  1  -0.462392  -5.8e-05  3.638835  0.001  -0.499846  -7.7e-05  3.875983  0.001  -0.513459  -0.000332  3.877965  0.0  -0.065791  0.000944  -0.17249  -0.490387  0.000109  3.87449  0.001
C  C70  1  0.43443419  0.40242097  0.29007527  1  -0.4624  -6.3e-05  3.63875  0.001  -0.499848  -7.8e-05  3.87591  0.001  -0.513453  -0.000333  3.877897  0.0  -0.065623  0.000943  -0.172437  -0.490329  0.000108  3.87434  0.001
C  C71  1  0.06556750  0.90241899  0.20992760  1  -0.462144  -6.9e-05  3.638538  0.001  -0.499727  -7.6e-05  3.875887  0.001  -0.513343  -0.000333  3.877879  0.0  -0.065413  0.000944  -0.172424  -0.490211  0.000109  3.874321  0.001
C  C72  1  0.17337618  0.34764716  0.87094411  1  0.758831  -0.00605  3.772542  -0.005  0.707296  -0.001511  4.077217  -0.001  0.74571  -0.001485  4.068236  -0.001  1.562424  -0.001578  0.226213  0.680932  -0.001459  4.082196  -0.002
C  C73  1  0.32661351  0.84764749  0.62905661  1  0.758733  -0.006054  3.77306  -0.005  0.707162  -0.001508  4.077798  -0.001  0.745578  -0.001484  4.068814  -0.001  1.5624  -0.001576  0.226143  0.680794  -0.001455  4.082787  -0.002
C  C74  1  0.67337937  0.65234888  0.62906233  1  0.758596  -0.006043  3.772735  -0.005  0.707174  -0.001511  4.077298  -0.001  0.745579  -0.001485  4.068304  -0.001  1.563189  -0.001577  0.226119  0.680807  -0.001458  4.082285  -0.002
C  C75  1  0.82661820  0.15235164  0.87094482  1  0.758757  -0.006053  3.772578  -0.005  0.707214  -0.001511  4.077305  -0.001  0.745623  -0.001485  4.068321  -0.001  1.562314  -0.001578  0.226171  0.680839  -0.001458  4.082289  -0.002
C  C76  1  0.82662120  0.65236047  0.12905804  1  0.758864  -0.006052  3.772565  -0.005  0.707311  -0.001511  4.077304  -0.001  0.745719  -0.001484  4.068323  -0.001  1.562794  -0.001577  0.226169  0.680933  -0.001458  4.082282  -0.002
C  C77  1  0.67338387  0.15234082  0.37094268  1  0.758716  -0.006057  3.772079  -0.005  0.707236  -0.001511  4.076728  -0.001  0.745654  -0.001487  4.067738  -0.001  1.562477  -0.001579  0.226204  0.680868  -0.001459  4.081718  -0.002
C  C78  1  0.32662251  0.34765488  0.37094196  1  0.758648  -0.006052  3.772503  -0.005  0.707216  -0.001509  4.077038  -0.001  0.745625  -0.001484  4.068041  -0.001  1.563052  -0.001577  0.226211  0.680838  -0.001458  4.082019  -0.002
C  C79  1  0.17337918  0.84764672  0.12905804  1  0.758573  -0.006034  3.7731  -0.005  0.707097  -0.00151  4.077714  -0.001  0.745507  -0.001484  4.068732  -0.001  1.562568  -0.001577  0.226149  0.680721  -0.001457  4.082696  -0.002
O  O80  1  0.99160044  0.56109525  0.87589002  1  -0.651785  0.07131  2.157489  0.102  -0.618761  0.046042  2.455914  0.071  -0.660971  0.034533  2.443051  0.058  -1.129331  0.085582  -0.338227  -0.588416  0.053415  2.46381  0.078
O  O81  1  0.50839862  0.06110110  0.62411356  1  -0.651649  0.07132  2.157728  0.102  -0.618613  0.04605  2.456159  0.071  -0.660824  0.034539  2.443298  0.058  -1.129358  0.085595  -0.338067  -0.588276  0.053423  2.464057  0.078
O  O82  1  0.49160625  0.43889769  0.62411427  1  -0.651671  0.071314  2.157601  0.102  -0.618682  0.046045  2.456  0.071  -0.660864  0.034537  2.443153  0.058  -1.129442  0.085591  -0.338145  -0.588335  0.05342  2.463892  0.078
O  O83  1  0.00840444  0.93890189  0.87588859  1  -0.651628  0.071307  2.157735  0.102  -0.618616  0.046038  2.45609  0.071  -0.660811  0.03453  2.443245  0.058  -1.129466  0.085572  -0.338117  -0.588263  0.053408  2.463996  0.078
O  O84  1  0.00838644  0.43890619  0.12411499  1  -0.651728  0.071311  2.1576  0.102  -0.61868  0.04604  2.456018  0.071  -0.660892  0.034531  2.443169  0.058  -1.129629  0.085576  -0.338203  -0.588338  0.053412  2.463917  0.078
O  O85  1  0.49159125  0.93889571  0.37588430  1  -0.651802  0.071317  2.157655  0.102  -0.618774  0.046047  2.456047  0.071  -0.660987  0.034537  2.443184  0.058  -1.129412  0.085589  -0.33815  -0.588439  0.053418  2.463949  0.078
O  O86  1  0.50839712  0.56110607  0.37588931  1  -0.651598  0.071318  2.157617  0.102  -0.618558  0.046049  2.455967  0.071  -0.660738  0.03454  2.443121  0.058  -1.129338  0.085594  -0.338056  -0.588211  0.053423  2.463861  0.078
O  O87  1  0.99161244  0.06110264  0.12411213  1  -0.651748  0.071328  2.157512  0.102  -0.618715  0.04605  2.455895  0.071  -0.660922  0.034539  2.443052  0.058  -1.129271  0.085591  -0.338159  -0.588361  0.053421  2.463801  0.078
O  O88  1  0.06043604  0.57264232  0.72200011  1  -0.614282  0.016508  1.93529  0.022  -0.55572  0.00863  2.163064  0.013  -0.587486  0.004715  2.155997  0.007  -1.152119  0.020514  -0.308253  -0.53297  0.012706  2.166967  0.017
O  O89  1  0.43958065  0.07264971  0.77800132  1  -0.614484  0.016525  1.934976  0.022  -0.555906  0.008637  2.162769  0.013  -0.587687  0.004719  2.155719  0.007  -1.152024  0.020533  -0.308336  -0.533142  0.012718  2.166667  0.018
O  O90  1  0.56042873  0.42734753  0.77800275  1  -0.61431  0.01651  1.935251  0.022  -0.555796  0.008634  2.16308  0.013  -0.587583  0.004717  2.156054  0.007  -1.151748  0.020523  -0.308258  -0.53304  0.012712  2.16697  0.018
O  O91  1  0.93956434  0.92735173  0.72200298  1  -0.614304  0.016508  1.93529  0.022  -0.555812  0.008631  2.163097  0.013  -0.587577  0.004716  2.156057  0.007  -1.15215  0.020514  -0.308255  -0.533051  0.012706  2.167002  0.017
O  O92  1  0.93956134  0.42736299  0.27800704  1  -0.614313  0.016508  1.935321  0.022  -0.555699  0.008632  2.163052  0.013  -0.587485  0.004716  2.156031  0.007  -1.152042  0.020519  -0.308246  -0.532941  0.012709  2.166949  0.018
O  O93  1  0.56043473  0.92735019  0.22199725  1  -0.614232  0.016506  1.935289  0.022  -0.55571  0.008633  2.163113  0.013  -0.587476  0.004717  2.156051  0.007  -1.152208  0.02052  -0.308236  -0.532952  0.01271  2.167017  0.018
O  O94  1  0.43957015  0.57265237  0.22199511  1  -0.614299  0.016507  1.935122  0.022  -0.55581  0.008633  2.162956  0.013  -0.587575  0.004716  2.155895  0.007  -1.152182  0.02052  -0.308301  -0.53306  0.01271  2.166864  0.018
O  O95  1  0.06043154  0.07264971  0.27800489  1  -0.614352  0.016509  1.935399  0.022  -0.55582  0.008634  2.163206  0.013  -0.587582  0.004717  2.156146  0.007  -1.151796  0.020519  -0.30827  -0.533057  0.012709  2.167111  0.018
O  O96  1  0.25699004  0.75850991  0.88463927  1  -0.845954  0.000585  1.907548  0.001  -0.780371  0.000438  2.100962  0.001  -0.804153  0.000167  2.066247  0.0  -1.233844  0.001147  -0.589513  -0.763505  0.000712  2.125416  0.001
O  O97  1  0.24300715  0.25851653  0.61535644  1  -0.845718  0.000587  1.907692  0.001  -0.78013  0.000438  2.101071  0.001  -0.803908  0.000168  2.066365  0.0  -1.234258  0.001146  -0.589472  -0.763265  0.000712  2.125519  0.001
O  O98  1  0.75698873  0.24148303  0.61535787  1  -0.845734  0.000586  1.907703  0.001  -0.780136  0.000438  2.101107  0.001  -0.803915  0.000168  2.066396  0.0  -1.233734  0.001147  -0.589447  -0.763272  0.000712  2.125557  0.001
O  O99  1  0.74300884  0.74148723  0.88464213  1  -0.845897  0.000587  1.907568  0.001  -0.780316  0.000439  2.100964  0.001  -0.804098  0.000167  2.066253  0.0  -1.234317  0.001147  -0.589502  -0.763449  0.000712  2.125417  0.001
O  O100  1  0.74301184  0.24148458  0.11536145  1  -0.845903  0.000586  1.907597  0.001  -0.780293  0.000439  2.100964  0.001  -0.804075  0.000168  2.066245  0.0  -1.233803  0.001146  -0.589465  -0.763427  0.000712  2.125418  0.001
O  O101  1  0.75699473  0.74148182  0.38464428  1  -0.845715  0.000585  1.907727  0.001  -0.780119  0.000439  2.101124  0.001  -0.803899  0.000168  2.066423  0.0  -1.234269  0.001146  -0.589421  -0.763254  0.000712  2.125573  0.001
O  O102  1  0.24301015  0.75851300  0.38464070  1  -0.845855  0.000585  1.907637  0.001  -0.78025  0.000439  2.101046  0.001  -0.804031  0.000168  2.066334  0.0  -1.233809  0.001147  -0.589497  -0.763386  0.000712  2.125498  0.001
O  O103  1  0.25699604  0.25851962  0.11535858  1  -0.845788  0.000587  1.907646  0.001  -0.780206  0.000438  2.10103  0.001  -0.803987  0.000168  2.066318  0.0  -1.234226  0.001146  -0.589468  -0.763338  0.000712  2.125478  0.001
O  O104  1  0.26896445  0.26553550  0.85335189  1  -0.645135  0.009587  2.028266  0.013  -0.576936  0.005552  2.271287  0.008  -0.607922  0.003069  2.26059  0.005  -1.177627  0.01323  -0.306048  -0.555256  0.008104  2.278403  0.011
O  O105  1  0.23104774  0.76554202  0.64664740  1  -0.645096  0.009583  2.028896  0.013  -0.576843  0.00555  2.271905  0.008  -0.607828  0.003068  2.261212  0.005  -1.177646  0.013225  -0.305968  -0.555157  0.008101  2.279012  0.011
O  O106  1  0.76897214  0.73444894  0.64664668  1  -0.645014  0.009581  2.028797  0.013  -0.576863  0.00555  2.27181  0.008  -0.607851  0.003067  2.261129  0.005  -1.177945  0.013222  -0.306001  -0.555189  0.0081  2.278926  0.011
O  O107  1  0.73103143  0.23446174  0.85335332  1  -0.645039  0.00959  2.028284  0.013  -0.576875  0.005552  2.271359  0.008  -0.607863  0.003069  2.260675  0.005  -1.1773  0.01323  -0.306007  -0.555182  0.008105  2.278477  0.011
O  O108  1  0.73103743  0.73446208  0.14664525  1  -0.645141  0.009584  2.028634  0.013  -0.576941  0.005552  2.271673  0.008  -0.607924  0.003068  2.26098  0.005  -1.177918  0.013227  -0.306069  -0.555269  0.008103  2.278802  0.011
O  O109  1  0.76897814  0.23446019  0.35334903  1  -0.645089  0.009588  2.02776  0.013  -0.577008  0.005552  2.270907  0.008  -0.608004  0.003069  2.260224  0.005  -1.177072  0.013228  -0.306046  -0.555312  0.008103  2.278019  0.011
O  O110  1  0.23103124  0.26555019  0.35335046  1  -0.645065  0.009583  2.02843  0.013  -0.57697  0.005549  2.271482  0.008  -0.607958  0.003067  2.260801  0.005  -1.178149  0.013221  -0.30606  -0.555297  0.008099  2.278604  0.011
O  O111  1  0.26895845  0.76554434  0.14665097  1  -0.645089  0.009581  2.028738  0.013  -0.576822  0.005552  2.271668  0.008  -0.607811  0.003068  2.260985  0.005  -1.177368  0.013228  -0.306011  -0.555131  0.008103  2.278781  0.011
O  O112  1  0.15998128  0.38171724  0.95742996  1  -0.642492  0.065036  2.115676  0.093  -0.594569  0.045825  2.391066  0.071  -0.633373  0.034995  2.375417  0.059  -1.142905  0.083503  -0.318935  -0.56709  0.052613  2.401403  0.077
O  O113  1  0.33999941  0.88173071  0.54256718  1  -0.642516  0.065043  2.115685  0.093  -0.594555  0.045831  2.391071  0.071  -0.633365  0.035001  2.375406  0.059  -1.142986  0.083507  -0.31894  -0.567076  0.052617  2.401406  0.077
O  O114  1  0.65998747  0.61827184  0.54256861  1  -0.642484  0.065047  2.115622  0.093  -0.594561  0.045833  2.390893  0.071  -0.633367  0.035003  2.37532  0.059  -1.14319  0.083515  -0.318899  -0.567075  0.052623  2.40123  0.077
O  O115  1  0.84002360  0.11828233  0.95742996  1  -0.642447  0.065042  2.115662  0.093  -0.594523  0.045828  2.391074  0.071  -0.633319  0.034997  2.375434  0.059  -1.142882  0.083505  -0.31892  -0.567041  0.052614  2.401423  0.077
O  O116  1  0.83999810  0.61827571  0.04256861  1  -0.642507  0.065061  2.115417  0.093  -0.594586  0.045839  2.390839  0.071  -0.633387  0.035006  2.37519  0.059  -1.143103  0.083525  -0.318871  -0.567117  0.052628  2.40122  0.077
O  O117  1  0.65999647  0.11826996  0.45742996  1  -0.642463  0.065027  2.115782  0.093  -0.594464  0.045823  2.391079  0.071  -0.63329  0.034996  2.375472  0.059  -1.143261  0.083488  -0.318869  -0.566986  0.052606  2.401414  0.077
O  O118  1  0.34001741  0.38173038  0.45743282  1  -0.642413  0.065035  2.115765  0.093  -0.594478  0.045827  2.391021  0.071  -0.63329  0.034999  2.375457  0.059  -1.143117  0.0835  -0.318909  -0.566994  0.052613  2.40136  0.077
O  O119  1  0.16000378  0.88172608  0.04257434  1  -0.64246  0.065031  2.116025  0.093  -0.594492  0.045829  2.391327  0.071  -0.63331  0.034999  2.375717  0.059  -1.143052  0.083501  -0.318871  -0.56702  0.052614  2.401716  0.077
O  O120  1  0.62777971  0.39057404  0.99425636  1  -0.818964  -0.00107  1.823878  0.0  -0.780684  -0.0014  2.008267  0.0  -0.796873  -0.001597  1.974029  0.0  -1.249993  -0.000802  -0.573436  -0.768017  -0.00112  2.03062  0.0
O  O121  1  0.87224335  0.89057824  0.50574006  1  -0.819261  -0.001077  1.823494  0.0  -0.780927  -0.001399  2.008029  0.0  -0.797116  -0.001598  1.973708  0.0  -1.249873  -0.000802  -0.573541  -0.768258  -0.001121  2.030423  0.0
O  O122  1  0.12777203  0.60941736  0.50573935  1  -0.819142  -0.001076  1.823591  0.0  -0.780813  -0.0014  2.00819  0.0  -0.797004  -0.001598  1.973837  0.0  -1.249987  -0.000801  -0.57353  -0.76812  -0.00112  2.030611  0.0
O  O123  1  0.37220716  0.10942553  0.99425278  1  -0.818949  -0.001078  1.824042  0.0  -0.780758  -0.0014  2.008298  0.0  -0.796955  -0.001599  1.97399  0.0  -1.250058  -0.000803  -0.573371  -0.76809  -0.001122  2.030652  0.0
O  O124  1  0.37223716  0.60942200  0.00574078  1  -0.81916  -0.001074  1.823554  0.0  -0.780893  -0.001399  2.008005  0.0  -0.797087  -0.001597  1.973697  0.0  -1.249857  -0.0008  -0.573516  -0.768208  -0.001119  2.030391  0.0
O  O125  1  0.12777503  0.10942166  0.49426137  1  -0.819  -0.001078  1.823784  0.0  -0.780776  -0.0014  2.008225  0.0  -0.796966  -0.001598  1.97393  0.0  -1.25004  -0.000803  -0.57349  -0.768112  -0.001121  2.030598  0.0
O  O126  1  0.87223885  0.39057481  0.49425922  1  -0.819127  -0.001077  1.823636  0.0  -0.780872  -0.0014  2.008075  0.0  -0.797048  -0.001598  1.973767  0.0  -1.249832  -0.000801  -0.573519  -0.768208  -0.00112  2.030426  0.0
O  O127  1  0.62774821  0.89058210  0.00574006  1  -0.819169  -0.001076  1.823617  0.0  -0.780926  -0.001399  2.007996  0.0  -0.797113  -0.001597  1.973712  0.0  -1.249773  -0.000802  -0.573537  -0.76826  -0.001121  2.030346  0.0
