# generated using pymatgen
data_AgH15C30(NO)3
_symmetry_space_group_name_H-M   'P 1'
_cell_length_a   10.42494953
_cell_length_b   10.42261564
_cell_length_c   15.42198655
_cell_angle_alpha   94.97418177
_cell_angle_beta   108.08619901
_cell_angle_gamma   114.39203214
_symmetry_Int_Tables_number   1
_chemical_formula_structural   AgH15C30(NO)3
_chemical_formula_sum   'Ag2 H30 C60 N6 O6'
_cell_volume   1405.29559715
_cell_formula_units_Z   2
loop_
 _symmetry_equiv_pos_site_id
 _symmetry_equiv_pos_as_xyz
  1  'x, y, z'
loop_
 _atom_site_type_symbol
 _atom_site_label
 _atom_site_symmetry_multiplicity
 _atom_site_fract_x
 _atom_site_fract_y
 _atom_site_fract_z
 _atom_site_occupancy
 _atom_site_pbe_bader_charge
 _atom_site_pbe_bader_spin_density
 _atom_site_pbe_cm5_charge
 _atom_site_pbe_ddec_charge
 _atom_site_pbe_ddec_spin_density
 _atom_site_pbe_ddec_sum_bond_order
 _atom_site_pbe_magmom
Ag  Ag0  1  0.32112682  0.85688781  0.70373432  1  0.678521  0.011057  0.556685  0.506931  0.015378  2.027055  0.005
Ag  Ag1  1  0.34699845  0.38253398  0.20395803  1  0.679957  0.01082  0.556843  0.506774  0.015775  2.02717  0.005
H  H2  1  0.88819968  0.05289222  0.47920329  1  0.088073  0.000251  0.104977  0.107101  0.000293  1.021567  0.0
H  H3  1  0.61400555  0.99733241  0.41457384  1  0.100018  0.000325  0.109387  0.113946  0.00021  0.996619  0.0
H  H4  1  0.50551374  0.64871332  0.55355527  1  0.100005  0.001251  0.10853  0.110688  0.001227  1.002701  0.0
H  H5  1  0.77648441  0.70182303  0.61654304  1  0.085014  4.3e-05  0.107747  0.106228  -0.0001  1.012032  0.0
H  H6  1  0.13080440  0.75034237  0.47530954  1  0.107672  0.000644  0.105152  0.109087  0.000695  1.033702  -0.001
H  H7  1  0.93130323  0.28407444  0.42426588  1  0.06499  0.000425  0.098204  0.091479  0.000748  1.057786  0.0
H  H8  1  0.35402927  0.52206950  0.39106161  1  0.089856  0.001417  0.098634  0.092783  0.001498  1.057086  -0.001
H  H9  1  0.58602302  0.40261968  0.44271903  1  0.110996  0.000188  0.106978  0.11443  2.7e-05  1.017141  0.0
H  H10  1  0.44253253  0.21574188  0.51061509  1  0.123451  0.000872  0.111636  0.128677  0.000843  1.005878  0.0
H  H11  1  0.85366191  0.18972692  0.66366992  1  0.099851  0.000556  0.110725  0.117478  0.000372  0.984266  0.0
H  H12  1  0.99541954  0.37328218  0.59150741  1  0.074979  0.000599  0.104265  0.107756  0.000377  1.001827  0.0
H  H13  1  0.85263374  0.17186344  0.27382097  1  0.072365  0.000323  0.104852  0.109973  -5.5e-05  0.995514  0.0
H  H14  1  0.63645889  0.92661538  0.22756775  1  0.049796  0.000382  0.103489  0.103156  -5.7e-05  1.012625  0.0
H  H15  1  0.94511892  0.75800543  0.35631385  1  0.109804  0.00099  0.104065  0.112494  0.000924  1.03926  0.0
H  H16  1  0.16452032  0.00454915  0.39863470  1  0.105978  0.000301  0.10727  0.121777  -7.1e-05  1.01304  0.0
H  H17  1  0.92726478  0.59124017  0.97975681  1  0.083938  0.000254  0.105257  0.10703  0.000283  1.020786  0.0
H  H18  1  0.91716858  0.80046481  0.91504747  1  0.113895  0.000325  0.10977  0.1144  0.000209  0.996604  0.0
H  H19  1  0.40474631  0.04921671  0.05357536  1  0.102432  0.001265  0.108605  0.111115  0.001229  1.003005  0.0
H  H20  1  0.41579682  0.84156888  0.11654022  1  0.083915  4.7e-05  0.107359  0.106001  -0.000102  1.012935  0.0
H  H21  1  0.22406152  0.34445293  0.97475337  1  0.102544  0.000631  0.104827  0.108201  0.00066  1.034767  -0.001
H  H22  1  0.63926104  0.49295003  0.92387095  1  0.066748  0.000441  0.098225  0.09185  0.000748  1.056731  0.0
H  H23  1  0.36812572  0.03681774  0.89071397  1  0.077578  0.001562  0.098049  0.09115  0.001582  1.058345  -0.001
H  H24  1  0.53889341  0.85682811  0.94240832  1  0.126571  0.000179  0.106964  0.114151  3.3e-05  1.017255  0.0
H  H25  1  0.79341854  0.06849983  0.01056777  1  0.133955  0.000861  0.110974  0.127516  0.000846  1.007274  0.0
H  H26  1  0.97323398  0.81058356  0.16334588  1  0.100271  0.000517  0.11035  0.117119  0.000349  0.983126  0.0
H  H27  1  0.71758212  0.59631153  0.09081377  1  0.095012  0.000598  0.10435  0.107946  0.000406  1.001907  0.0
H  H28  1  0.60091369  0.42139740  0.77365387  1  0.064543  0.000324  0.105051  0.109621  -5.5e-05  0.996549  0.0
H  H29  1  0.79975944  0.59179720  0.72767773  1  0.070204  0.00037  0.10328  0.10316  -4.5e-05  1.014006  0.0
H  H30  1  0.09772471  0.41246391  0.85629777  1  0.115954  0.000985  0.103746  0.112275  0.000925  1.039431  0.0
H  H31  1  0.89359107  0.23475601  0.89842684  1  0.112058  0.000275  0.107594  0.122052  -8e-05  1.012089  0.0
C  C32  1  0.00480773  0.91482059  0.59100233  1  0.836026  0.003468  0.203939  0.284395  0.002881  3.976012  0.0
C  C33  1  0.84884742  0.88199423  0.55284414  1  0.103718  0.00804  0.010012  0.059285  0.008484  4.076834  0.005
C  C34  1  0.80348123  0.96498605  0.49510588  1  -0.008589  0.004026  -0.072871  -0.105896  0.004101  3.968803  0.002
C  C35  1  0.65124575  0.93310171  0.45848842  1  -0.023505  0.003618  -0.076681  -0.095256  0.003799  3.977961  0.001
C  C36  1  0.54192223  0.81864418  0.47819199  1  0.004426  0.008401  -0.010925  -0.001121  0.008431  3.9507  0.004
C  C37  1  0.58854496  0.73631508  0.53637530  1  -0.093867  0.005843  -0.075626  -0.093225  0.005848  3.95222  0.003
C  C38  1  0.74040180  0.76687924  0.57310107  1  0.033995  0.003026  -0.067672  -0.085286  0.002965  3.940569  0.001
C  C39  1  0.38124439  0.79516624  0.44131805  1  0.90899  0.012566  0.156619  0.342497  0.012991  3.991003  0.007
C  C40  1  0.25685582  0.65185819  0.43509530  1  -0.025566  -0.009446  -0.021177  -0.007064  -0.01045  4.021126  -0.011
C  C41  1  0.13363532  0.64902451  0.45515036  1  -0.060958  0.080418  -0.083077  -0.139749  0.081322  3.934158  0.048
C  C42  1  0.01653481  0.51593275  0.45226301  1  -0.013353  -5.3e-05  -0.023143  -0.005729  -0.00116  4.014243  -0.006
C  C43  1  0.02186236  0.38657077  0.42558428  1  -0.046279  0.007498  -0.076278  -0.128322  0.007306  3.936531  0.004
C  C44  1  0.14061049  0.38685699  0.40073884  1  -0.043096  0.004258  -0.024023  0.003025  0.002929  3.992925  -0.004
C  C45  1  0.25985897  0.52189500  0.40785632  1  -0.052789  0.062835  -0.080305  -0.130469  0.063152  3.932415  0.037
C  C46  1  0.88253488  0.51292568  0.46928970  1  0.872347  0.059939  0.135479  0.31297  0.062057  4.023423  0.031
C  C47  1  0.80018540  0.39929747  0.51102229  1  -0.04764  0.033631  -0.01794  -0.005625  0.033846  3.984763  0.017
C  C48  1  0.64444282  0.35596775  0.49095656  1  -0.038043  0.014729  -0.078353  -0.09304  0.014707  3.943921  0.007
C  C49  1  0.56395828  0.25209047  0.52992388  1  0.025513  0.018063  -0.070138  -0.090435  0.018542  3.918421  0.009
C  C50  1  0.64006698  0.19188539  0.59274538  1  0.082797  0.027171  -0.001366  0.025817  0.02879  4.100714  0.016
C  C51  1  0.79604566  0.23562546  0.61444618  1  -0.001157  0.010195  -0.076209  -0.100124  0.010426  3.987385  0.004
C  C52  1  0.87426727  0.33758182  0.57332532  1  -0.045836  0.015142  -0.090432  -0.126424  0.015497  4.013236  0.007
C  C53  1  0.55769859  0.08519132  0.63192067  1  0.837085  0.017977  0.227414  0.31537  0.016139  3.951048  0.007
C  C54  1  0.15697164  0.25397159  0.37839484  1  0.85752  0.093841  0.116993  0.282812  0.097307  4.056605  0.047
C  C55  1  0.02419241  0.10872143  0.34590493  1  -0.013633  0.063511  -0.021904  -0.00694  0.063664  3.986691  0.033
C  C56  1  0.87336093  0.08263990  0.29437751  1  -0.083408  0.021922  -0.092385  -0.128324  0.02279  4.014237  0.01
C  C57  1  0.75159236  0.94472940  0.26699805  1  0.01092  0.024738  -0.08345  -0.113296  0.024835  4.002862  0.012
C  C58  1  0.77650888  0.82648295  0.29090126  1  0.094562  0.051579  -0.011561  0.015613  0.055314  4.11406  0.031
C  C59  1  0.92752775  0.84970112  0.33826926  1  -0.08566  0.026102  -0.079043  -0.103922  0.025915  3.959078  0.012
C  C60  1  0.04842376  0.98761594  0.36353260  1  0.047993  0.025202  -0.082258  -0.10371  0.025643  3.944422  0.013
C  C61  1  0.65254200  0.68727063  0.26750526  1  0.828358  0.031808  0.215858  0.311677  0.027319  3.981543  0.01
C  C62  1  0.17771530  0.58711449  0.09118040  1  0.835248  0.003714  0.203508  0.284703  0.00308  3.976855  0.0
C  C63  1  0.17192215  0.70491479  0.05322150  1  0.071806  0.008617  0.010538  0.059548  0.009078  4.071322  0.005
C  C64  1  0.03085288  0.69209896  0.99560507  1  -0.002679  0.004539  -0.073822  -0.106425  0.00458  3.964926  0.002
C  C65  1  0.02550106  0.80744786  0.95891862  1  -0.008763  0.003677  -0.077616  -0.09629  0.003915  3.977613  0.001
C  C66  1  0.15942660  0.93667567  0.97839881  1  -0.025377  0.009151  -0.009482  0.000244  0.009093  3.950829  0.004
C  C67  1  0.30023702  0.94877814  0.03657417  1  -0.070633  0.006082  -0.076535  -0.095056  0.006113  3.955526  0.003
C  C68  1  0.30702260  0.83391658  0.07336435  1  0.009059  0.003251  -0.067958  -0.085565  0.003182  3.939744  0.001
C  C69  1  0.14552887  0.05995532  0.94110722  1  0.92679  0.013113  0.155635  0.341921  0.013625  3.993593  0.007
C  C70  1  0.28244267  0.17813099  0.93471927  1  -0.008262  -0.009604  -0.021397  -0.010043  -0.010549  4.024404  -0.011
C  C71  1  0.30524815  0.32144057  0.95468606  1  -0.065152  0.080937  -0.082578  -0.137917  0.081899  3.934019  0.048
C  C72  1  0.43546720  0.43567726  0.95185055  1  -0.023425  -0.000243  -0.02224  -0.003536  -0.001372  4.013424  -0.006
C  C73  1  0.53813091  0.40366039  0.92519847  1  -0.108347  0.007763  -0.077537  -0.131698  0.007593  3.938006  0.004
C  C74  1  0.51298255  0.25998771  0.90032020  1  -0.0026  0.004067  -0.023562  0.003526  0.002728  3.991425  -0.004
C  C75  1  0.38509526  0.14782273  0.90747948  1  -0.017084  0.062913  -0.079651  -0.12618  0.063281  3.929717  0.037
C  C76  1  0.45550692  0.58677114  0.96883552  1  0.874186  0.060354  0.134064  0.311201  0.062528  4.024493  0.032
C  C77  1  0.61081198  0.71105070  0.01058196  1  -0.008881  0.034254  -0.017996  -0.004545  0.034389  3.981973  0.017
C  C78  1  0.63389048  0.84678644  0.99063704  1  -0.031675  0.01486  -0.078658  -0.093051  0.015004  3.94162  0.007
C  C79  1  0.77666248  0.96637942  0.02976505  1  -0.016905  0.01876  -0.069702  -0.089876  0.019061  3.918333  0.01
C  C80  1  0.89987455  0.95321244  0.09250791  1  0.091358  0.027625  -0.001944  0.02539  0.02919  4.100862  0.017
C  C81  1  0.87803262  0.81888559  0.11408809  1  -0.016299  0.009582  -0.075472  -0.099066  0.009838  3.983162  0.004
C  C82  1  0.73498344  0.69942639  0.07286343  1  -0.097342  0.015284  -0.090285  -0.126713  0.015535  4.008622  0.007
C  C83  1  0.04565603  0.07489454  0.13190349  1  0.853908  0.01741  0.226597  0.313505  0.015649  3.954344  0.006
C  C84  1  0.62340906  0.22130007  0.87782029  1  0.859264  0.093947  0.116918  0.283358  0.097183  4.055928  0.047
C  C85  1  0.73630431  0.32193078  0.84555461  1  -0.099332  0.062566  -0.022109  -0.008355  0.062987  3.988064  0.032
C  C86  1  0.71071284  0.42132310  0.79418415  1  0.004161  0.022183  -0.091606  -0.125576  0.022981  4.014457  0.01
C  C87  1  0.82123957  0.51605787  0.76698507  1  -0.031128  0.024918  -0.083615  -0.114505  0.025053  4.004619  0.012
C  C88  1  0.96351575  0.51535997  0.79091693  1  0.071482  0.052145  -0.010834  0.015654  0.055827  4.112699  0.032
C  C89  1  0.98781683  0.41163856  0.83817997  1  -0.055272  0.025668  -0.078622  -0.103526  0.02564  3.958808  0.012
C  C90  1  0.87515987  0.31559333  0.86324355  1  0.050375  0.025291  -0.082698  -0.103711  0.025517  3.944891  0.012
C  C91  1  0.07923866  0.61622967  0.76764123  1  0.831823  0.032289  0.216203  0.313285  0.027918  3.97602  0.01
N  N92  1  0.13367654  0.94434820  0.62399137  1  -1.181322  0.0093  -0.32394  -0.385839  0.008717  2.961252  0.006
N  N93  1  0.48698684  0.99581451  0.66266731  1  -1.209305  0.022694  -0.3656  -0.37352  0.021688  3.346032  0.015
N  N94  1  0.54823123  0.57195378  0.24755924  1  -1.253247  0.0478  -0.37912  -0.400797  0.046982  3.371068  0.033
N  N95  1  0.18143360  0.49118038  0.12400925  1  -1.177004  0.009917  -0.324117  -0.386515  0.009353  2.964375  0.007
N  N96  1  0.16580724  0.17635308  0.16327756  1  -1.220887  0.022474  -0.364382  -0.371267  0.021529  3.347122  0.014
N  N97  1  0.17455792  0.70062135  0.74766047  1  -1.239444  0.048147  -0.379894  -0.402279  0.047265  3.367101  0.033
O  O98  1  0.35292357  0.89456590  0.41872314  1  -1.083423  0.008743  -0.259189  -0.398124  0.007911  2.096832  0.006
O  O99  1  0.83885626  0.60454820  0.44680532  1  -1.094289  0.056699  -0.272365  -0.427599  0.054648  2.160305  0.046
O  O100  1  0.28765618  0.26769645  0.39168981  1  -1.099998  0.10236  -0.290733  -0.456236  0.099309  2.171579  0.083
O  O101  1  0.02334527  0.06530991  0.91831627  1  -1.081022  0.009538  -0.259357  -0.398275  0.008688  2.096252  0.007
O  O102  1  0.34140146  0.60794863  0.94628236  1  -1.091898  0.057018  -0.271895  -0.428018  0.054927  2.161277  0.046
O  O103  1  0.62272909  0.10365768  0.89069959  1  -1.11028  0.101069  -0.290286  -0.456084  0.097976  2.170253  0.082
