# generated using pymatgen
data_CuH6C10(SN3)2
_symmetry_space_group_name_H-M   'P 1'
_cell_length_a   7.84436188
_cell_length_b   8.91215453
_cell_length_c   8.91203302
_cell_angle_alpha   103.65264514
_cell_angle_beta   91.50806398
_cell_angle_gamma   91.51028647
_symmetry_Int_Tables_number   1
_chemical_formula_structural   CuH6C10(SN3)2
_chemical_formula_sum   'Cu2 H12 C20 S4 N12'
_cell_volume   604.88741307
_cell_formula_units_Z   2
loop_
 _symmetry_equiv_pos_site_id
 _symmetry_equiv_pos_as_xyz
  1  'x, y, z'
loop_
 _atom_site_type_symbol
 _atom_site_label
 _atom_site_symmetry_multiplicity
 _atom_site_fract_x
 _atom_site_fract_y
 _atom_site_fract_z
 _atom_site_occupancy
 _atom_site_hle17_ddec_charge
 _atom_site_hle17_ddec_spin_density
 _atom_site_hle17_ddec_sum_bond_order
 _atom_site_hle17_magmom
 _atom_site_hse06_10hf_ddec_charge
 _atom_site_hse06_10hf_ddec_spin_density
 _atom_site_hse06_10hf_ddec_sum_bond_order
 _atom_site_hse06_10hf_magmom
 _atom_site_hse06_ddec_charge
 _atom_site_hse06_ddec_spin_density
 _atom_site_hse06_ddec_sum_bond_order
 _atom_site_hse06_magmom
 _atom_site_pbe_cm5_charge
 _atom_site_pbe_ddec_charge
 _atom_site_pbe_ddec_spin_density
 _atom_site_pbe_ddec_sum_bond_order
 _atom_site_pbe_magmom
Cu  Cu0  1  0.75000424  0.36919427  0.63078910  1  0.794869  -0.665526  2.058207  -0.454  0.79008  -0.787539  2.466397  -0.603  0.889915  -0.877371  2.380666  -0.7  0.779003  0.729494  -0.712066  2.522964  -0.53
Cu  Cu1  1  0.25000929  0.63079915  0.36920432  1  0.794833  0.665496  2.058187  0.454  0.790061  0.787549  2.466368  0.603  0.889931  0.87737  2.380679  0.7  0.778989  0.729472  0.712062  2.52294  0.53
H  H2  1  0.40462002  0.45503791  0.78263241  1  0.092283  -0.001202  0.939004  -0.002  0.100654  -0.001335  1.002002  -0.002  0.101849  -0.000946  1.000711  -0.001  0.120312  0.09936  -0.001615  1.003234  -0.002
H  H3  1  0.09538497  0.21737006  0.54495750  1  0.092328  -0.001201  0.938916  -0.002  0.100659  -0.001335  1.001978  -0.002  0.101852  -0.000945  1.000691  -0.001  0.120325  0.099368  -0.001615  1.003207  -0.002
H  H4  1  0.59538261  0.54496963  0.21737157  1  0.092282  0.001201  0.939011  0.002  0.100588  0.001335  1.002106  0.002  0.101783  0.000946  1.000815  0.001  0.120316  0.099308  0.001615  1.003314  0.002
H  H5  1  0.90461730  0.78262943  0.45504588  1  0.092283  0.001199  0.938921  0.002  0.10064  0.001335  1.00196  0.002  0.101834  0.000946  1.00067  0.001  0.120288  0.099349  0.001616  1.003194  0.002
H  H6  1  0.23918380  0.35799017  0.98462836  1  0.114972  0.000174  0.97471  0.0  0.120752  -0.000213  1.043746  0.0  0.124301  -0.000211  1.043212  0.0  0.099038  0.117832  -0.000164  1.044574  0.0
H  H7  1  0.26081501  0.01538351  0.64201263  1  0.114941  0.000175  0.974656  0.0  0.120726  -0.000213  1.043687  0.0  0.124282  -0.000211  1.043134  0.0  0.099033  0.117794  -0.000164  1.044541  0.0
H  H8  1  0.76081243  0.64201613  0.01537069  1  0.115008  -0.000174  0.974747  0.0  0.120777  0.000213  1.043782  0.0  0.124327  0.000211  1.043244  0.0  0.099063  0.117874  0.000164  1.044597  0.0
H  H9  1  0.73918609  0.98461824  0.35798896  1  0.114958  -0.000174  0.974636  0.0  0.120746  0.000213  1.043665  0.0  0.124303  0.000211  1.043112  0.0  0.099039  0.117809  0.000164  1.044533  0.0
H  H10  1  0.37477964  0.15167060  0.09665939  1  0.085508  -0.000375  0.955576  -0.001  0.086063  -0.000135  1.030133  0.0  0.089083  -2.7e-05  1.026128  0.0  0.114554  0.083745  -0.000266  1.033239  -0.001
H  H11  1  0.12519515  0.90334423  0.84832544  1  0.085413  -0.000375  0.955623  -0.001  0.085992  -0.000135  1.030137  0.0  0.089012  -2.7e-05  1.026132  0.0  0.114544  0.083674  -0.000266  1.033246  -0.001
H  H12  1  0.62520601  0.84832629  0.90332841  1  0.085461  0.000372  0.955576  0.001  0.08606  0.000135  1.030101  0.0  0.089081  2.7e-05  1.026095  0.0  0.114509  0.083735  0.000266  1.033215  0.001
H  H13  1  0.87479949  0.09665519  0.15167323  1  0.085524  0.000373  0.955585  0.001  0.086069  0.000135  1.030115  0.0  0.089087  2.7e-05  1.026113  0.0  0.114558  0.083751  0.000266  1.033219  0.001
C  C14  1  0.45207583  0.36627808  0.83719574  1  0.1782  0.005086  3.673144  0.005  0.14679  0.000689  3.924677  0.002  0.159087  0.001605  3.943592  0.003  0.067877  0.138994  -3e-06  3.912619  0.001
C  C15  1  0.04792325  0.16280854  0.63371862  1  0.178042  0.005099  3.672745  0.005  0.14664  0.000689  3.924369  0.002  0.158932  0.001603  3.943288  0.003  0.067824  0.138852  -2e-06  3.912314  0.001
C  C16  1  0.54792544  0.63372710  0.16280546  1  0.178212  -0.005077  3.673028  -0.005  0.146847  -0.000688  3.924533  -0.002  0.159146  -0.001604  3.943447  -0.003  0.067896  0.139054  2e-06  3.912487  -0.001
C  C17  1  0.95207930  0.83719655  0.36627923  1  0.178092  -0.005074  3.673023  -0.005  0.146668  -0.000688  3.924615  -0.002  0.158966  -0.001602  3.943534  -0.003  0.067854  0.138876  3e-06  3.912565  -0.001
C  C18  1  0.36261127  0.31262614  0.94757880  1  -0.155222  -0.007853  3.681857  -0.008  -0.163283  -0.004211  3.921168  -0.005  -0.175013  -0.00359  3.94217  -0.004  -0.074555  -0.155826  -0.004681  3.907742  -0.005
C  C19  1  0.13738484  0.05242380  0.68737860  1  -0.155097  -0.007874  3.681466  -0.008  -0.163139  -0.004211  3.920791  -0.005  -0.174865  -0.003588  3.941795  -0.004  -0.074524  -0.155679  -0.00468  3.907373  -0.005
C  C20  1  0.63738877  0.68738017  0.05242148  1  -0.155248  0.007841  3.681655  0.008  -0.163288  0.004207  3.921019  0.005  -0.175016  0.003588  3.942019  0.004  -0.074592  -0.155851  0.00468  3.907581  0.005
C  C21  1  0.86261615  0.94757575  0.31262700  1  -0.155156  0.007848  3.681753  0.008  -0.16322  0.004209  3.921069  0.005  -0.174948  0.003588  3.942075  0.004  -0.074563  -0.155762  0.004681  3.907647  0.005
C  C22  1  0.43815207  0.20014050  0.01053418  1  0.196602  0.005784  3.633121  0.005  0.169787  0.002255  3.885778  0.002  0.181755  0.002446  3.897588  0.002  0.078429  0.161324  0.002014  3.878271  0.002
C  C23  1  0.06183378  0.98946887  0.79985926  1  0.196587  0.005794  3.633282  0.005  0.169755  0.002254  3.885961  0.002  0.18172  0.002445  3.89777  0.002  0.078404  0.161295  0.002013  3.878462  0.002
C  C24  1  0.56184012  0.79986120  0.98946379  1  0.196652  -0.005766  3.633017  -0.005  0.169753  -0.002254  3.885776  -0.002  0.18172  -0.002448  3.897584  -0.002  0.078448  0.161294  -0.002014  3.878275  -0.002
C  C25  1  0.93816351  0.01053284  0.20013997  1  0.19645  -0.005771  3.633243  -0.005  0.169683  -0.002255  3.885888  -0.002  0.181648  -0.002448  3.897699  -0.002  0.078411  0.16123  -0.002014  3.878369  -0.002
C  C26  1  0.66697648  0.19981934  0.85893065  1  0.293817  0.00559  3.790801  0.005  0.273988  0.001293  4.052567  0.001  0.28969  0.001777  4.065277  0.002  0.248197  0.263395  0.000966  4.044623  0.001
C  C27  1  0.83301031  0.14106860  0.80017667  1  0.293868  0.005608  3.790645  0.005  0.274018  0.001293  4.052461  0.001  0.289672  0.001775  4.065219  0.002  0.248206  0.263426  0.000966  4.044526  0.001
C  C28  1  0.33301554  0.80017902  0.14107110  1  0.293794  -0.005584  3.790942  -0.005  0.273957  -0.001297  4.052704  -0.001  0.289659  -0.001779  4.065412  -0.002  0.248194  0.263366  -0.000967  4.044766  -0.001
C  C29  1  0.16698700  0.85893303  0.19981918  1  0.293857  -0.005587  3.79093  -0.005  0.273989  -0.001297  4.052757  -0.001  0.289657  -0.001779  4.065499  -0.002  0.248175  0.263394  -0.000966  4.044817  -0.001
C  C30  1  0.39333709  0.32125308  0.39077775  1  0.307725  -0.010609  4.002239  -0.008  0.312762  0.004873  4.310895  0.009  0.341074  0.003719  4.327216  0.007  0.154298  0.293274  0.005605  4.298795  0.009
C  C31  1  0.10666282  0.60923441  0.67875080  1  0.307807  -0.010612  4.002393  -0.008  0.312847  0.004877  4.311067  0.009  0.341162  0.003724  4.32739  0.007  0.154341  0.293358  0.005609  4.298979  0.009
C  C32  1  0.60665823  0.67873533  0.60923993  1  0.307843  0.01061  4.002844  0.008  0.312879  -0.00487  4.311508  -0.009  0.341187  -0.003726  4.327832  -0.007  0.154368  0.293389  -0.005607  4.299416  -0.009
C  C33  1  0.89334113  0.39077287  0.32124305  1  0.307782  0.010612  4.002355  0.008  0.312829  -0.004866  4.310988  -0.009  0.341141  -0.00372  4.327305  -0.007  0.154326  0.293339  -0.005603  4.298896  -0.009
S  S34  1  0.44674421  0.16052276  0.42975084  1  -0.287382  0.058411  2.032642  0.053  -0.313785  0.01089  2.355744  0.01  -0.33539  0.005159  2.350929  0.005  -0.143912  -0.295861  0.016971  2.35744  0.015
S  S35  1  0.05327001  0.57026003  0.83946618  1  -0.287333  0.05846  2.033175  0.053  -0.313808  0.010906  2.356358  0.01  -0.335417  0.005172  2.351549  0.005  -0.143918  -0.295858  0.016993  2.358022  0.015
S  S36  1  0.55325931  0.83944954  0.57026815  1  -0.2874  -0.058447  2.033112  -0.053  -0.31387  -0.010904  2.356287  -0.01  -0.335482  -0.005166  2.351482  -0.005  -0.143974  -0.295908  -0.016987  2.357926  -0.015
S  S37  1  0.94674037  0.42974674  0.16050979  1  -0.287378  -0.058422  2.032611  -0.053  -0.313804  -0.010896  2.355725  -0.01  -0.33541  -0.00516  2.350918  -0.005  -0.143911  -0.295883  -0.016976  2.357434  -0.015
N  N38  1  0.60436275  0.30957980  0.79320603  1  -0.370263  -0.064696  3.338197  -0.078  -0.320501  -0.060777  3.628154  -0.08  -0.357402  -0.050728  3.649954  -0.07  -0.336544  -0.299686  -0.064363  3.616734  -0.081
N  N39  1  0.89562899  0.20679329  0.69041275  1  -0.370126  -0.064693  3.337974  -0.078  -0.320392  -0.060763  3.627989  -0.08  -0.357276  -0.050716  3.649802  -0.07  -0.336543  -0.299587  -0.064345  3.616585  -0.081
N  N40  1  0.39563454  0.69042191  0.20679321  1  -0.370298  0.064674  3.338342  0.078  -0.320521  0.060763  3.628261  0.08  -0.357433  0.050718  3.65008  0.07  -0.336594  -0.299709  0.064346  3.61685  0.081
N  N41  1  0.10436959  0.79320835  0.30958426  1  -0.37009  0.064684  3.337977  0.078  -0.320325  0.060772  3.627949  0.08  -0.357233  0.050724  3.649789  0.07  -0.336473  -0.299517  0.064356  3.616541  0.081
N  N42  1  0.59068402  0.14418472  0.96687200  1  -0.319924  -0.013643  3.029639  -0.015  -0.285127  -0.008677  3.29315  -0.01  -0.301614  -0.005199  3.305903  -0.007  -0.284053  -0.273426  -0.012597  3.284315  -0.014
N  N43  1  0.90930621  0.03312573  0.85581340  1  -0.319866  -0.013656  3.029555  -0.015  -0.285062  -0.008676  3.293072  -0.01  -0.301537  -0.005199  3.30584  -0.007  -0.284019  -0.273359  -0.012595  3.284244  -0.014
N  N44  1  0.40930803  0.85581347  0.03312298  1  -0.319862  0.013634  3.029527  0.015  -0.285025  0.008677  3.29303  0.01  -0.301512  0.005201  3.305781  0.007  -0.283988  -0.273326  0.012596  3.284198  0.014
N  N45  1  0.09069342  0.96687140  0.14418718  1  -0.319829  0.013638  3.029753  0.015  -0.285033  0.008678  3.293241  0.01  -0.301511  0.005201  3.306002  0.007  -0.284025  -0.27333  0.012598  3.284402  0.014
N  N46  1  0.64302657  0.56293102  0.64464366  1  -0.533884  -0.071222  3.0645  -0.081  -0.523221  -0.040287  3.382699  -0.049  -0.562456  -0.033802  3.387695  -0.043  -0.433138  -0.497964  -0.043253  3.379921  -0.051
N  N47  1  0.85698494  0.35537498  0.43705593  1  -0.533923  -0.071212  3.064599  -0.081  -0.523249  -0.04029  3.382771  -0.049  -0.562457  -0.03381  3.38771  -0.043  -0.433198  -0.497999  -0.043253  3.380008  -0.051
N  N48  1  0.35697542  0.43706436  0.35537905  1  -0.53381  0.071211  3.064331  0.081  -0.523147  0.040285  3.382538  0.049  -0.562386  0.03381  3.387545  0.043  -0.433133  -0.497895  0.043251  3.37976  0.051
N  N49  1  0.14302574  0.64464029  0.56293756  1  -0.533901  0.071249  3.064106  0.081  -0.523259  0.040289  3.382333  0.049  -0.562497  0.033809  3.38732  0.043  -0.433163  -0.498  0.043259  3.379558  0.051
