# generated using pymatgen
data_KH13C18O13
_symmetry_space_group_name_H-M   'P 1'
_cell_length_a   9.29977737
_cell_length_b   10.09556141
_cell_length_c   10.89892182
_cell_angle_alpha   101.02090159
_cell_angle_beta   100.61955497
_cell_angle_gamma   93.82870201
_symmetry_Int_Tables_number   1
_chemical_formula_structural   KH13C18O13
_chemical_formula_sum   'K2 H26 C36 O26'
_cell_volume   981.65378537
_cell_formula_units_Z   2
loop_
 _symmetry_equiv_pos_site_id
 _symmetry_equiv_pos_as_xyz
  1  'x, y, z'
loop_
 _atom_site_type_symbol
 _atom_site_label
 _atom_site_symmetry_multiplicity
 _atom_site_fract_x
 _atom_site_fract_y
 _atom_site_fract_z
 _atom_site_occupancy
 _atom_site_hle17_bader_spin_density
 _atom_site_hle17_ddec_charge
 _atom_site_hle17_ddec_spin_density
 _atom_site_hle17_ddec_sum_bond_order
 _atom_site_hle17_magmom
 _atom_site_hse06_10hf_bader_spin_density
 _atom_site_hse06_10hf_ddec_charge
 _atom_site_hse06_10hf_ddec_spin_density
 _atom_site_hse06_10hf_ddec_sum_bond_order
 _atom_site_hse06_10hf_magmom
 _atom_site_hse06_bader_spin_density
 _atom_site_hse06_ddec_charge
 _atom_site_hse06_ddec_spin_density
 _atom_site_hse06_ddec_sum_bond_order
 _atom_site_hse06_magmom
 _atom_site_pbe_bader_spin_density
 _atom_site_pbe_cm5_charge
 _atom_site_pbe_ddec_charge
 _atom_site_pbe_ddec_spin_density
 _atom_site_pbe_ddec_sum_bond_order
 _atom_site_pbe_magmom
K  K0  1  0.72915162  0.21347296  0.13166387  1  0  0.921413  0  0.492662  0  0  0.874857  0  0.682242  0  0  0.889929  0  0.657154  0  0  0.80201  0.863188  0  0.701249  0
K  K1  1  0.27084730  0.78652588  0.86833600  1  0  0.921403  0  0.492668  0  0  0.874846  0  0.682252  0  0  0.889916  0  0.657161  0  0  0.802004  0.863182  0  0.701259  0
H  H2  1  0.26424872  0.47453328  0.02104171  1  0  0.404267  0  0.88223  0  0  0.370244  0  0.964638  0  0  0.384004  0  0.949565  0  0  0.303216  0.360589  0  0.97512  0
H  H3  1  0.73575173  0.52546962  0.97895820  1  0  0.4044  0  0.88214  0  0  0.370423  0  0.96445  0  0  0.38419  0  0.949359  0  0  0.303285  0.360765  0  0.974944  0
H  H4  1  0.94861460  0.79078402  0.09749760  1  0  0.114069  0  0.932824  0  0  0.121748  0  0.995956  0  0  0.126934  0  0.990178  0  0  0.116448  0.118012  0  1.000108  0
H  H5  1  0.05137873  0.20921377  0.90250029  1  0  0.114046  0  0.932816  0  0  0.121741  0  0.995943  0  0  0.126928  0  0.990164  0  0  0.116456  0.118006  0  1.000088  0
H  H6  1  0.71168258  0.05413279  0.36581643  1  0  0.399541  0  0.890759  0  0  0.368967  0  0.971027  0  0  0.380853  0  0.957945  0  0  0.308638  0.360428  0  0.98057  0
H  H7  1  0.28831535  0.94586706  0.63418254  1  0  0.399526  0  0.890811  0  0  0.368935  0  0.971094  0  0  0.38082  0  0.958016  0  0  0.308635  0.360397  0  0.980639  0
H  H8  1  0.92535667  0.83201942  0.49437482  1  0  0.116908  0  0.933012  0  0  0.124331  0  0.996934  0  0  0.128784  0  0.99241  0  0  0.112753  0.120995  0  1.0003  0
H  H9  1  0.07463983  0.16797738  0.50562339  1  0  0.116927  0  0.932937  0  0  0.124361  0  0.996857  0  0  0.128812  0  0.992331  0  0  0.112751  0.121025  0  1.000217  0
H  H10  1  0.17887586  0.53448892  0.32213364  1  0  0.123321  0  0.926653  0  0  0.130872  0  0.988881  0  0  0.135087  0  0.984803  0  0  0.117195  0.128104  0  0.991368  0
H  H11  1  0.82111966  0.46550889  0.67786092  1  0  0.123264  0  0.926707  0  0  0.130819  0  0.98894  0  0  0.135033  0  0.984865  0  0  0.117183  0.128053  0  0.99143  0
H  H12  1  0.23145799  0.53209270  0.63787625  1  0  0.405988  0  0.895687  0  0  0.373113  0  0.976296  0  0  0.385848  0  0.958484  0  0  0.30368  0.364131  0  0.988437  0
H  H13  1  0.76854081  0.46790512  0.36212067  1  0  0.405947  0  0.895719  0  0  0.373071  0  0.976352  0  0  0.385805  0  0.95854  0  0  0.303667  0.36409  0  0.988476  0
H  H14  1  0.43532033  0.30194675  0.25201491  1  0  0.421488  0  0.849178  0  0  0.391397  0  0.924553  0  0  0.40412  0  0.910778  0  0  0.309961  0.382442  0  0.934181  0
H  H15  1  0.56468000  0.69805514  0.74798755  1  0  0.421425  0  0.849238  0  0  0.391343  0  0.924599  0  0  0.404068  0  0.910824  0  0  0.309932  0.382389  0  0.934224  0
H  H16  1  0.36866383  0.15392489  0.07370603  1  0  0.427809  0  0.85974  0  0  0.40024  0  0.918513  0  0  0.4099  0  0.903999  0  0  0.305156  0.393407  0  0.928809  0
H  H17  1  0.63133356  0.84608002  0.92629467  1  0  0.427904  0  0.859746  0  0  0.400325  0  0.918433  0  0  0.409987  0  0.903914  0  0  0.305181  0.393492  0  0.928729  0
H  H18  1  0.39305166  0.29656428  0.03346408  1  0  0.44054  0  0.856165  0  0  0.408826  0  0.920088  0  0  0.419576  0  0.904411  0  0  0.299085  0.401291  0  0.931074  0
H  H19  1  0.60695131  0.70344168  0.96653952  1  0  0.440556  0  0.856143  0  0  0.408834  0  0.920082  0  0  0.419588  0  0.904402  0  0  0.299079  0.401294  0  0.931076  0
H  H20  1  0.38729805  0.40392120  0.56533451  1  0  0.120584  0  0.94987  0  0  0.127275  0  1.015671  0  0  0.131451  0  1.011477  0  0  0.116795  0.123836  0  1.019547  0
H  H21  1  0.61271248  0.59608379  0.43466827  1  0  0.120598  0  0.949885  0  0  0.127328  0  1.01565  0  0  0.131504  0  1.011453  0  0  0.116825  0.123886  0  1.019532  0
H  H22  1  0.80138368  0.89898972  0.75546937  1  0  0.423149  0  0.767297  0  0  0.409402  0  0.813693  0  0  0.418684  0  0.804421  0  0  0.363129  0.402774  0  0.820442  0
H  H23  1  0.19861622  0.10100811  0.24453506  1  0  0.423183  0  0.767296  0  0  0.409439  0  0.813691  0  0  0.418721  0  0.804416  0  0  0.363143  0.402811  0  0.820435  0
H  H24  1  0.51425983  0.22104006  0.88943547  1  0  0.095524  0  0.974479  0  0  0.099554  0  1.049524  0  0  0.104033  0  1.044889  0  0  0.11556  0.096506  0  1.052505  0
H  H25  1  0.48574247  0.77895981  0.11056511  1  0  0.095524  0  0.974501  0  0  0.09956  0  1.049539  0  0  0.104047  0  1.04489  0  0  0.115564  0.096511  0  1.052522  0
H  H26  1  0.66071504  0.07540498  0.54178801  1  0  0.114157  0  0.969858  0  0  0.121475  0  1.037208  0  0  0.125131  0  1.034007  0  0  0.11456  0.119022  0  1.039049  0
H  H27  1  0.33928946  0.92459490  0.45821292  1  0  0.114128  0  0.96986  0  0  0.121462  0  1.037194  0  0  0.12512  0  1.033993  0  0  0.114551  0.119007  0  1.039035  0
C  C28  1  0.07054161  0.65685011  0.19846496  1  0  -0.080648  0  3.753241  0  0  -0.055324  0  3.99431  0  0  -0.067197  0  4.018462  0  0  -0.013896  -0.048037  0  3.979069  0
C  C29  1  0.92945282  0.34314770  0.80153218  1  0  -0.080609  0  3.753205  0  0  -0.055266  0  3.994294  0  0  -0.067138  0  4.018444  0  0  -0.013868  -0.047984  0  3.979058  0
C  C30  1  0.97769002  0.75892503  0.18810876  1  0  -0.025504  0  3.664566  0  0  -0.070798  0  3.919025  0  0  -0.063935  0  3.934255  0  0  -0.059116  -0.075083  0  3.908692  0
C  C31  1  0.02230331  0.24107276  0.81188729  1  0  -0.025559  0  3.664611  0  0  -0.070914  0  3.91911  0  0  -0.064051  0  3.934339  0  0  -0.059151  -0.075195  0  3.908773  0
C  C32  1  0.92306503  0.82102697  0.29353292  1  0  -0.090708  0  3.777421  0  0  -0.065459  0  4.018834  0  0  -0.07793  0  4.043604  0  0  -0.017522  -0.057773  0  4.002406  0
C  C33  1  0.07692918  0.17896881  0.70646382  1  0  -0.090652  0  3.777321  0  0  -0.065349  0  4.018674  0  0  -0.077816  0  4.043444  0  0  -0.017524  -0.057665  0  4.002251  0
C  C34  1  0.05624249  0.67953224  0.42095564  1  0  -0.086262  0  3.751676  0  0  -0.059596  0  3.991938  0  0  -0.071789  0  4.016001  0  0  -0.014882  -0.052184  0  3.975931  0
C  C35  1  0.94375413  0.32046558  0.57904276  1  0  -0.086318  0  3.751674  0  0  -0.059617  0  3.991911  0  0  -0.071811  0  4.015978  0  0  -0.014884  -0.052204  0  3.975906  0
C  C36  1  0.96388452  0.78241177  0.41054320  1  0  -0.02037  0  3.640564  0  0  -0.063956  0  3.892302  0  0  -0.057205  0  3.908186  0  0  -0.058703  -0.067101  0  3.88085  0
C  C37  1  0.03611220  0.21758705  0.58945448  1  0  -0.020426  0  3.640492  0  0  -0.064051  0  3.892214  0  0  -0.057295  0  3.908095  0  0  -0.058722  -0.067195  0  3.880758  0
C  C38  1  0.10755151  0.61484658  0.31432020  1  0  -0.01497  0  3.621976  0  0  -0.059006  0  3.874036  0  0  -0.051995  0  3.889547  0  0  -0.0546  -0.062695  0  3.863995  0
C  C39  1  0.89244280  0.38515020  0.68567766  1  0  -0.014802  0  3.621849  0  0  -0.058867  0  3.873914  0  0  -0.051855  0  3.889425  0  0  -0.054554  -0.062557  0  3.86388  0
C  C40  1  0.13509414  0.60310963  0.08587995  1  0  0.654162  0  3.85433  0  0  0.604714  0  4.153888  0  0  0.63691  0  4.148  0  0  0.224761  0.582758  0  4.157206  0
C  C41  1  0.86490150  0.39688919  0.91411664  1  0  0.654142  0  3.854319  0  0  0.604676  0  4.153893  0  0  0.636874  0  4.148001  0  0  0.22476  0.58273  0  4.157199  0
C  C42  1  0.82352608  0.92811405  0.27700395  1  0  0.662018  0  3.826104  0  0  0.614062  0  4.122306  0  0  0.646661  0  4.115393  0  0  0.232511  0.591441  0  4.127247  0
C  C43  1  0.17647064  0.07188478  0.72299557  1  0  0.66204  0  3.825999  0  0  0.614099  0  4.122152  0  0  0.646693  0  4.115245  0  0  0.232553  0.591472  0  4.127105  0
C  C44  1  0.10367807  0.64649519  0.54886393  1  0  0.657693  0  3.837555  0  0  0.605783  0  4.140101  0  0  0.638904  0  4.132489  0  0  0.221585  0.58328  0  4.144764  0
C  C45  1  0.89631964  0.35350262  0.45113373  1  0  0.657676  0  3.83767  0  0  0.605767  0  4.140197  0  0  0.638888  0  4.132585  0  0  0.221579  0.583265  0  4.144855  0
C  C46  1  0.52191848  0.23937424  0.53839106  1  0  -0.08463  0  3.743801  0  0  -0.060633  0  3.98703  0  0  -0.073553  0  4.011466  0  0  -0.013096  -0.052589  0  3.970686  0
C  C47  1  0.47808952  0.76062769  0.46161262  1  0  -0.084701  0  3.743972  0  0  -0.060676  0  3.987199  0  0  -0.073598  0  4.011637  0  0  -0.01316  -0.052638  0  3.970856  0
C  C48  1  0.44515724  0.32968462  0.60990006  1  0  -0.009399  0  3.601105  0  0  -0.049886  0  3.846417  0  0  -0.043004  0  3.862028  0  0  -0.049808  -0.053734  0  3.836667  0
C  C49  1  0.55485207  0.67031934  0.39010418  1  0  -0.009393  0  3.601105  0  0  -0.049956  0  3.846449  0  0  -0.043075  0  3.862059  0  0  -0.049831  -0.053804  0  3.836699  0
C  C50  1  0.44273584  0.32413996  0.73707003  1  0  -0.078009  0  3.709906  0  0  -0.051664  0  3.950915  0  0  -0.062759  0  3.973703  0  0  -0.009634  -0.04521  0  3.936631  0
C  C51  1  0.55726997  0.67586196  0.26293239  1  0  -0.078019  0  3.709837  0  0  -0.051656  0  3.950872  0  0  -0.062751  0  3.973658  0  0  -0.009637  -0.045202  0  3.936585  0
C  C52  1  0.51809865  0.22773669  0.79169532  1  0  -0.017109  0  3.66104  0  0  -0.060956  0  3.913121  0  0  -0.054268  0  3.928921  0  0  -0.054169  -0.06536  0  3.902758  0
C  C53  1  0.48190388  0.77226521  0.20830474  1  0  -0.017141  0  3.660956  0  0  -0.061001  0  3.913026  0  0  -0.054301  0  3.928798  0  0  -0.054182  -0.065394  0  3.902657  0
C  C54  1  0.59749431  0.13918041  0.72195286  1  0  -0.096958  0  3.773444  0  0  -0.068899  0  4.0106  0  0  -0.082147  0  4.036273  0  0  -0.015907  -0.060743  0  3.994775  0
C  C55  1  0.40250920  0.86082048  0.27804901  1  0  -0.096916  0  3.773375  0  0  -0.068822  0  4.010497  0  0  -0.082071  0  4.036177  0  0  -0.015905  -0.060676  0  3.994693  0
C  C56  1  0.59920741  0.14497429  0.59511529  1  0  -0.034069  0  3.656624  0  0  -0.07652  0  3.906964  0  0  -0.07129  0  3.926814  0  0  -0.060362  -0.078913  0  3.893925  0
C  C57  1  0.40079490  0.85502558  0.40488713  1  0  -0.03401  0  3.656581  0  0  -0.076482  0  3.906884  0  0  -0.071258  0  3.92674  0  0  -0.060326  -0.07887  0  3.893846  0
C  C58  1  0.52264846  0.23877534  0.40180700  1  0  0.671968  0  3.79257  0  0  0.617865  0  4.094643  0  0  0.652245  0  4.086317  0  0  0.242591  0.594417  0  4.099666  0
C  C59  1  0.47735154  0.76122351  0.59819304  1  0  0.671972  0  3.79277  0  0  0.617871  0  4.094828  0  0  0.652257  0  4.086503  0  0  0.242615  0.594438  0  4.099829  0
C  C60  1  0.36063123  0.42034975  0.81638589  1  0  0.683352  0  3.86862  0  0  0.626824  0  4.171728  0  0  0.660608  0  4.16535  0  0  0.224143  0.60383  0  4.175895  0
C  C61  1  0.63937590  0.57965420  0.18361618  1  0  0.683389  0  3.868629  0  0  0.626869  0  4.171738  0  0  0.660659  0  4.165351  0  0  0.224163  0.603877  0  4.175902  0
C  C62  1  0.67703758  0.03962194  0.78441090  1  0  0.669311  0  3.79096  0  0  0.616087  0  4.094606  0  0  0.64938  0  4.087215  0  0  0.24722  0.593193  0  4.099569  0
C  C63  1  0.32296243  0.96037691  0.21559005  1  0  0.669142  0  3.791211  0  0  0.615912  0  4.094859  0  0  0.649206  0  4.087471  0  0  0.247194  0.593012  0  4.099836  0
O  O64  1  0.11427174  0.65251642  0.98948226  1  0  -0.614287  0  1.951089  0  0  -0.578316  0  2.178624  0  0  -0.598468  0  2.169493  0  0  -0.389115  -0.564298  0  2.185269  0
O  O65  1  0.88572729  0.34748344  0.01051688  1  0  -0.614268  0  1.951013  0  0  -0.578303  0  2.17856  0  0  -0.598459  0  2.169438  0  0  -0.389111  -0.564284  0  2.185195  0
O  O66  1  0.59757986  0.16443803  0.33980689  1  0  -0.6143  0  2.049858  0  0  -0.565741  0  2.285686  0  0  -0.589106  0  2.278059  0  0  -0.325596  -0.549304  0  2.290836  0
O  O67  1  0.40242267  0.83556387  0.66019317  1  0  -0.614311  0  2.049912  0  0  -0.565755  0  2.285748  0  0  -0.589125  0  2.278125  0  0  -0.325615  -0.549326  0  2.29089  0
O  O68  1  0.21869198  0.50374057  0.10042052  1  0  -0.547456  0  2.089676  0  0  -0.495804  0  2.306286  0  0  -0.518675  0  2.292669  0  0  -0.329315  -0.479313  0  2.314906  0
O  O69  1  0.78130485  0.49625927  0.89957828  1  0  -0.547601  0  2.089687  0  0  -0.495945  0  2.30624  0  0  -0.518817  0  2.292612  0  0  -0.329387  -0.479456  0  2.31487  0
O  O70  1  0.78419938  0.96184371  0.17383262  1  0  -0.598245  0  1.923027  0  0  -0.559599  0  2.141856  0  0  -0.579273  0  2.132246  0  0  -0.359171  -0.546185  0  2.148428  0
O  O71  1  0.21579855  0.03815614  0.82616635  1  0  -0.59825  0  1.922999  0  0  -0.559617  0  2.141811  0  0  -0.579284  0  2.132197  0  0  -0.359178  -0.546198  0  2.148388  0
O  O72  1  0.06816011  0.70851325  0.64597059  1  0  -0.591699  0  1.904057  0  0  -0.553118  0  2.117974  0  0  -0.572724  0  2.108634  0  0  -0.361592  -0.53955  0  2.12467  0
O  O73  1  0.93184100  0.29148560  0.35402687  1  0  -0.591737  0  1.90416  0  0  -0.553157  0  2.118062  0  0  -0.572762  0  2.108723  0  0  -0.36163  -0.539589  0  2.124754  0
O  O74  1  0.78034280  0.98357815  0.38401546  1  0  -0.556465  0  2.11574  0  0  -0.507065  0  2.340408  0  0  -0.529946  0  2.328323  0  0  -0.333056  -0.490881  0  2.34901  0
O  O75  1  0.21965272  0.01641966  0.61598369  1  0  -0.556457  0  2.115745  0  0  -0.507064  0  2.340466  0  0  -0.529942  0  2.328387  0  0  -0.333063  -0.490875  0  2.349069  0
O  O76  1  0.19146996  0.54714504  0.54743892  1  0  -0.571811  0  2.110988  0  0  -0.518723  0  2.33363  0  0  -0.5426  0  2.317407  0  0  -0.33326  -0.50197  0  2.344025  0
O  O77  1  0.80852775  0.45285278  0.45255874  1  0  -0.571762  0  2.111064  0  0  -0.518662  0  2.333684  0  0  -0.542559  0  2.317508  0  0  -0.333227  -0.50191  0  2.344063  0
O  O78  1  0.43598281  0.31965655  0.34845864  1  0  -0.530877  0  2.056405  0  0  -0.480168  0  2.269552  0  0  -0.502556  0  2.254703  0  0  -0.315476  -0.464453  0  2.279708  0
O  O79  1  0.56402081  0.68034535  0.65154435  1  0  -0.530811  0  2.056488  0  0  -0.480109  0  2.269626  0  0  -0.502493  0  2.254757  0  0  -0.315461  -0.4644  0  2.279777  0
O  O80  1  0.42411056  0.24439790  0.10103562  1  0  -0.859294  0  1.849761  0  0  -0.809446  0  2.014011  0  0  -0.828023  0  1.982709  0  0  -0.616831  -0.795949  0  2.035711  0
O  O81  1  0.57588891  0.75560601  0.89896798  1  0  -0.859393  0  1.849754  0  0  -0.809547  0  2.013936  0  0  -0.828128  0  1.982628  0  0  -0.616848  -0.796043  0  2.035639  0
O  O82  1  0.30520784  0.51610567  0.77104717  1  0  -0.653788  0  2.021764  0  0  -0.603788  0  2.261341  0  0  -0.628832  0  2.251218  0  0  -0.364579  -0.586715  0  2.268793  0
O  O83  1  0.69479326  0.48389318  0.22895213  1  0  -0.653787  0  2.021724  0  0  -0.603792  0  2.261313  0  0  -0.628834  0  2.251184  0  0  -0.364582  -0.586721  0  2.26876  0
O  O84  1  0.35379419  0.40006189  0.92738912  1  0  -0.637961  0  2.039553  0  0  -0.57414  0  2.265056  0  0  -0.601473  0  2.256126  0  0  -0.301886  -0.555459  0  2.27081  0
O  O85  1  0.64621655  0.59994512  0.07261405  1  0  -0.637965  0  2.039638  0  0  -0.574183  0  2.265148  0  0  -0.601536  0  2.25622  0  0  -0.301865  -0.555503  0  2.270911  0
O  O86  1  0.67589893  0.02656017  0.89441700  1  0  -0.585558  0  1.967913  0  0  -0.542209  0  2.188868  0  0  -0.562752  0  2.178067  0  0  -0.315434  -0.528181  0  2.196342  0
O  O87  1  0.32409998  0.97343867  0.10558470  1  0  -0.585471  0  1.968035  0  0  -0.54213  0  2.188998  0  0  -0.562676  0  2.178199  0  0  -0.315425  -0.528099  0  2.196474  0
O  O88  1  0.75202156  0.96219474  0.70815329  1  0  -0.526875  0  2.056797  0  0  -0.476801  0  2.261111  0  0  -0.497522  0  2.248007  0  0  -0.313982  -0.461953  0  2.269574  0
O  O89  1  0.24797932  0.03780208  0.29185020  1  0  -0.526841  0  2.056872  0  0  -0.47678  0  2.261204  0  0  -0.497502  0  2.248098  0  0  -0.31399  -0.46193  0  2.269663  0
