# generated using pymatgen
data_AgHC3NO2
_symmetry_space_group_name_H-M   'P 1'
_cell_length_a   7.28959771
_cell_length_b   7.28969518
_cell_length_c   14.48708304
_cell_angle_alpha   90.31758759
_cell_angle_beta   90.31874624
_cell_angle_gamma   79.61282353
_symmetry_Int_Tables_number   1
_chemical_formula_structural   AgHC3NO2
_chemical_formula_sum   'Ag8 H8 C24 N8 O16'
_cell_volume   757.19246811
_cell_formula_units_Z   8
loop_
 _symmetry_equiv_pos_site_id
 _symmetry_equiv_pos_as_xyz
  1  'x, y, z'
loop_
 _atom_site_type_symbol
 _atom_site_label
 _atom_site_symmetry_multiplicity
 _atom_site_fract_x
 _atom_site_fract_y
 _atom_site_fract_z
 _atom_site_occupancy
 _atom_site_hle17_bader_spin_density
 _atom_site_hle17_ddec_charge
 _atom_site_hle17_ddec_spin_density
 _atom_site_hle17_ddec_sum_bond_order
 _atom_site_hle17_magmom
 _atom_site_hse06_10hf_bader_spin_density
 _atom_site_hse06_10hf_ddec_charge
 _atom_site_hse06_10hf_ddec_spin_density
 _atom_site_hse06_10hf_ddec_sum_bond_order
 _atom_site_hse06_10hf_magmom
 _atom_site_hse06_bader_spin_density
 _atom_site_hse06_ddec_charge
 _atom_site_hse06_ddec_spin_density
 _atom_site_hse06_ddec_sum_bond_order
 _atom_site_hse06_magmom
 _atom_site_pbe_bader_spin_density
 _atom_site_pbe_cm5_charge
 _atom_site_pbe_ddec_charge
 _atom_site_pbe_ddec_spin_density
 _atom_site_pbe_ddec_sum_bond_order
 _atom_site_pbe_magmom
Ag  Ag0  1  0.25587632  0.83737559  0.42132196  1  0  0.60341  0  1.275059  0  0  0.471062  0  1.6846  0  0  0.500542  0  1.637921  0  0  0.470468  0.451783  0  1.71664  0
Ag  Ag1  1  0.16261929  0.74413476  0.07868249  1  0  0.603283  0  1.275069  0  0  0.470957  0  1.684599  0  0  0.500432  0  1.637923  0  0  0.470482  0.451677  0  1.716636  0
Ag  Ag2  1  0.74413459  0.16262224  0.57868432  1  0  0.60345  0  1.274973  0  0  0.471094  0  1.684554  0  0  0.500573  0  1.637872  0  0  0.470499  0.451811  0  1.716598  0
Ag  Ag3  1  0.83738064  0.25586998  0.92131622  1  0  0.603346  0  1.275109  0  0  0.471008  0  1.684649  0  0  0.50049  0  1.637971  0  0  0.470472  0.451732  0  1.716686  0
Ag  Ag4  1  0.38668000  0.83806051  0.71039047  1  0  0.574405  0  1.474952  0  0  0.465037  0  1.9425  0  0  0.497493  0  1.882319  0  0  0.429446  0.44346  0  1.983666  0
Ag  Ag5  1  0.16191617  0.61331267  0.78960493  1  0  0.574416  0  1.474779  0  0  0.465052  0  1.942303  0  0  0.497507  0  1.882131  0  0  0.429412  0.443474  0  1.98347  0
Ag  Ag6  1  0.61332914  0.16193018  0.28960688  1  0  0.574364  0  1.474881  0  0  0.464958  0  1.94242  0  0  0.49742  0  1.882239  0  0  0.429404  0.443372  0  1.983577  0
Ag  Ag7  1  0.83808586  0.38668789  0.21039447  1  0  0.57439  0  1.474865  0  0  0.465025  0  1.942387  0  0  0.497479  0  1.882215  0  0  0.429393  0.443447  0  1.983546  0
H  H8  1  0.19817745  0.16620449  0.27478841  1  0  0.109411  0  0.940934  0  0  0.117475  0  1.004451  0  0  0.121127  0  1.000309  0  0  0.123984  0.114564  0  1.007963  0
H  H9  1  0.83379180  0.80183407  0.22521019  1  0  0.109464  0  0.940887  0  0  0.117509  0  1.004439  0  0  0.12118  0  1.00027  0  0  0.124019  0.114602  0  1.007956  0
H  H10  1  0.80183128  0.83378906  0.72521168  1  0  0.10944  0  0.940907  0  0  0.117509  0  1.004405  0  0  0.121157  0  1.000261  0  0  0.124012  0.114597  0  1.007941  0
H  H11  1  0.16620475  0.19816656  0.77478992  1  0  0.109485  0  0.941019  0  0  0.117541  0  1.004545  0  0  0.121206  0  1.00036  0  0  0.124024  0.114638  0  1.008055  0
H  H12  1  0.22972476  0.50213630  0.26954778  1  0  0.094429  0  0.938368  0  0  0.101453  0  1.007812  0  0  0.105396  0  1.003034  0  0  0.120258  0.098395  0  1.011689  0
H  H13  1  0.49784511  0.77030303  0.23045548  1  0  0.094391  0  0.938297  0  0  0.101448  0  1.007723  0  0  0.105391  0  1.002952  0  0  0.120263  0.098387  0  1.011598  0
H  H14  1  0.77029104  0.49784897  0.73045922  1  0  0.094403  0  0.938214  0  0  0.101448  0  1.007681  0  0  0.105393  0  1.002904  0  0  0.12023  0.098386  0  1.011562  0
H  H15  1  0.50214326  0.22971292  0.76954116  1  0  0.094357  0  0.93825  0  0  0.101392  0  1.007708  0  0  0.105331  0  1.00294  0  0  0.12021  0.098332  0  1.01158  0
C  C16  1  0.24199116  0.43912980  0.49409282  1  0  0.059952  0  3.659838  0  0  0.052811  0  3.908946  0  0  0.052071  0  3.924787  0  0  0.118746  0.05254  0  3.899443  0
C  C17  1  0.56085463  0.75801133  0.00590677  1  0  0.060109  0  3.659258  0  0  0.052957  0  3.908469  0  0  0.052218  0  3.924304  0  0  0.118736  0.052682  0  3.898971  0
C  C18  1  0.75800865  0.56086806  0.50590937  1  0  0.060022  0  3.659379  0  0  0.052875  0  3.90844  0  0  0.052145  0  3.924277  0  0  0.118801  0.052604  0  3.89894  0
C  C19  1  0.43913584  0.24200043  0.99409056  1  0  0.060029  0  3.659448  0  0  0.052857  0  3.90852  0  0  0.052128  0  3.924363  0  0  0.118805  0.052596  0  3.899012  0
C  C20  1  0.23189128  0.24848173  0.49723252  1  0  0.096159  0  3.617294  0  0  0.091634  0  3.862569  0  0  0.095204  0  3.87455  0  0  0.136018  0.088265  0  3.855885  0
C  C21  1  0.75151115  0.76810260  0.00276661  1  0  0.096038  0  3.617283  0  0  0.091529  0  3.862602  0  0  0.095084  0  3.87457  0  0  0.136013  0.088157  0  3.855943  0
C  C22  1  0.76810557  0.75151757  0.50277036  1  0  0.096038  0  3.617605  0  0  0.091561  0  3.862879  0  0  0.095122  0  3.874855  0  0  0.136031  0.088195  0  3.856196  0
C  C23  1  0.24848437  0.23189513  0.99722799  1  0  0.096219  0  3.617416  0  0  0.091816  0  3.862598  0  0  0.095377  0  3.874579  0  0  0.136095  0.088431  0  3.855943  0
C  C24  1  0.21567940  0.24274618  0.33828496  1  0  0.070266  0  3.661652  0  0  0.041859  0  3.922663  0  0  0.047622  0  3.932695  0  0  0.044858  0.03714  0  3.917474  0
C  C25  1  0.75723802  0.78432793  0.16171410  1  0  0.070094  0  3.661842  0  0  0.041688  0  3.922896  0  0  0.047441  0  3.932945  0  0  0.044787  0.036962  0  3.917711  0
C  C26  1  0.78432564  0.75723780  0.66172140  1  0  0.070235  0  3.661384  0  0  0.041877  0  3.922413  0  0  0.047649  0  3.932429  0  0  0.044857  0.037154  0  3.917227  0
C  C27  1  0.24275053  0.21567816  0.83827774  1  0  0.070045  0  3.661368  0  0  0.041648  0  3.922405  0  0  0.047426  0  3.932428  0  0  0.044788  0.036889  0  3.917283  0
C  C28  1  0.25069332  0.13925394  0.58641580  1  0  0.63227  0  3.967434  0  0  0.577408  0  4.263887  0  0  0.613159  0  4.255893  0  0  0.192052  0.553023  0  4.268345  0
C  C29  1  0.86073726  0.74930315  0.91358517  1  0  0.632526  0  3.966718  0  0  0.577619  0  4.2632  0  0  0.613411  0  4.25512  0  0  0.192178  0.553223  0  4.267693  0
C  C30  1  0.74930342  0.86073848  0.41359056  1  0  0.632353  0  3.966691  0  0  0.577417  0  4.263237  0  0  0.613182  0  4.255215  0  0  0.192075  0.553025  0  4.26771  0
C  C31  1  0.13926194  0.25070576  0.08641283  1  0  0.632213  0  3.966913  0  0  0.577226  0  4.263522  0  0  0.612994  0  4.255499  0  0  0.192014  0.552853  0  4.267977  0
C  C32  1  0.25429013  0.54730781  0.58194647  1  0  0.615346  0  3.932356  0  0  0.559348  0  4.222308  0  0  0.594411  0  4.218708  0  0  0.202941  0.535579  0  4.223959  0
C  C33  1  0.45266054  0.74570661  0.91805390  1  0  0.615194  0  3.932719  0  0  0.559165  0  4.222749  0  0  0.594227  0  4.219151  0  0  0.202838  0.535399  0  4.224394  0
C  C34  1  0.74569959  0.45266934  0.41805928  1  0  0.615426  0  3.932326  0  0  0.559446  0  4.22226  0  0  0.594506  0  4.218661  0  0  0.202969  0.535675  0  4.223915  0
C  C35  1  0.54732992  0.25430516  0.08194344  1  0  0.615226  0  3.932508  0  0  0.559196  0  4.222523  0  0  0.594261  0  4.218919  0  0  0.202781  0.535432  0  4.224165  0
C  C36  1  0.23090517  0.43130902  0.33559833  1  0  0.084692  0  3.678528  0  0  0.05204  0  3.943812  0  0  0.056338  0  3.955367  0  0  0.049182  0.048445  0  3.937251  0
C  C37  1  0.56868657  0.76910240  0.16439496  1  0  0.084637  0  3.678857  0  0  0.051949  0  3.944207  0  0  0.05623  0  3.955783  0  0  0.04908  0.048367  0  3.937632  0
C  C38  1  0.76909857  0.56868860  0.66439486  1  0  0.084638  0  3.679203  0  0  0.051918  0  3.944539  0  0  0.05621  0  3.956112  0  0  0.049129  0.048328  0  3.937978  0
C  C39  1  0.43131698  0.23090505  0.83560234  1  0  0.084783  0  3.679001  0  0  0.052094  0  3.944302  0  0  0.056392  0  3.955876  0  0  0.049176  0.04851  0  3.937723  0
N  N40  1  0.24293971  0.52949289  0.41321901  1  0  -0.246774  0  3.25589  0  0  -0.182995  0  3.536527  0  0  -0.193004  0  3.548465  0  0  -0.309343  -0.1765  0  3.529211  0
N  N41  1  0.47049230  0.75707550  0.08678352  1  0  -0.24668  0  3.255745  0  0  -0.182895  0  3.536426  0  0  -0.192895  0  3.548362  0  0  -0.30924  -0.176394  0  3.529098  0
N  N42  1  0.75706951  0.47049950  0.58679213  1  0  -0.246824  0  3.256077  0  0  -0.182995  0  3.536699  0  0  -0.193018  0  3.548651  0  0  -0.309353  -0.176496  0  3.529376  0
N  N43  1  0.52950032  0.24293890  0.91320827  1  0  -0.246837  0  3.256145  0  0  -0.18301  0  3.536751  0  0  -0.193046  0  3.548717  0  0  -0.30932  -0.176514  0  3.529419  0
N  N44  1  0.21632059  0.15151799  0.41880945  1  0  -0.238367  0  3.20645  0  0  -0.170824  0  3.474902  0  0  -0.181722  0  3.484936  0  0  -0.307838  -0.16395  0  3.46931  0
N  N45  1  0.84847430  0.78368111  0.08119076  1  0  -0.23817  0  3.206455  0  0  -0.170637  0  3.474921  0  0  -0.181527  0  3.484956  0  0  -0.307753  -0.163759  0  3.469337  0
N  N46  1  0.78368350  0.84847834  0.58118858  1  0  -0.238258  0  3.206148  0  0  -0.170798  0  3.474681  0  0  -0.181686  0  3.484703  0  0  -0.307851  -0.163928  0  3.469099  0
N  N47  1  0.15152280  0.21631680  0.91881281  1  0  -0.238249  0  3.206266  0  0  -0.170774  0  3.474744  0  0  -0.181673  0  3.484776  0  0  -0.307905  -0.163898  0  3.469168  0
O  O48  1  0.41727261  0.10023560  0.61818656  1  0  -0.643754  0  2.070359  0  0  -0.571351  0  2.350131  0  0  -0.606961  0  2.33941  0  0  -0.332046  -0.545739  0  2.356271  0
O  O49  1  0.89975314  0.58272661  0.88181200  1  0  -0.643825  0  2.069981  0  0  -0.571424  0  2.349817  0  0  -0.60705  0  2.339074  0  0  -0.332035  -0.545806  0  2.355966  0
O  O50  1  0.58272481  0.89976777  0.38181216  1  0  -0.643705  0  2.069939  0  0  -0.571263  0  2.349728  0  0  -0.606875  0  2.339002  0  0  -0.332005  -0.545653  0  2.355879  0
O  O51  1  0.10024199  0.41727399  0.11818605  1  0  -0.643592  0  2.070143  0  0  -0.571174  0  2.349999  0  0  -0.606785  0  2.339273  0  0  -0.331938  -0.54557  0  2.356139  0
O  O52  1  0.11129911  0.08511252  0.61973455  1  0  -0.617478  0  1.988543  0  0  -0.565646  0  2.252937  0  0  -0.595101  0  2.239705  0  0  -0.316394  -0.544263  0  2.260955  0
O  O53  1  0.91488164  0.88869533  0.88026460  1  0  -0.617625  0  1.988348  0  0  -0.565765  0  2.252727  0  0  -0.595238  0  2.239482  0  0  -0.316524  -0.54438  0  2.260759  0
O  O54  1  0.88871015  0.91487830  0.38026831  1  0  -0.617571  0  1.988209  0  0  -0.565685  0  2.252591  0  0  -0.595158  0  2.239374  0  0  -0.316453  -0.544297  0  2.260605  0
O  O55  1  0.08512497  0.11130238  0.11973411  1  0  -0.617558  0  1.988279  0  0  -0.565674  0  2.252685  0  0  -0.595142  0  2.23946  0  0  -0.316447  -0.544295  0  2.260702  0
O  O56  1  0.18686125  0.48242348  0.65261493  1  0  -0.59807  0  2.172011  0  0  -0.520093  0  2.439471  0  0  -0.55505  0  2.434284  0  0  -0.307424  -0.495751  0  2.442015  0
O  O57  1  0.51755025  0.81314393  0.84738330  1  0  -0.59813  0  2.171895  0  0  -0.520128  0  2.439347  0  0  -0.555087  0  2.43416  0  0  -0.307476  -0.495783  0  2.441888  0
O  O58  1  0.81313330  0.51756462  0.34738455  1  0  -0.598143  0  2.171597  0  0  -0.520173  0  2.439044  0  0  -0.555136  0  2.433859  0  0  -0.307462  -0.49583  0  2.441592  0
O  O59  1  0.48245947  0.18686765  0.15261465  1  0  -0.598003  0  2.171988  0  0  -0.519993  0  2.439428  0  0  -0.554943  0  2.434231  0  0  -0.307343  -0.495661  0  2.441976  0
O  O60  1  0.32973847  0.69046853  0.57755789  1  0  -0.595956  0  2.173462  0  0  -0.519251  0  2.45394  0  0  -0.551564  0  2.443785  0  0  -0.314889  -0.497015  0  2.460377  0
O  O61  1  0.30952083  0.67026462  0.92244341  1  0  -0.595704  0  2.173798  0  0  -0.519031  0  2.454308  0  0  -0.551336  0  2.444161  0  0  -0.314769  -0.496794  0  2.460732  0
O  O62  1  0.67027411  0.30952795  0.42245115  1  0  -0.595873  0  2.173702  0  0  -0.519222  0  2.454237  0  0  -0.551519  0  2.444075  0  0  -0.314891  -0.496988  0  2.460665  0
O  O63  1  0.69047816  0.32976928  0.07755174  1  0  -0.595808  0  2.173287  0  0  -0.519106  0  2.45377  0  0  -0.551414  0  2.443618  0  0  -0.314826  -0.496873  0  2.460197  0
