# generated using pymatgen
data_YH9C9NO11
_symmetry_space_group_name_H-M   'P 1'
_cell_length_a   7.39917552
_cell_length_b   9.21539956
_cell_length_c   11.50828626
_cell_angle_alpha   72.27633985
_cell_angle_beta   69.94171594
_cell_angle_gamma   81.07043713
_symmetry_Int_Tables_number   1
_chemical_formula_structural   YH9C9NO11
_chemical_formula_sum   'Y2 H18 C18 N2 O22'
_cell_volume   700.99175838
_cell_formula_units_Z   2
loop_
 _symmetry_equiv_pos_site_id
 _symmetry_equiv_pos_as_xyz
  1  'x, y, z'
loop_
 _atom_site_type_symbol
 _atom_site_label
 _atom_site_symmetry_multiplicity
 _atom_site_fract_x
 _atom_site_fract_y
 _atom_site_fract_z
 _atom_site_occupancy
 _atom_site_hle17_bader_spin_density
 _atom_site_hle17_ddec_charge
 _atom_site_hle17_ddec_spin_density
 _atom_site_hle17_ddec_sum_bond_order
 _atom_site_hle17_magmom
 _atom_site_hse06_10hf_bader_spin_density
 _atom_site_hse06_10hf_ddec_charge
 _atom_site_hse06_10hf_ddec_spin_density
 _atom_site_hse06_10hf_ddec_sum_bond_order
 _atom_site_hse06_10hf_magmom
 _atom_site_hse06_bader_spin_density
 _atom_site_hse06_ddec_charge
 _atom_site_hse06_ddec_spin_density
 _atom_site_hse06_ddec_sum_bond_order
 _atom_site_hse06_magmom
 _atom_site_pbe_bader_spin_density
 _atom_site_pbe_cm5_charge
 _atom_site_pbe_ddec_charge
 _atom_site_pbe_ddec_spin_density
 _atom_site_pbe_ddec_sum_bond_order
 _atom_site_pbe_magmom
Y  Y0  1  0.11178421  0.55452972  0.71953450  1  0  2.053048  0  1.851973  0  0  1.859652  0  2.348963  0  0  1.92927  0  2.282492  0  0  1.284183  1.81025  0  2.393372  0
Y  Y1  1  0.88821492  0.44546720  0.28046270  1  0  2.053063  0  1.851947  0  0  1.859768  0  2.348737  0  0  1.929348  0  2.282343  0  0  1.284211  1.810302  0  2.393254  0
H  H2  1  0.55160889  0.50694593  0.59588418  1  0  0.455191  0  0.834524  0  0  0.423863  0  0.895503  0  0  0.435835  0  0.878109  0  0  0.309995  0.415323  0  0.907919  0
H  H3  1  0.44839129  0.49305441  0.40411374  1  0  0.455237  0  0.834487  0  0  0.423918  0  0.895448  0  0  0.43589  0  0.878054  0  0  0.310014  0.415377  0  0.907864  0
H  H4  1  0.48437516  0.55503670  0.72856863  1  0  0.430348  0  0.873555  0  0  0.394086  0  0.946228  0  0  0.406307  0  0.928246  0  0  0.300156  0.385401  0  0.958982  0
H  H5  1  0.51562212  0.44496358  0.27143078  1  0  0.430372  0  0.873517  0  0  0.394112  0  0.94618  0  0  0.406333  0  0.928199  0  0  0.300171  0.38543  0  0.958929  0
H  H6  1  0.13218190  0.85145955  0.49479432  1  0  0.434553  0  0.855985  0  0  0.397289  0  0.927901  0  0  0.409422  0  0.909871  0  0  0.306277  0.388697  0  0.940658  0
H  H7  1  0.86781330  0.14854634  0.50520770  1  0  0.434529  0  0.85602  0  0  0.397282  0  0.927906  0  0  0.409413  0  0.909881  0  0  0.306303  0.38869  0  0.940664  0
H  H8  1  0.03073318  0.89091386  0.62864219  1  0  0.445005  0  0.833904  0  0  0.418083  0  0.888434  0  0  0.42817  0  0.873453  0  0  0.320518  0.410914  0  0.899117  0
H  H9  1  0.96926489  0.10909207  0.37135922  1  0  0.44507  0  0.833819  0  0  0.418149  0  0.888346  0  0  0.428235  0  0.873364  0  0  0.320548  0.410978  0  0.89903  0
H  H10  1  0.68823465  0.60892506  0.87017739  1  0  0.448605  0  0.847766  0  0  0.412628  0  0.918663  0  0  0.424539  0  0.90138  0  0  0.298507  0.404195  0  0.930857  0
H  H11  1  0.31176966  0.39107644  0.12982200  1  0  0.448685  0  0.847641  0  0  0.412608  0  0.91869  0  0  0.424518  0  0.901409  0  0  0.298496  0.404175  0  0.930887  0
H  H12  1  0.82328852  0.61104566  0.95518858  1  0  0.445444  0  0.853814  0  0  0.412659  0  0.919592  0  0  0.424447  0  0.902552  0  0  0.301606  0.40427  0  0.931715  0
H  H13  1  0.17671775  0.38895135  0.04480883  1  0  0.445501  0  0.853729  0  0  0.412672  0  0.919558  0  0  0.424456  0  0.902525  0  0  0.301627  0.404283  0  0.93168  0
H  H14  1  0.17936203  0.15009875  0.11287875  1  0  0.125545  0  0.966658  0  0  0.127491  0  1.040821  0  0  0.132625  0  1.035496  0  0  0.120254  0.123766  0  1.044657  0
H  H15  1  0.82063254  0.84990037  0.88711976  1  0  0.125584  0  0.966708  0  0  0.12752  0  1.040863  0  0  0.132657  0  1.035533  0  0  0.120287  0.123797  0  1.044699  0
H  H16  1  0.37105182  0.68586476  0.09984848  1  0  0.14456  0  0.919372  0  0  0.148402  0  0.986123  0  0  0.153226  0  0.98167  0  0  0.129306  0.144741  0  0.989585  0
H  H17  1  0.62895242  0.31413668  0.90015355  1  0  0.144498  0  0.919463  0  0  0.148334  0  0.986221  0  0  0.153167  0  0.981755  0  0  0.129288  0.144673  0  0.989683  0
H  H18  1  0.22820808  0.01052839  0.77861635  1  0  0.123222  0  0.919015  0  0  0.130632  0  0.980642  0  0  0.135396  0  0.976139  0  0  0.117193  0.127162  0  0.98391  0
H  H19  1  0.77178821  0.98946729  0.22138434  1  0  0.123216  0  0.918986  0  0  0.130614  0  0.980623  0  0  0.135377  0  0.976122  0  0  0.117194  0.127143  0  0.983892  0
C  C20  1  0.16040494  0.25811781  0.86588232  1  0  0.648588  0  3.907253  0  0  0.59776  0  4.199767  0  0  0.631716  0  4.194975  0  0  0.208657  0.574813  0  4.202269  0
C  C21  1  0.83959783  0.74188238  0.13412552  1  0  0.648554  0  3.907212  0  0  0.597752  0  4.199723  0  0  0.631714  0  4.194921  0  0  0.208707  0.574802  0  4.202215  0
C  C22  1  0.21012258  0.09910430  0.93470906  1  0  -0.054479  0  3.742551  0  0  -0.029348  0  3.981619  0  0  -0.039559  0  4.005559  0  0  -0.009588  -0.023087  0  3.965814  0
C  C23  1  0.78987789  0.90089258  0.06529134  1  0  -0.054516  0  3.742788  0  0  -0.029386  0  3.981827  0  0  -0.039597  0  4.005765  0  0  -0.009606  -0.023122  0  3.966019  0
C  C24  1  0.21661635  0.06394558  0.06025677  1  0  -0.08444  0  3.666346  0  0  -0.12545  0  3.927588  0  0  -0.121635  0  3.944284  0  0  -0.063765  -0.127667  0  3.916464  0
C  C25  1  0.78337976  0.93605120  0.93974631  1  0  -0.084477  0  3.666578  0  0  -0.125472  0  3.927796  0  0  -0.121655  0  3.944493  0  0  -0.063776  -0.127693  0  3.916677  0
C  C26  1  0.27343931  0.91529367  0.11606465  1  0  0.068683  0  3.712873  0  0  0.061189  0  3.980644  0  0  0.055533  0  4.003962  0  0  0.083342  0.06455  0  3.964964  0
C  C27  1  0.72655961  0.08470433  0.88393581  1  0  0.068744  0  3.712896  0  0  0.061243  0  3.980641  0  0  0.055583  0  4.003969  0  0  0.083364  0.064605  0  3.964967  0
C  C28  1  0.32482424  0.80016839  0.05279130  1  0  -0.079731  0  3.631982  0  0  -0.120647  0  3.895232  0  0  -0.116024  0  3.910089  0  0  -0.058285  -0.123149  0  3.885161  0
C  C29  1  0.67517474  0.19982843  0.94721117  1  0  -0.079724  0  3.631933  0  0  -0.120613  0  3.895169  0  0  -0.115997  0  3.910023  0  0  -0.058292  -0.123111  0  3.885094  0
C  C30  1  0.30247021  0.83420110  0.93150380  1  0  -0.046006  0  3.711135  0  0  -0.022584  0  3.955318  0  0  -0.031574  0  3.976371  0  0  -0.003857  -0.017063  0  3.941191  0
C  C31  1  0.69752462  0.16579455  0.06849807  1  0  -0.046018  0  3.711009  0  0  -0.022662  0  3.955236  0  0  -0.031653  0  3.976291  0  0  -0.003908  -0.017136  0  3.941112  0
C  C32  1  0.24578585  0.98320525  0.87325573  1  0  -0.037399  0  3.636591  0  0  -0.082376  0  3.893289  0  0  -0.078194  0  3.91003  0  0  -0.058951  -0.084728  0  3.881885  0
C  C33  1  0.75421318  0.01679161  0.12674498  1  0  -0.037302  0  3.636514  0  0  -0.082243  0  3.893192  0  0  -0.078062  0  3.909934  0  0  -0.058884  -0.084597  0  3.881788  0
C  C34  1  0.32495352  0.71139601  0.86517882  1  0  0.688718  0  3.867847  0  0  0.633318  0  4.162752  0  0  0.668866  0  4.153973  0  0  0.231843  0.609226  0  4.167957  0
C  C35  1  0.67504836  0.28860088  0.13482215  1  0  0.688631  0  3.867875  0  0  0.633288  0  4.16272  0  0  0.668836  0  4.153938  0  0  0.231881  0.609195  0  4.167924  0
C  C36  1  0.10657595  0.50092389  0.45771346  1  0  0.555652  0  3.902801  0  0  0.506609  0  4.198187  0  0  0.53744  0  4.190425  0  0  0.226663  0.485631  0  4.202789  0
C  C37  1  0.89341308  0.49907651  0.54227375  1  0  0.55585  0  3.902441  0  0  0.506677  0  4.197962  0  0  0.537507  0  4.190202  0  0  0.226686  0.485701  0  4.202563  0
N  N38  1  0.28028406  0.87690116  0.24708748  1  0  0.515996  0  3.862627  0  0  0.537856  0  4.165417  0  0  0.559342  0  4.173832  0  0  0.065925  0.5235  0  4.159621  0
N  N39  1  0.71971603  0.12309911  0.75291395  1  0  0.515912  0  3.86278  0  0  0.53778  0  4.165569  0  0  0.559267  0  4.173984  0  0  0.065869  0.523424  0  4.159777  0
O  O40  1  0.15748707  0.36989288  0.91121753  1  0  -0.673854  0  2.027892  0  0  -0.60598  0  2.257973  0  0  -0.634757  0  2.249895  0  0  -0.337663  -0.585967  0  2.262974  0
O  O41  1  0.84251467  0.63010513  0.08878408  1  0  -0.673873  0  2.027597  0  0  -0.606073  0  2.257694  0  0  -0.634872  0  2.24963  0  0  -0.337747  -0.586043  0  2.262685  0
O  O42  1  0.12383148  0.28193318  0.76113896  1  0  -0.656786  0  1.936241  0  0  -0.610821  0  2.170364  0  0  -0.638766  0  2.164034  0  0  -0.357058  -0.591346  0  2.173998  0
O  O43  1  0.87617606  0.71806495  0.23885966  1  0  -0.656685  0  1.936401  0  0  -0.610733  0  2.170497  0  0  -0.638671  0  2.164162  0  0  -0.357025  -0.591254  0  2.174131  0
O  O44  1  0.16356202  0.94782159  0.32301017  1  0  -0.418707  0  1.787146  0  0  -0.38322  0  1.989991  0  0  -0.399672  0  1.982114  0  0  -0.13149  -0.372305  0  1.995601  0
O  O45  1  0.83643378  0.05217863  0.67699130  1  0  -0.418637  0  1.787239  0  0  -0.383162  0  1.990092  0  0  -0.399615  0  1.982218  0  0  -0.131448  -0.372246  0  1.995702  0
O  O46  1  0.39866828  0.77690617  0.27863453  1  0  -0.300755  0  1.79323  0  0  -0.277207  0  1.999507  0  0  -0.286601  0  1.996018  0  0  -0.076151  -0.270955  0  2.002075  0
O  O47  1  0.60133435  0.22309757  0.72136557  1  0  -0.300733  0  1.793196  0  0  -0.277185  0  1.999467  0  0  -0.286577  0  1.995977  0  0  -0.076134  -0.270935  0  2.002037  0
O  O48  1  0.47021351  0.61733754  0.85854594  1  0  -0.621499  0  1.996661  0  0  -0.55893  0  2.212841  0  0  -0.584423  0  2.20084  0  0  -0.291553  -0.541074  0  2.220614  0
O  O49  1  0.52979089  0.38266280  0.14145457  1  0  -0.621496  0  1.996687  0  0  -0.558899  0  2.212851  0  0  -0.584394  0  2.20085  0  0  -0.291562  -0.541049  0  2.220629  0
O  O50  1  0.19019629  0.71298553  0.81950797  1  0  -0.68291  0  2.000618  0  0  -0.618885  0  2.248991  0  0  -0.649801  0  2.240188  0  0  -0.362038  -0.597184  0  2.25422  0
O  O51  1  0.80980442  0.28700909  0.18049204  1  0  -0.682882  0  2.000645  0  0  -0.618896  0  2.249008  0  0  -0.649806  0  2.240203  0  0  -0.362066  -0.597183  0  2.254228  0
O  O52  1  0.22658251  0.52457821  0.50625081  1  0  -0.626821  0  2.07711  0  0  -0.559106  0  2.303723  0  0  -0.588101  0  2.295444  0  0  -0.326779  -0.538743  0  2.308733  0
O  O53  1  0.77341968  0.47543131  0.49374368  1  0  -0.626832  0  2.077511  0  0  -0.559062  0  2.30414  0  0  -0.588044  0  2.295862  0  0  -0.326751  -0.538695  0  2.309154  0
O  O54  1  0.43834798  0.53944932  0.66150724  1  0  -0.909223  0  1.895928  0  0  -0.850507  0  2.102301  0  0  -0.874231  0  2.065692  0  0  -0.64954  -0.833522  0  2.127604  0
O  O55  1  0.56164785  0.46055092  0.33849336  1  0  -0.909314  0  1.895858  0  0  -0.850602  0  2.102208  0  0  -0.87432  0  2.065599  0  0  -0.649578  -0.833609  0  2.127516  0
O  O56  1  0.08615033  0.80778534  0.58874706  1  0  -0.872413  0  1.848984  0  0  -0.814586  0  2.029903  0  0  -0.835691  0  1.995232  0  0  -0.609586  -0.79984  0  2.053975  0
O  O57  1  0.91385215  0.19221950  0.41125454  1  0  -0.872458  0  1.848996  0  0  -0.814658  0  2.029902  0  0  -0.835759  0  1.995234  0  0  -0.609641  -0.799903  0  2.053982  0
O  O58  1  0.82436215  0.60056234  0.87101391  1  0  -0.908406  0  1.837579  0  0  -0.847181  0  2.045902  0  0  -0.871566  0  2.01094  0  0  -0.635621  -0.829828  0  2.070166  0
O  O59  1  0.17564290  0.39943236  0.12898429  1  0  -0.908539  0  1.837351  0  0  -0.847214  0  2.045855  0  0  -0.871593  0  2.010901  0  0  -0.635612  -0.829851  0  2.070119  0
O  O60  1  0.14549703  0.47964127  0.34852179  1  0  -0.609751  0  2.036757  0  0  -0.554716  0  2.278384  0  0  -0.581541  0  2.270326  0  0  -0.33253  -0.53601  0  2.283332  0
O  O61  1  0.85449620  0.52037032  0.65147846  1  0  -0.609938  0  2.036088  0  0  -0.554826  0  2.277744  0  0  -0.58168  0  2.269723  0  0  -0.332585  -0.536119  0  2.282679  0
