# generated using pymatgen
data_CoH30C38(NO6)2
_symmetry_space_group_name_H-M   'P 1'
_cell_length_a   7.87833699
_cell_length_b   10.02689290
_cell_length_c   10.24364759
_cell_angle_alpha   91.36464439
_cell_angle_beta   99.63583145
_cell_angle_gamma   92.27128086
_symmetry_Int_Tables_number   1
_chemical_formula_structural   CoH30C38(NO6)2
_chemical_formula_sum   'Co1 H30 C38 N2 O12'
_cell_volume   796.77523615
_cell_formula_units_Z   1
loop_
 _symmetry_equiv_pos_site_id
 _symmetry_equiv_pos_as_xyz
  1  'x, y, z'
loop_
 _atom_site_type_symbol
 _atom_site_label
 _atom_site_symmetry_multiplicity
 _atom_site_fract_x
 _atom_site_fract_y
 _atom_site_fract_z
 _atom_site_occupancy
 _atom_site_hle17_bader_spin_density
 _atom_site_hle17_ddec_charge
 _atom_site_hle17_ddec_spin_density
 _atom_site_hle17_ddec_sum_bond_order
 _atom_site_hle17_magmom
 _atom_site_hse06_10hf_bader_spin_density
 _atom_site_hse06_10hf_ddec_charge
 _atom_site_hse06_10hf_ddec_spin_density
 _atom_site_hse06_10hf_ddec_sum_bond_order
 _atom_site_hse06_10hf_magmom
 _atom_site_hse06_bader_spin_density
 _atom_site_hse06_ddec_charge
 _atom_site_hse06_ddec_spin_density
 _atom_site_hse06_ddec_sum_bond_order
 _atom_site_hse06_magmom
 _atom_site_pbe_bader_spin_density
 _atom_site_pbe_cm5_charge
 _atom_site_pbe_ddec_charge
 _atom_site_pbe_ddec_spin_density
 _atom_site_pbe_ddec_sum_bond_order
 _atom_site_pbe_magmom
Co  Co0  1  0.49999432  0.49999910  0.49999516  1  0  0.895793  0  2.323747  0  0  0.970498  0  2.706105  0  0  1.060294  0  2.63091  0  0  0.610853  0.908819  0  2.769681  0
H  H1  1  0.34974792  0.61405942  0.68314707  1  0  0.423311  0  0.86755  0  0  0.398776  0  0.92754  0  0  0.412032  0  0.908616  0  0  0.300022  0.389524  0  0.940733  0
H  H2  1  0.65023563  0.38593980  0.31684263  1  0  0.423296  0  0.867665  0  0  0.398777  0  0.927557  0  0  0.412032  0  0.908635  0  0  0.300056  0.389532  0  0.940744  0
H  H3  1  0.52657971  0.54124291  0.73166773  1  0  0.412021  0  0.890453  0  0  0.382164  0  0.962734  0  0  0.394374  0  0.945157  0  0  0.299878  0.373684  0  0.974957  0
H  H4  1  0.47340783  0.45875831  0.26831864  1  0  0.411977  0  0.890422  0  0  0.382176  0  0.962701  0  0  0.394388  0  0.945123  0  0  0.299887  0.373689  0  0.974935  0
H  H5  1  0.37311253  0.63003881  0.05226821  1  0  0.390325  0  0.907364  0  0  0.356517  0  0.990944  0  0  0.368766  0  0.978614  0  0  0.299517  0.347993  0  0.999345  0
H  H6  1  0.62689046  0.36996237  0.94772211  1  0  0.390521  0  0.907131  0  0  0.356593  0  0.990881  0  0  0.36888  0  0.978482  0  0  0.299593  0.348083  0  0.999263  0
H  H7  1  0.97259576  0.40026532  0.54385761  1  0  0.121817  0  0.94924  0  0  0.124678  0  1.018476  0  0  0.129019  0  1.014331  0  0  0.128093  0.12237  0  1.019785  0
H  H8  1  0.02739317  0.59973782  0.45614656  1  0  0.121847  0  0.949173  0  0  0.124761  0  1.018346  0  0  0.129101  0  1.014199  0  0  0.128132  0.122431  0  1.019679  0
H  H9  1  0.83829890  0.17977631  0.56825482  1  0  0.110628  0  0.958409  0  0  0.117809  0  1.022101  0  0  0.120464  0  1.021746  0  0  0.108825  0.115761  0  1.022852  0
H  H10  1  0.16169405  0.82022975  0.43176167  1  0  0.110759  0  0.958398  0  0  0.11789  0  1.02213  0  0  0.120545  0  1.021775  0  0  0.108911  0.115847  0  1.022867  0
H  H11  1  0.23536273  0.00755416  0.37741534  1  0  0.101243  0  0.985766  0  0  0.107486  0  1.053095  0  0  0.109018  0  1.055082  0  0  0.103469  0.10665  0  1.051311  0
H  H12  1  0.76463776  0.99244886  0.62260985  1  0  0.101154  0  0.985858  0  0  0.107494  0  1.053076  0  0  0.109029  0  1.055072  0  0  0.103496  0.106667  0  1.051271  0
H  H13  1  0.34629871  0.23806346  0.35276336  1  0  0.125557  0  0.965883  0  0  0.130058  0  1.032317  0  0  0.133125  0  1.030014  0  0  0.128714  0.127871  0  1.03406  0
H  H14  1  0.65369390  0.76193662  0.64725096  1  0  0.125614  0  0.965758  0  0  0.130114  0  1.032204  0  0  0.133166  0  1.029909  0  0  0.128776  0.127925  0  1.033942  0
H  H15  1  0.62496080  0.88083870  0.37578338  1  0  0.084196  0  1.005564  0  0  0.094455  0  1.069631  0  0  0.096304  0  1.070569  0  0  0.096181  0.093276  0  1.068489  0
H  H16  1  0.37503802  0.11915747  0.62421406  1  0  0.084123  0  1.005626  0  0  0.094374  0  1.06971  0  0  0.096227  0  1.070643  0  0  0.096163  0.093204  0  1.068558  0
H  H17  1  0.65025513  0.10886421  0.28627287  1  0  0.100068  0  0.95015  0  0  0.111119  0  1.00767  0  0  0.114161  0  1.006947  0  0  0.102518  0.108741  0  1.008594  0
H  H18  1  0.34974159  0.89113991  0.71373233  1  0  0.100087  0  0.950088  0  0  0.111136  0  1.007606  0  0  0.114177  0  1.006882  0  0  0.102501  0.108747  0  1.008523  0
H  H19  1  0.43080276  0.17570353  0.09779245  1  0  0.092112  0  0.987379  0  0  0.098884  0  1.053961  0  0  0.101579  0  1.052965  0  0  0.099494  0.096783  0  1.055089  0
H  H20  1  0.56919168  0.82430557  0.90221455  1  0  0.0921  0  0.987512  0  0  0.098881  0  1.054073  0  0  0.101577  0  1.053076  0  0  0.099505  0.096779  0  1.055196  0
H  H21  1  0.18561027  0.02054907  0.00604970  1  0  0.093083  0  0.965961  0  0  0.102796  0  1.028811  0  0  0.105271  0  1.029118  0  0  0.09818  0.10142  0  1.027834  0
H  H22  1  0.81439154  0.97945406  0.99395223  1  0  0.093064  0  0.965932  0  0  0.102798  0  1.028754  0  0  0.105273  0  1.029063  0  0  0.098199  0.101426  0  1.027785  0
H  H23  1  0.89974148  0.57644028  0.82525999  1  0  0.11022  0  0.94397  0  0  0.115015  0  1.011042  0  0  0.11887  0  1.008916  0  0  0.106786  0.112104  0  1.013019  0
H  H24  1  0.10026016  0.42355990  0.17473208  1  0  0.110303  0  0.943936  0  0  0.115073  0  1.011046  0  0  0.118924  0  1.008926  0  0  0.106777  0.112186  0  1.012973  0
H  H25  1  0.66081761  0.59874923  0.95400372  1  0  0.103844  0  0.985432  0  0  0.109745  0  1.051729  0  0  0.113774  0  1.048517  0  0  0.103098  0.106873  0  1.054126  0
H  H26  1  0.33919310  0.40125191  0.04599443  1  0  0.103801  0  0.985494  0  0  0.109707  0  1.051784  0  0  0.113734  0  1.048573  0  0  0.103072  0.106831  0  1.054192  0
H  H27  1  0.70759871  0.73535576  0.16358400  1  0  0.085882  0  0.963293  0  0  0.096509  0  1.023686  0  0  0.098425  0  1.023674  0  0  0.098341  0.095165  0  1.023815  0
H  H28  1  0.29241642  0.26463335  0.83642219  1  0  0.085781  0  0.963294  0  0  0.096382  0  1.023723  0  0  0.098298  0  1.023707  0  0  0.098268  0.095029  0  1.023854  0
H  H29  1  0.98757178  0.85628388  0.23804515  1  0  0.084037  0  0.994187  0  0  0.095877  0  1.058  0  0  0.098017  0  1.05866  0  0  0.095883  0.094081  0  1.058181  0
H  H30  1  0.01244838  0.14370326  0.76195383  1  0  0.083952  0  0.994392  0  0  0.095813  0  1.058176  0  0  0.097954  0  1.058835  0  0  0.095893  0.094017  0  1.058354  0
C  C31  1  0.02794897  0.30925772  0.51313358  1  0  0.023595  0  3.592269  0  0  -0.023413  0  3.866528  0  0  -0.01719  0  3.879668  0  0  0.036205  -0.027266  0  3.856636  0
C  C32  1  0.97203621  0.69074740  0.48687406  1  0  0.023387  0  3.592353  0  0  -0.023687  0  3.866614  0  0  -0.017462  0  3.87975  0  0  0.036029  -0.027524  0  3.856732  0
C  C33  1  0.95640088  0.18409842  0.52622005  1  0  -0.134251  0  3.733656  0  0  -0.155954  0  4.000972  0  0  -0.161685  0  4.022273  0  0  -0.085079  -0.151964  0  3.986763  0
C  C34  1  0.04359191  0.81590466  0.47379340  1  0  -0.134278  0  3.733745  0  0  -0.155915  0  4.001035  0  0  -0.161649  0  4.022336  0  0  -0.085063  -0.151919  0  3.98681  0
C  C35  1  0.03104153  0.06642160  0.48631068  1  0  0.055182  0  3.778466  0  0  0.055849  0  4.03113  0  0  0.057355  0  4.055022  0  0  -0.012451  0.055171  0  4.01431  0
C  C36  1  0.96895254  0.93358145  0.51370782  1  0  0.055005  0  3.778592  0  0  0.055712  0  4.031226  0  0  0.057222  0  4.055116  0  0  -0.012475  0.055028  0  4.014411  0
C  C37  1  0.17164619  0.08944198  0.41803380  1  0  -0.144869  0  3.742997  0  0  -0.16289  0  4.004779  0  0  -0.168992  0  4.027524  0  0  -0.087578  -0.159307  0  3.989472  0
C  C38  1  0.82835138  0.91055508  0.58198400  1  0  -0.144849  0  3.743431  0  0  -0.162928  0  4.005242  0  0  -0.169041  0  4.027992  0  0  -0.087622  -0.159344  0  3.989935  0
C  C39  1  0.23685512  0.21609161  0.40167293  1  0  0.009955  0  3.606274  0  0  -0.040726  0  3.883641  0  0  -0.035251  0  3.898782  0  0  0.031289  -0.044274  0  3.874388  0
C  C40  1  0.76314012  0.78390948  0.59833883  1  0  0.009953  0  3.60635  0  0  -0.040806  0  3.883899  0  0  -0.035311  0  3.899017  0  0  0.0312  -0.044348  0  3.874635  0
C  C41  1  0.40681131  0.68116344  0.28423382  1  0  0.650275  0  3.831268  0  0  0.605311  0  4.127354  0  0  0.64584  0  4.114623  0  0  0.225665  0.576199  0  4.13651  0
C  C42  1  0.59318782  0.31883776  0.71575502  1  0  0.65031  0  3.831197  0  0  0.605254  0  4.127384  0  0  0.645784  0  4.114647  0  0  0.225695  0.576175  0  4.13652  0
C  C43  1  0.39635604  0.82144676  0.23856243  1  0  -0.128217  0  3.763673  0  0  -0.115246  0  4.003194  0  0  -0.124192  0  4.022359  0  0  -0.023553  -0.10936  0  3.99112  0
C  C44  1  0.60364818  0.17855342  0.76142899  1  0  -0.128308  0  3.763718  0  0  -0.115326  0  4.003339  0  0  -0.124269  0  4.022498  0  0  -0.023661  -0.109435  0  3.991251  0
C  C45  1  0.53023573  0.91253163  0.29397637  1  0  -0.077494  0  3.759594  0  0  -0.095078  0  4.000016  0  0  -0.093596  0  4.018924  0  0  -0.089403  -0.09594  0  3.98654  0
C  C46  1  0.46976847  0.08746852  0.70602286  1  0  -0.077366  0  3.759622  0  0  -0.09495  0  4.000052  0  0  -0.093466  0  4.018951  0  0  -0.089352  -0.095827  0  3.986573  0
C  C47  1  0.54426258  0.03952801  0.24372942  1  0  -0.068733  0  3.741182  0  0  -0.080039  0  3.985858  0  0  -0.082913  0  4.004956  0  0  -0.089173  -0.078131  0  3.972955  0
C  C48  1  0.45573794  0.96047510  0.75627723  1  0  -0.068776  0  3.741285  0  0  -0.080075  0  3.985954  0  0  -0.082945  0  4.005048  0  0  -0.089187  -0.078162  0  3.973031  0
C  C49  1  0.42136284  0.07695033  0.13815427  1  0  -0.042981  0  3.746048  0  0  -0.057928  0  3.99584  0  0  -0.057516  0  4.015864  0  0  -0.085469  -0.058435  0  3.982789  0
C  C50  1  0.57862989  0.92305179  0.86185037  1  0  -0.042996  0  3.746276  0  0  -0.057955  0  3.996049  0  0  -0.057541  0  4.016068  0  0  -0.085495  -0.058458  0  3.982983  0
C  C51  1  0.28446191  0.98859257  0.08535659  1  0  -0.108283  0  3.722391  0  0  -0.126001  0  3.96845  0  0  -0.130106  0  3.989947  0  0  -0.087709  -0.123012  0  3.953518  0
C  C52  1  0.71553727  0.01140958  0.91464302  1  0  -0.108287  0  3.722275  0  0  -0.125988  0  3.968357  0  0  -0.130094  0  3.989853  0  0  -0.087725  -0.123006  0  3.953441  0
C  C53  1  0.26968277  0.85965317  0.13323206  1  0  0.029857  0  3.765499  0  0  0.037766  0  4.001586  0  0  0.039634  0  4.024545  0  0  -0.006144  0.036578  0  3.986233  0
C  C54  1  0.73032402  0.14034700  0.86675969  1  0  0.029912  0  3.765324  0  0  0.037736  0  4.001548  0  0  0.039608  0  4.024518  0  0  -0.00613  0.036536  0  3.986197  0
C  C55  1  0.10920602  0.77680482  0.08201935  1  0  0.044361  0  3.758305  0  0  0.051846  0  3.990361  0  0  0.053272  0  4.013896  0  0  -0.002626  0.050818  0  3.974291  0
C  C56  1  0.89080451  0.22319334  0.91797576  1  0  0.044382  0  3.758104  0  0  0.051841  0  3.990207  0  0  0.053244  0  4.013776  0  0  -0.002673  0.050832  0  3.974117  0
C  C57  1  0.08161967  0.69743870  0.96406950  1  0  -0.136014  0  3.770423  0  0  -0.117743  0  4.003757  0  0  -0.12662  0  4.026642  0  0  -0.019797  -0.111869  0  3.98824  0
C  C58  1  0.91839086  0.30255948  0.03592171  1  0  -0.13611  0  3.770534  0  0  -0.11777  0  4.003774  0  0  -0.126643  0  4.026677  0  0  -0.019864  -0.111901  0  3.988254  0
C  C59  1  0.21988715  0.66985788  0.88593752  1  0  0.671435  0  3.796029  0  0  0.61852  0  4.096632  0  0  0.652074  0  4.087315  0  0  0.23956  0.595652  0  4.102492  0
C  C60  1  0.78010813  0.33014336  0.11404399  1  0  0.671536  0  3.795707  0  0  0.618617  0  4.096261  0  0  0.652174  0  4.086953  0  0  0.239726  0.595737  0  4.102152  0
C  C61  1  0.91908106  0.63612148  0.91732963  1  0  -0.051472  0  3.714493  0  0  -0.076786  0  3.969889  0  0  -0.076512  0  3.990316  0  0  -0.080297  -0.076814  0  3.956526  0
C  C62  1  0.08092444  0.36387868  0.08266586  1  0  -0.051547  0  3.714729  0  0  -0.076863  0  3.970066  0  0  -0.076589  0  3.990494  0  0  -0.080286  -0.076883  0  3.956718  0
C  C63  1  0.78575671  0.64761291  0.98969491  1  0  -0.070623  0  3.745608  0  0  -0.089102  0  4.004704  0  0  -0.091887  0  4.023627  0  0  -0.092751  -0.087093  0  3.991629  0
C  C64  1  0.21424738  0.35238524  0.01030327  1  0  -0.070649  0  3.745669  0  0  -0.08912  0  4.004722  0  0  -0.091903  0  4.023648  0  0  -0.09271  -0.087125  0  3.99166  0
C  C65  1  0.81206127  0.72415208  0.10718254  1  0  -0.036695  0  3.74032  0  0  -0.050633  0  3.988679  0  0  -0.049992  0  4.008111  0  0  -0.083852  -0.050924  0  3.975615  0
C  C66  1  0.18795791  0.27584007  0.89281450  1  0  -0.03657  0  3.740164  0  0  -0.050482  0  3.98848  0  0  -0.04984  0  4.00791  0  0  -0.083892  -0.050755  0  3.97541  0
C  C67  1  0.97077387  0.79064055  0.15041169  1  0  -0.125117  0  3.756866  0  0  -0.141954  0  4.000181  0  0  -0.146217  0  4.021691  0  0  -0.094007  -0.139283  0  3.986574  0
C  C68  1  0.02924279  0.20935258  0.84958896  1  0  -0.125026  0  3.756882  0  0  -0.141877  0  4.000172  0  0  -0.146129  0  4.021691  0  0  -0.093888  -0.139207  0  3.986533  0
N  N69  1  0.17036059  0.32570359  0.45362559  1  0  0.258274  0  3.642972  0  0  0.307849  0  3.914849  0  0  0.305759  0  3.934801  0  0  -0.119486  0.308421  0  3.901549  0
N  N70  1  0.82962834  0.67429954  0.54637858  1  0  0.258412  0  3.64274  0  0  0.308033  0  3.914597  0  0  0.305943  0  3.934548  0  0  -0.119315  0.308599  0  3.901301  0
O  O71  1  0.46614111  0.59736294  0.65987952  1  0  -0.767381  0  2.063182  0  0  -0.740144  0  2.281936  0  0  -0.769881  0  2.244432  0  0  -0.554425  -0.71863  0  2.308682  0
O  O72  1  0.53385386  0.40263326  0.34011059  1  0  -0.767362  0  2.06317  0  0  -0.740193  0  2.281927  0  0  -0.769918  0  2.244386  0  0  -0.554484  -0.718686  0  2.308692  0
O  O73  1  0.23765614  0.44758179  0.44157474  1  0  -0.484419  0  1.824363  0  0  -0.474414  0  2.077496  0  0  -0.499986  0  2.074205  0  0  -0.21582  -0.456341  0  2.079783  0
O  O74  1  0.76232624  0.55241939  0.55842268  1  0  -0.484389  0  1.824335  0  0  -0.474431  0  2.077469  0  0  -0.500004  0  2.074176  0  0  -0.215858  -0.456359  0  2.079763  0
O  O75  1  0.44989029  0.66386454  0.40834331  1  0  -0.53946  0  2.12922  0  0  -0.513133  0  2.395811  0  0  -0.550319  0  2.384418  0  0  -0.287247  -0.486581  0  2.403892  0
O  O76  1  0.55010345  0.33613265  0.59164765  1  0  -0.539497  0  2.129178  0  0  -0.513141  0  2.395799  0  0  -0.550341  0  2.384436  0  0  -0.287296  -0.486588  0  2.403863  0
O  O77  1  0.38315304  0.58780268  0.19479409  1  0  -0.609918  0  2.075008  0  0  -0.544726  0  2.293923  0  0  -0.5707  0  2.283679  0  0  -0.290622  -0.527095  0  2.301031  0
O  O78  1  0.61684737  0.41219851  0.80519589  1  0  -0.609989  0  2.075028  0  0  -0.544608  0  2.29391  0  0  -0.570601  0  2.283649  0  0  -0.290534  -0.52707  0  2.301068  0
O  O79  1  0.37478418  0.64602552  0.95260721  1  0  -0.551401  0  2.126956  0  0  -0.495743  0  2.351473  0  0  -0.518599  0  2.338276  0  0  -0.323987  -0.479801  0  2.3602  0
O  O80  1  0.62522783  0.35397566  0.04738134  1  0  -0.551385  0  2.127109  0  0  -0.495653  0  2.351725  0  0  -0.518527  0  2.338468  0  0  -0.324018  -0.479701  0  2.360449  0
O  O81  1  0.19189352  0.66535403  0.76307232  1  0  -0.551738  0  1.956202  0  0  -0.502545  0  2.168442  0  0  -0.525051  0  2.160446  0  0  -0.275665  -0.487333  0  2.174019  0
O  O82  1  0.80811333  0.33464714  0.23691947  1  0  -0.551899  0  1.955716  0  0  -0.502722  0  2.16794  0  0  -0.525233  0  2.159948  0  0  -0.27578  -0.487502  0  2.17353  0
