# generated using pymatgen
data_Co2H15C20N12ClO
_symmetry_space_group_name_H-M   'P 1'
_cell_length_a   6.40441501
_cell_length_b   16.22428467
_cell_length_c   24.11755017
_cell_angle_alpha   74.02395063
_cell_angle_beta   82.35293926
_cell_angle_gamma   78.60937288
_symmetry_Int_Tables_number   1
_chemical_formula_structural   Co2H15C20N12ClO
_chemical_formula_sum   'Co8 H60 C80 N48 Cl4 O4'
_cell_volume   2353.49020552
_cell_formula_units_Z   4
loop_
 _symmetry_equiv_pos_site_id
 _symmetry_equiv_pos_as_xyz
  1  'x, y, z'
loop_
 _atom_site_type_symbol
 _atom_site_label
 _atom_site_symmetry_multiplicity
 _atom_site_fract_x
 _atom_site_fract_y
 _atom_site_fract_z
 _atom_site_occupancy
 _atom_site_pbe_bader_charge
 _atom_site_pbe_bader_spin_density
 _atom_site_pbe_cm5_charge
 _atom_site_pbe_ddec_charge
 _atom_site_pbe_ddec_spin_density
 _atom_site_pbe_ddec_sum_bond_order
 _atom_site_pbe_magmom
Co  Co0  1  0.04542540  0.31400637  0.50950579  1  1.189544  2.561423  0.614193  0.67215  2.765206  2.735606  2.544
Co  Co1  1  0.86856029  0.18611541  0.99041920  1  1.193623  2.561155  0.614413  0.671979  2.764723  2.737272  2.544
Co  Co2  1  0.95456661  0.68600242  0.49049913  1  1.189708  2.561389  0.614369  0.672373  2.765177  2.735736  2.544
Co  Co3  1  0.13143591  0.81389085  0.00957816  1  1.193789  2.561074  0.614393  0.671962  2.764642  2.737023  2.544
Co  Co4  1  0.79730623  0.47539581  0.53510376  1  1.221872  2.579937  0.623192  0.76523  2.786739  2.675092  2.564
Co  Co5  1  0.80808120  0.02463914  0.96487357  1  1.217353  2.580419  0.623196  0.766294  2.787152  2.672461  2.564
Co  Co6  1  0.20264486  0.52462795  0.46489617  1  1.222175  2.580052  0.623238  0.765332  2.786886  2.674915  2.564
Co  Co7  1  0.19191275  0.97536120  0.03513241  1  1.217298  2.58047  0.623218  0.766354  2.787188  2.672488  2.564
H  H8  1  0.80649419  0.99990731  0.34111688  1  0.120881  0.000947  0.12334  0.129136  0.00037  1.007214  0.0
H  H9  1  0.14793744  0.50007696  0.15896889  1  0.119014  0.000947  0.12356  0.128559  0.000368  1.008675  0.0
H  H10  1  0.19359109  0.00007421  0.65888678  1  0.121239  0.000947  0.123303  0.128985  0.000369  1.007388  0.0
H  H11  1  0.85203425  0.49993517  0.84102579  1  0.118818  0.000947  0.123551  0.128567  0.000368  1.008656  0.0
H  H12  1  0.91419387  0.82063804  0.35630089  1  0.173241  0.002029  0.114066  0.123858  0.000988  1.009747  0.001
H  H13  1  0.09165740  0.67941606  0.14368898  1  0.172752  0.002006  0.114101  0.123579  0.000971  1.010321  0.001
H  H14  1  0.08585293  0.17933757  0.64370977  1  0.173461  0.002026  0.114007  0.123791  0.000987  1.009793  0.001
H  H15  1  0.90832715  0.32059544  0.85630328  1  0.172571  0.002006  0.11407  0.12359  0.000971  1.010424  0.001
H  H16  1  0.79856356  0.86999661  0.52067085  1  0.178058  0.000263  0.130133  0.082695  -0.000159  1.120664  0.0
H  H17  1  0.18907587  0.62986011  0.97938914  1  0.240975  0.000273  0.130199  0.082652  -0.000161  1.120824  0.0
H  H18  1  0.20145697  0.12997774  0.47933557  1  0.178022  0.000263  0.130145  0.08275  -0.000159  1.120569  0.0
H  H19  1  0.81087604  0.37015789  0.02060310  1  0.240991  0.000273  0.130223  0.082652  -0.000161  1.120898  0.0
H  H20  1  0.23962973  0.45919376  0.72216689  1  0.11007  0.001081  0.126733  0.128229  0.000455  0.992144  0.0
H  H21  1  0.42076055  0.04050174  0.77808511  1  0.095589  0.00109  0.126896  0.127752  0.000456  0.992331  0.0
H  H22  1  0.76032507  0.54080980  0.27784072  1  0.110222  0.001081  0.126701  0.128233  0.000455  0.99215  0.0
H  H23  1  0.57926510  0.95949809  0.22190574  1  0.095427  0.00109  0.126959  0.127812  0.000456  0.992229  0.0
H  H24  1  0.37206491  0.40707811  0.62161671  1  0.16915  0.00123  0.110146  0.112251  0.000411  1.03798  0.0
H  H25  1  0.40066919  0.09271740  0.87857063  1  0.148606  0.001231  0.110521  0.11261  0.000408  1.03699  0.0
H  H26  1  0.62787846  0.59293394  0.37838603  1  0.169108  0.001229  0.11016  0.112186  0.000411  1.037993  0.0
H  H27  1  0.59934511  0.90728696  0.12142062  1  0.148393  0.001231  0.110565  0.112758  0.000408  1.036976  0.0
H  H28  1  0.76473105  0.57999509  0.63514978  1  0.173425  0.000691  0.132601  0.095824  9.3e-05  1.052492  0.0
H  H29  1  0.98038843  0.92014709  0.86479753  1  0.140061  0.000695  0.133275  0.096525  9.8e-05  1.051776  0.0
H  H30  1  0.23526500  0.41998890  0.36486655  1  0.173048  0.000691  0.13264  0.095877  9.3e-05  1.052442  0.0
H  H31  1  0.01961315  0.07985005  0.13520336  1  0.14012  0.000695  0.133254  0.096512  9.8e-05  1.051753  0.0
H  H32  1  0.81246231  0.98262986  0.53872675  1  0.096403  -2.2e-05  0.10561  0.110287  -3.2e-05  1.041775  0.0
H  H33  1  0.33436829  0.51729959  0.96141874  1  0.049504  -2.7e-05  0.105708  0.110729  -3.6e-05  1.041192  0.0
H  H34  1  0.18761413  0.01736531  0.46127516  1  0.096967  -2.2e-05  0.10563  0.110374  -3.2e-05  1.041661  0.0
H  H35  1  0.66552061  0.48271457  0.03856730  1  0.049613  -2.7e-05  0.105672  0.110608  -3.6e-05  1.041134  0.0
H  H36  1  0.71624099  0.11978911  0.56892768  1  0.093916  -1e-06  0.108868  0.115463  -5.3e-05  0.982652  0.0
H  H37  1  0.40522856  0.38020618  0.93114782  1  0.059257  6e-06  0.108963  0.115339  -4.9e-05  0.982744  0.0
H  H38  1  0.28380123  0.88019369  0.43107852  1  0.094146  -1e-06  0.108918  0.115538  -5.3e-05  0.982646  0.0
H  H39  1  0.59467100  0.61981643  0.06883714  1  0.059099  6e-06  0.108955  0.115382  -4.9e-05  0.98279  0.0
H  H40  1  0.53911819  0.25572092  0.39769108  1  0.097892  -7.7e-05  0.106263  0.104219  -0.00013  1.025584  0.0
H  H41  1  0.19197058  0.24423672  0.10231112  1  0.063337  -6.8e-05  0.105981  0.103135  -0.000123  1.026195  0.0
H  H42  1  0.46089153  0.74425285  0.60230754  1  0.097808  -7.7e-05  0.106178  0.104015  -0.000131  1.025619  0.0
H  H43  1  0.80805267  0.75576889  0.89768622  1  0.063138  -6.8e-05  0.106066  0.103259  -0.000123  1.02618  0.0
H  H44  1  0.62992536  0.11888514  0.36700623  1  0.089235  6.7e-05  0.108856  0.118173  2.2e-05  1.002815  0.0
H  H45  1  0.11538417  0.38101973  0.13306526  1  0.044649  7.5e-05  0.108388  0.117993  2.6e-05  1.003125  0.0
H  H46  1  0.37009998  0.88108526  0.63300613  1  0.089099  6.7e-05  0.108919  0.118376  2.2e-05  1.002734  0.0
H  H47  1  0.88462776  0.61898655  0.86692987  1  0.044479  7.5e-05  0.108384  0.117957  2.6e-05  1.003012  0.0
H  H48  1  0.61055044  0.68751259  0.67593697  1  0.088592  -0.0  0.106276  0.110246  -4e-05  1.039884  0.0
H  H49  1  0.97391009  0.81240510  0.82417896  1  0.048901  1e-06  0.105928  0.109924  -3.7e-05  1.039847  0.0
H  H50  1  0.38947158  0.31246954  0.32407173  1  0.088804  0.0  0.106271  0.110191  -4e-05  1.039936  0.0
H  H51  1  0.02614225  0.18758363  0.17581834  1  0.048776  1e-06  0.105938  0.109892  -3.7e-05  1.039958  0.0
H  H52  1  0.55088992  0.77699826  0.74637527  1  0.101248  5.3e-05  0.102248  0.105601  3.5e-05  1.039256  0.0
H  H53  1  0.07423014  0.72283555  0.75378879  1  0.075946  5.5e-05  0.102207  0.105825  3.5e-05  1.039317  0.0
H  H54  1  0.44914246  0.22299300  0.25362809  1  0.10131  5.3e-05  0.102254  0.105657  3.5e-05  1.039164  0.0
H  H55  1  0.92582146  0.27715118  0.24621263  1  0.076309  5.5e-05  0.102327  0.10592  3.5e-05  1.039263  0.0
H  H56  1  0.34581541  0.48333454  0.80410486  1  0.065042  5.1e-05  0.105119  0.109339  1.5e-05  1.010967  0.0
H  H57  1  0.63387114  0.01665216  0.69594834  1  0.035242  5.2e-05  0.105484  0.110402  1.4e-05  1.010834  0.0
H  H58  1  0.65413264  0.51666252  0.19590459  1  0.065276  5.1e-05  0.105126  0.109468  1.5e-05  1.010823  0.0
H  H59  1  0.36614351  0.98332491  0.30404578  1  0.034905  5.2e-05  0.105525  0.110375  1.4e-05  1.010893  0.0
H  H60  1  0.28368334  0.57439357  0.87381265  1  0.083018  -1e-05  0.098823  0.097452  -2.4e-05  1.040732  0.0
H  H61  1  0.73256272  0.92552814  0.62627657  1  0.045501  -9e-06  0.098844  0.097981  -2.2e-05  1.041493  0.0
H  H62  1  0.71627161  0.42561717  0.12619116  1  0.083163  -1e-05  0.09887  0.097545  -2.4e-05  1.040552  0.0
H  H63  1  0.26744440  0.07444431  0.37372446  1  0.045869  -9e-06  0.098788  0.097827  -2.2e-05  1.041604  0.0
H  H64  1  0.91882859  0.45059465  0.43025266  1  0.620418  0.00113  0.293051  0.361431  0.001088  0.97168  0.002
H  H65  1  0.79935844  0.04954480  0.06968096  1  0.620316  0.001151  0.29281  0.361255  0.0011  0.972225  0.002
H  H66  1  0.08114736  0.54943752  0.56975108  1  0.621363  0.00113  0.293012  0.361328  0.001088  0.971887  0.002
H  H67  1  0.20063584  0.95046986  0.93032116  1  0.620719  0.001153  0.292798  0.361239  0.001102  0.97205  0.002
C  C68  1  0.81633339  0.94705758  0.38004566  1  0.214443  0.003455  -0.00682  -0.117875  0.00175  3.922104  0.002
C  C69  1  0.14367779  0.55291764  0.12002969  1  0.300781  0.003375  -0.007602  -0.117908  0.001758  3.923181  0.002
C  C70  1  0.18372274  0.05292588  0.61995951  1  0.213492  0.003454  -0.006763  -0.117612  0.001749  3.922205  0.002
C  C71  1  0.85628704  0.44709579  0.87996417  1  0.301434  0.003374  -0.007361  -0.117503  0.001758  3.923198  0.002
C  C72  1  0.87139331  0.85860822  0.38800241  1  0.40156  0.002586  -0.003825  -0.029234  0.001212  3.991402  0.002
C  C73  1  0.11840386  0.64137291  0.11203126  1  0.317167  0.002706  -0.003485  -0.028776  0.001238  3.990794  0.002
C  C74  1  0.12865989  0.14137848  0.61200311  1  0.401796  0.002581  -0.003767  -0.029209  0.00121  3.991254  0.002
C  C75  1  0.88156967  0.35863858  0.88796263  1  0.316842  0.002707  -0.003535  -0.028998  0.001237  3.990934  0.002
C  C76  1  0.81380409  0.88139636  0.47388508  1  0.955288  -0.004815  0.138111  0.098705  -0.00618  3.919632  -0.003
C  C77  1  0.16910233  0.61850018  0.02617397  1  0.898734  -0.005006  0.138202  0.097934  -0.006385  3.920065  -0.003
C  C78  1  0.18622396  0.11858643  0.52612245  1  0.955857  -0.00481  0.138126  0.098672  -0.006175  3.919618  -0.003
C  C79  1  0.83085517  0.38151197  0.97381830  1  0.898794  -0.005008  0.138072  0.097829  -0.006386  3.920014  -0.003
C  C80  1  0.37085285  0.47430675  0.69002869  1  0.331975  0.003446  0.002114  -0.095538  0.001864  3.917744  0.002
C  C81  1  0.53509514  0.02548538  0.81015190  1  0.350498  0.003436  0.002245  -0.0941  0.001865  3.914747  0.002
C  C82  1  0.62910531  0.52570007  0.30997779  1  0.33207  0.003446  0.002026  -0.09572  0.001864  3.917789  0.002
C  C83  1  0.46492893  0.97451445  0.18983858  1  0.350566  0.003437  0.002105  -0.09414  0.001865  3.914311  0.002
C  C84  1  0.43696443  0.45020832  0.63946922  1  0.346582  0.00073  -5e-06  -0.022851  -0.000419  3.992099  0.001
C  C85  1  0.52661606  0.04962235  0.86068864  1  0.365648  0.00072  -0.001238  -0.02465  -0.000416  3.989534  0.001
C  C86  1  0.56297862  0.54980828  0.36053354  1  0.346  0.00073  0.000156  -0.022505  -0.000421  3.992009  0.001
C  C87  1  0.47339934  0.95037940  0.13930512  1  0.365453  0.00072  -0.001278  -0.024988  -0.000415  3.989668  0.001
C  C88  1  0.63846080  0.54132814  0.64385546  1  0.921986  -0.00276  0.140705  0.111819  -0.003749  3.858543  -0.001
C  C89  1  0.82400291  0.95871519  0.85616661  1  0.962088  -0.002715  0.139456  0.10998  -0.003689  3.862289  -0.001
C  C90  1  0.36150637  0.45867218  0.35615188  1  0.921699  -0.002766  0.140694  0.111707  -0.003751  3.858798  -0.001
C  C91  1  0.17599789  0.04128001  0.14383259  1  0.96177  -0.002715  0.139474  0.109947  -0.003689  3.862111  -0.001
C  C92  1  0.72424654  0.04099035  0.45121134  1  0.285075  0.001442  0.097825  0.1728  0.000763  4.0062  0.001
C  C93  1  0.21644071  0.45892696  0.04889224  1  0.263346  0.001392  0.097643  0.174396  0.000714  4.004621  0.001
C  C94  1  0.27579569  0.95899243  0.54879694  1  0.285679  0.001443  0.098106  0.173123  0.000763  4.00563  0.001
C  C95  1  0.78351471  0.54108260  0.95109891  1  0.263771  0.001393  0.097694  0.174384  0.000715  4.005304  0.001
C  C96  1  0.74829723  0.04214648  0.50799588  1  0.034299  -0.000633  -0.093669  -0.177702  -0.000706  3.992008  0.0
C  C97  1  0.29865659  0.45779483  0.99210625  1  0.089344  -0.000634  -0.094082  -0.179315  -0.000714  3.994675  0.0
C  C98  1  0.25175770  0.95784739  0.49200662  1  0.033514  -0.000633  -0.093719  -0.177794  -0.000706  3.992037  0.0
C  C99  1  0.70127329  0.54221929  0.00788332  1  0.086363  -0.000634  -0.094088  -0.179014  -0.000714  3.994355  0.0
C  C100  1  0.69592344  0.11942411  0.52484275  1  -0.050388  0.001123  -0.080023  -0.083529  0.000364  3.961368  0.001
C  C101  1  0.34023367  0.38055399  0.97522791  1  -0.026001  0.001128  -0.079395  -0.082722  0.000363  3.960462  0.001
C  C102  1  0.30412070  0.88057298  0.47516162  1  -0.050642  0.001123  -0.080094  -0.083645  0.000364  3.961815  0.001
C  C103  1  0.65970965  0.61945817  0.02476403  1  -0.023195  0.001127  -0.079418  -0.082961  0.000363  3.960385  0.001
C  C104  1  0.61718148  0.19696561  0.48534673  1  -0.014754  -0.000569  -0.0006  0.021274  -0.001126  3.990501  0.0
C  C105  1  0.29925018  0.30302409  0.01468568  1  -0.027747  -0.000638  -0.000925  0.02245  -0.001203  3.989453  0.0
C  C106  1  0.38284653  0.80303993  0.51465792  1  -0.014997  -0.000567  -0.000718  0.021129  -0.001125  3.990768  0.0
C  C107  1  0.70074284  0.69698222  0.98530722  1  -0.027586  -0.000639  -0.000922  0.022652  -0.001204  3.989114  0.0
C  C108  1  0.59467556  0.19526002  0.42877043  1  0.023139  0.001051  -0.072755  -0.071505  0.000419  3.952516  0.001
C  C109  1  0.21835223  0.30470029  0.07126431  1  0.091957  0.000982  -0.072714  -0.070393  0.000382  3.953737  0.001
C  C110  1  0.40534926  0.80472670  0.57123278  1  0.022085  0.001052  -0.072665  -0.071052  0.00042  3.952314  0.001
C  C111  1  0.78165970  0.69530600  0.92872999  1  0.092013  0.000982  -0.072772  -0.070613  0.000382  3.953447  0.001
C  C112  1  0.64772411  0.11816844  0.41141103  1  -0.060099  -0.000335  -0.090816  -0.167488  -0.000397  3.967661  0.0
C  C113  1  0.17707732  0.38175494  0.08866950  1  -0.004601  -0.000309  -0.090584  -0.169213  -0.000369  3.969282  0.0
C  C114  1  0.35230136  0.88181300  0.58860140  1  -0.059414  -0.000335  -0.090923  -0.167994  -0.000397  3.967629  0.0
C  C115  1  0.82291517  0.61825264  0.91132527  1  -0.004575  -0.000309  -0.09058  -0.169082  -0.00037  3.969377  0.0
C  C116  1  0.56535943  0.28032004  0.50093939  1  0.974303  0.011032  0.234821  0.274084  0.006912  3.973767  0.01
C  C117  1  0.34642531  0.21969973  0.99906140  1  0.960857  0.010798  0.235549  0.272745  0.006722  3.971454  0.01
C  C118  1  0.43464559  0.71969528  0.49906057  1  0.976564  0.011041  0.234903  0.27434  0.00692  3.973312  0.01
C  C119  1  0.65356952  0.78030980  0.00093334  1  0.96055  0.010796  0.23551  0.272721  0.006721  3.971139  0.01
C  C120  1  0.47917250  0.58005163  0.73485269  1  0.278597  0.000671  0.098104  0.173731  0.000334  4.025791  0.001
C  C121  1  0.79438282  0.91989971  0.76523251  1  0.254632  0.000691  0.098665  0.174922  0.000344  4.023362  0.001
C  C122  1  0.52080923  0.41994024  0.26515608  1  0.277055  0.000672  0.098231  0.1737  0.000335  4.025466  0.001
C  C123  1  0.20563855  0.08008771  0.23476572  1  0.25449  0.000691  0.098673  0.17486  0.000344  4.022976  0.001
C  C124  1  0.54178262  0.66185480  0.71951446  1  -0.002241  -0.000358  -0.089883  -0.160113  -0.00044  3.978154  0.0
C  C125  1  0.92329264  0.83806566  0.78058740  1  0.023589  -0.00035  -0.089848  -0.160778  -0.000432  3.977372  0.0
C  C126  1  0.45823332  0.33813057  0.28049386  1  -0.003342  -0.000358  -0.089856  -0.159899  -0.00044  3.977767  0.0
C  C127  1  0.07673791  0.16192242  0.21941038  1  0.024068  -0.00035  -0.089804  -0.160705  -0.000432  3.976967  0.0
C  C128  1  0.50928379  0.71215945  0.75898880  1  -0.007902  0.000478  -0.083259  -0.092237  0.000228  3.956492  0.0
C  C129  1  0.98062592  0.78772094  0.74113130  1  -0.048763  0.000494  -0.083493  -0.09261  0.000233  3.954163  0.0
C  C130  1  0.49073737  0.28782853  0.24101845  1  -0.007501  0.000478  -0.083417  -0.092409  0.000228  3.956428  0.0
C  C131  1  0.01941099  0.21226323  0.25886737  1  -0.047928  0.000494  -0.083681  -0.092539  0.000233  3.953913  0.0
C  C132  1  0.39006977  0.54788101  0.79108846  1  -0.001803  3.8e-05  -0.096019  -0.180002  -5e-05  4.012256  0.0
C  C133  1  0.72958065  0.95208776  0.70898361  1  0.046698  4.8e-05  -0.096478  -0.181604  -3.8e-05  4.013562  0.0
C  C134  1  0.60989877  0.45211603  0.20892192  1  -0.001359  3.7e-05  -0.096001  -0.180099  -5e-05  4.012126  0.0
C  C135  1  0.27043822  0.04789055  0.29101636  1  0.045845  4.8e-05  -0.096447  -0.181494  -3.7e-05  4.013956  0.0
C  C136  1  0.35740828  0.59878411  0.83052804  1  -0.002781  -6.2e-05  -0.091775  -0.113215  -0.000124  3.990073  0.0
C  C137  1  0.78731867  0.90114589  0.66956257  1  -0.020849  -6.3e-05  -0.091524  -0.113364  -0.00013  3.993342  0.0
C  C138  1  0.64256780  0.40121752  0.16947833  1  -0.002495  -6.2e-05  -0.091811  -0.113211  -0.000124  3.989749  0.0
C  C139  1  0.21270525  0.09882786  0.33043845  1  -0.019998  -6.2e-05  -0.091448  -0.112971  -0.000129  3.993675  0.0
C  C140  1  0.41363071  0.68210810  0.81493526  1  -0.051265  -2.5e-05  -0.008871  0.021214  -0.000193  4.025427  0.0
C  C141  1  0.91104442  0.81777096  0.68517793  1  0.09148  -3.2e-05  -0.008405  0.022091  -0.000183  4.025797  0.0
C  C142  1  0.58637539  0.31788575  0.18506856  1  -0.051519  -2.5e-05  -0.008818  0.021174  -0.000193  4.025242  0.0
C  C143  1  0.08898337  0.18220864  0.31482314  1  0.090079  -3.2e-05  -0.008393  0.021563  -0.000184  4.026066  0.0
C  C144  1  0.36464206  0.73903532  0.85396870  1  0.879643  0.002718  0.197462  0.207746  0.001522  4.11307  0.003
C  C145  1  0.95780464  0.76084900  0.64614003  1  0.898017  0.00268  0.197154  0.20746  0.001506  4.116009  0.003
C  C146  1  0.63536151  0.26096834  0.14602845  1  0.879812  0.00272  0.197403  0.20759  0.001524  4.113131  0.003
C  C147  1  0.04222520  0.23913321  0.35385967  1  0.898209  0.00268  0.196863  0.207177  0.001507  4.116256  0.003
N  N148  1  0.70838416  0.31919243  0.51605851  1  -0.687692  0.055536  -0.22241  -0.242163  0.029778  3.453918  0.048
N  N149  1  0.54352253  0.18084984  0.98390717  1  -0.683149  0.055625  -0.224292  -0.243608  0.029774  3.454461  0.048
N  N150  1  0.29159923  0.68082942  0.48393813  1  -0.690187  0.05555  -0.222505  -0.242341  0.029783  3.453598  0.048
N  N151  1  0.45646639  0.81915120  0.01609263  1  -0.68299  0.055612  -0.224249  -0.243612  0.029768  3.454256  0.048
N  N152  1  0.60198820  0.39757013  0.52032185  1  -0.169605  0.052429  -0.108675  -0.042817  0.028493  3.5305  0.049
N  N153  1  0.51985732  0.10247896  0.97962607  1  -0.169167  0.05284  -0.108163  -0.042744  0.028731  3.529895  0.049
N  N154  1  0.39798073  0.60245240  0.47967186  1  -0.169635  0.052427  -0.108588  -0.04288  0.028492  3.530217  0.049
N  N155  1  0.48014763  0.89752141  0.02037536  1  -0.169174  0.052855  -0.108225  -0.042837  0.02874  3.529704  0.049
N  N156  1  0.40265186  0.40657157  0.50846470  1  -0.167636  0.035046  -0.094894  -0.033336  0.017894  3.447027  0.032
N  N157  1  0.31764809  0.09345518  0.99150676  1  -0.164536  0.035338  -0.094237  -0.033369  0.018091  3.444196  0.032
N  N158  1  0.59734324  0.59343730  0.49153098  1  -0.166977  0.035037  -0.094869  -0.033189  0.01789  3.446791  0.032
N  N159  1  0.68234835  0.90655430  0.00849333  1  -0.16493  0.035335  -0.094312  -0.033389  0.018087  3.443881  0.032
N  N160  1  0.37385093  0.33296805  0.49728318  1  -0.693987  0.060711  -0.218641  -0.239082  0.032924  3.429627  0.052
N  N161  1  0.20398960  0.16702306  0.00272656  1  -0.695111  0.060812  -0.218271  -0.237509  0.032998  3.4245  0.052
N  N162  1  0.62615103  0.66703950  0.50271498  1  -0.694195  0.060725  -0.218697  -0.239228  0.03293  3.429412  0.052
N  N163  1  0.79599970  0.83298841  0.99726927  1  -0.694645  0.060814  -0.218147  -0.237418  0.032998  3.424176  0.052
N  N164  1  0.86950012  0.81854763  0.44682579  1  -1.199321  0.055025  -0.349193  -0.289511  0.030181  3.596024  0.046
N  N165  1  0.13517557  0.68138991  0.05319870  1  -1.201418  0.055241  -0.349691  -0.289382  0.030332  3.595614  0.046
N  N166  1  0.13053044  0.18144425  0.55318125  1  -1.199504  0.055001  -0.349097  -0.28936  0.030167  3.595485  0.046
N  N167  1  0.86479035  0.31862093  0.94679558  1  -1.201408  0.05524  -0.349644  -0.289233  0.030329  3.595227  0.046
N  N168  1  0.60399692  0.49243835  0.61118543  1  -1.184349  0.063445  -0.345083  -0.284619  0.034899  3.588462  0.053
N  N169  1  0.70787185  0.00754983  0.88886711  1  -1.187112  0.063457  -0.344706  -0.283891  0.034916  3.588579  0.053
N  N170  1  0.39594850  0.50757633  0.38881469  1  -1.183593  0.063452  -0.345239  -0.284812  0.034906  3.588607  0.053
N  N171  1  0.29212916  0.99244864  0.11112983  1  -1.186724  0.063471  -0.344715  -0.283763  0.034923  3.588692  0.053
N  N172  1  0.26500353  0.71738134  0.90741414  1  -0.691537  0.001538  -0.220797  -0.26414  -0.000811  3.281032  0.001
N  N173  1  0.88979738  0.78254877  0.59272024  1  -0.693975  0.001609  -0.221263  -0.265392  -0.000745  3.283925  0.001
N  N174  1  0.73498265  0.28262625  0.09257959  1  -0.69177  0.001539  -0.220705  -0.264038  -0.00081  3.281031  0.001
N  N175  1  0.11022341  0.21744382  0.40727956  1  -0.693918  0.001612  -0.221169  -0.265225  -0.000742  3.284067  0.001
N  N176  1  0.24518177  0.78806240  0.92721100  1  -0.231395  0.057867  -0.123502  -0.08087  0.032817  3.541945  0.053
N  N177  1  0.96029531  0.71186932  0.57290021  1  -0.237692  0.05781  -0.124053  -0.081939  0.032865  3.541046  0.053
N  N178  1  0.75481335  0.21194645  0.07278634  1  -0.231407  0.057877  -0.123542  -0.080884  0.032825  3.541999  0.053
N  N179  1  0.03972274  0.28812984  0.42709268  1  -0.238233  0.057799  -0.123951  -0.08184  0.03286  3.54067  0.053
N  N180  1  0.32913462  0.85071823  0.88722385  1  -0.164626  -0.000105  -0.107499  -0.09134  -0.00202  3.3036  0.0
N  N181  1  0.06696280  0.64917359  0.61284720  1  -0.159729  -0.000135  -0.107461  -0.091266  -0.002037  3.302638  0.0
N  N182  1  0.67088475  0.14928155  0.11277220  1  -0.164515  -0.000103  -0.107513  -0.09131  -0.002018  3.303581  0.0
N  N183  1  0.93306050  0.35082430  0.38714159  1  -0.158752  -0.000129  -0.107688  -0.091653  -0.00203  3.303143  0.0
N  N184  1  0.40481134  0.82153273  0.84063952  1  -0.63968  0.004496  -0.228844  -0.286492  0.002045  3.237432  0.003
N  N185  1  0.06706365  0.67833032  0.65943156  1  -0.665061  0.004483  -0.228075  -0.28541  0.00203  3.23863  0.003
N  N186  1  0.59520988  0.17846640  0.15935617  1  -0.639586  0.004498  -0.228784  -0.286376  0.002046  3.237451  0.003
N  N187  1  0.93297243  0.32165582  0.34056430  1  -0.665267  0.004486  -0.227858  -0.285083  0.002032  3.23895  0.003
N  N188  1  0.78038578  0.96105502  0.43528577  1  -1.254047  0.001922  -0.230573  0.002545  0.000779  3.792822  0.002
N  N189  1  0.17672815  0.53887073  0.06480507  1  -1.261826  0.002057  -0.229707  0.003591  0.000859  3.791058  0.002
N  N190  1  0.21965004  0.03893556  0.56472090  1  -1.253972  0.001919  -0.230752  0.002172  0.000778  3.793248  0.002
N  N191  1  0.82322934  0.46114143  0.93518595  1  -1.261766  0.002056  -0.229852  0.003209  0.000859  3.79191  0.002
N  N192  1  0.49966193  0.53240085  0.69268742  1  -1.243734  0.002109  -0.223384  0.008673  0.000732  3.790956  0.002
N  N193  1  0.72492076  0.96753276  0.80740742  1  -1.240817  0.002131  -0.222976  0.009256  0.000751  3.788537  0.002
N  N194  1  0.50030954  0.46759294  0.30732303  1  -1.242375  0.002107  -0.223422  0.008707  0.000731  3.79092  0.002
N  N195  1  0.27510421  0.03246117  0.19258949  1  -1.240736  0.002133  -0.222872  0.009455  0.000752  3.78811  0.002
Cl  Cl196  1  0.00405176  0.35353427  0.59956579  1  -0.611439  0.200941  -0.270159  -0.46462  0.104754  1.354412  0.154
Cl  Cl197  1  0.95736738  0.14654819  0.90034109  1  -0.611632  0.199834  -0.2709  -0.465776  0.104113  1.352506  0.153
Cl  Cl198  1  0.99589718  0.64651357  0.40042944  1  -0.611831  0.200942  -0.270202  -0.46469  0.104751  1.35437  0.154
Cl  Cl199  1  0.04261966  0.85346120  0.09966847  1  -0.611656  0.199803  -0.270942  -0.465823  0.104095  1.352264  0.153
O  O200  1  0.98989724  0.44426806  0.46511381  1  -1.188542  0.240965  -0.556659  -0.803129  0.13046  2.444111  0.213
O  O201  1  0.89907258  0.05585194  0.03482079  1  -1.186505  0.241186  -0.555896  -0.802506  0.130905  2.446476  0.213
O  O202  1  0.01007545  0.55575305  0.53489247  1  -1.189601  0.240998  -0.556718  -0.803083  0.130468  2.444201  0.213
O  O203  1  0.10093351  0.94416465  0.96518346  1  -1.187042  0.241149  -0.555882  -0.802471  0.130888  2.44684  0.213
