# generated using pymatgen
data_MnH12C8NO5
_symmetry_space_group_name_H-M   'P 1'
_cell_length_a   6.46742606
_cell_length_b   7.98120355
_cell_length_c   10.38281488
_cell_angle_alpha   100.49002865
_cell_angle_beta   103.11349010
_cell_angle_gamma   105.34892056
_symmetry_Int_Tables_number   1
_chemical_formula_structural   MnH12C8NO5
_chemical_formula_sum   'Mn2 H24 C16 N2 O10'
_cell_volume   486.33162260
_cell_formula_units_Z   2
loop_
 _symmetry_equiv_pos_site_id
 _symmetry_equiv_pos_as_xyz
  1  'x, y, z'
loop_
 _atom_site_type_symbol
 _atom_site_label
 _atom_site_symmetry_multiplicity
 _atom_site_fract_x
 _atom_site_fract_y
 _atom_site_fract_z
 _atom_site_occupancy
 _atom_site_hle17_ddec_charge
 _atom_site_hle17_ddec_spin_density
 _atom_site_hle17_ddec_sum_bond_order
 _atom_site_hle17_magmom
 _atom_site_hse06_10hf_ddec_charge
 _atom_site_hse06_10hf_ddec_spin_density
 _atom_site_hse06_10hf_ddec_sum_bond_order
 _atom_site_hse06_10hf_magmom
 _atom_site_hse06_ddec_charge
 _atom_site_hse06_ddec_spin_density
 _atom_site_hse06_ddec_sum_bond_order
 _atom_site_hse06_magmom
 _atom_site_pbe_cm5_charge
 _atom_site_pbe_ddec_charge
 _atom_site_pbe_ddec_spin_density
 _atom_site_pbe_ddec_sum_bond_order
 _atom_site_pbe_magmom
Mn  Mn0  1  0.89391685  0.46972563  0.34404655  1  1.194808  4.796513  1.780324  4.649  1.032713  4.727881  2.30741  4.506  1.1027  4.77146  2.218854  4.574  0.596747  0.976991  4.683924  2.373048  4.44
Mn  Mn1  1  0.10608692  0.53028803  0.65595834  1  1.194738  4.796546  1.780527  4.649  1.032682  4.7279  2.307639  4.506  1.102667  4.771484  2.219077  4.574  0.596747  0.976983  4.683943  2.373294  4.44
H  H2  1  0.88880237  0.04660223  0.58951969  1  0.11335  -0.000385  0.945308  0.0  0.129072  -0.000124  1.005084  0.001  0.130991  -0.000279  1.005287  0.0  0.105435  0.127664  5e-05  1.005114  0.001
H  H3  1  0.11119081  0.95340877  0.41048334  1  0.11343  -0.000385  0.945279  0.0  0.129108  -0.000124  1.005138  0.001  0.131039  -0.000279  1.005329  0.0  0.105466  0.127697  5e-05  1.005168  0.001
H  H4  1  0.73201563  0.94454795  0.68913060  1  0.100474  -3.4e-05  0.949013  0.0  0.116274  0.000226  1.011194  0.0  0.118501  7.3e-05  1.010217  0.0  0.099001  0.114765  0.000395  1.011881  0.001
H  H5  1  0.26797067  0.05546172  0.31087225  1  0.100443  -3.7e-05  0.948948  0.0  0.116299  0.000226  1.011089  0.0  0.118528  7.4e-05  1.010113  0.0  0.098977  0.114784  0.000396  1.01177  0.001
H  H6  1  0.54719430  0.01271900  0.84372356  1  0.103424  -9.6e-05  0.946602  0.0  0.123252  -6e-05  1.01094  0.0  0.123977  -0.000114  1.010598  0.0  0.108145  0.122538  2.2e-05  1.011406  0.0
H  H7  1  0.45283200  0.98727569  0.15628360  1  0.103564  -0.000102  0.946599  0.0  0.123369  -6e-05  1.010935  0.0  0.124093  -0.000114  1.010599  0.0  0.108207  0.122651  2.2e-05  1.011398  0.0
H  H8  1  0.76643712  0.17148716  0.98699817  1  0.106579  -0.000305  0.952726  0.0  0.12558  -0.000321  1.016657  0.0  0.126905  -0.000356  1.015962  0.0  0.10905  0.124486  -0.000275  1.017364  0.0
H  H9  1  0.23357658  0.82851563  0.01301132  1  0.106509  -0.000304  0.952908  0.0  0.125541  -0.000321  1.016795  0.0  0.126859  -0.000356  1.016107  0.0  0.109013  0.124472  -0.000275  1.017484  0.0
H  H10  1  0.68039368  0.23367011  0.83177178  1  0.113626  -5.3e-05  0.949331  0.0  0.13233  8.6e-05  1.014912  0.0  0.133396  -4.9e-05  1.014249  0.0  0.107914  0.131228  0.00018  1.015764  0.001
H  H11  1  0.31962522  0.76632599  0.16823071  1  0.113644  -5.9e-05  0.94938  0.0  0.132332  8.7e-05  1.014958  0.0  0.133397  -4.9e-05  1.014296  0.0  0.107873  0.131228  0.00018  1.01581  0.001
H  H12  1  0.55957847  0.89987397  0.38028893  1  0.078316  -9.9e-05  0.937391  0.0  0.088282  0.000161  1.00188  0.0  0.090509  9e-06  1.000976  0.0  0.101846  0.08671  0.000331  1.002595  0.001
H  H13  1  0.44040723  0.10013037  0.61970920  1  0.07825  -9.2e-05  0.937506  0.0  0.088263  0.000161  1.00194  0.0  0.09049  9e-06  1.00103  0.0  0.101837  0.086687  0.000331  1.00268  0.001
H  H14  1  0.22673506  0.42343974  0.05420012  1  0.142734  -9.8e-05  0.940748  0.0  0.161702  -7e-06  0.99972  0.0  0.164838  -9.5e-05  0.998278  0.0  0.105923  0.159408  9.4e-05  1.000924  0.0
H  H15  1  0.77326836  0.57654576  0.94578904  1  0.142711  -0.000105  0.940748  0.0  0.161683  -7e-06  0.999725  0.0  0.16482  -9.5e-05  0.998281  0.0  0.105888  0.15939  9.4e-05  1.000926  0.0
H  H16  1  0.42053425  0.49538040  0.22208445  1  0.160047  -0.00036  0.93593  0.0  0.17693  -0.000205  0.99491  0.0  0.179883  -0.000297  0.993919  0.0  0.111171  0.174701  -0.000106  0.995797  0.0
H  H17  1  0.57945285  0.50460778  0.77790958  1  0.159976  -0.000369  0.935991  0.0  0.176843  -0.000205  0.995008  0.0  0.179795  -0.000297  0.99402  0.0  0.111138  0.174617  -0.000106  0.995898  0.0
H  H18  1  0.23839450  0.27188860  0.15825342  1  0.150522  -0.000233  0.941416  0.0  0.167102  -5.9e-05  1.005861  0.0  0.17093  -0.000191  1.003452  0.0  0.106064  0.164195  0.000101  1.007805  0.001
H  H19  1  0.76159467  0.72809691  0.84173762  1  0.150545  -0.000239  0.941421  0.0  0.167074  -5.9e-05  1.005925  0.0  0.170899  -0.000191  1.00352  0.0  0.106074  0.164172  0.000101  1.007873  0.001
H  H20  1  0.21066430  0.04126525  0.77660782  1  0.119988  -0.000315  0.943935  0.0  0.138664  -0.000317  1.005807  0.0  0.14016  -0.000362  1.005088  0.0  0.114796  0.137408  -0.000263  1.00653  0.0
H  H21  1  0.78935506  0.95872827  0.22338376  1  0.120054  -0.000314  0.943917  0.0  0.138631  -0.000317  1.005925  0.0  0.140126  -0.000362  1.005207  0.0  0.114773  0.137371  -0.000263  1.006641  0.0
H  H22  1  0.15712887  0.24433323  0.83782330  1  0.110171  -1e-05  0.941055  0.0  0.127786  0.00036  1.006946  0.0  0.12836  0.000165  1.007124  0.0  0.111131  0.127197  0.000571  1.007092  0.001
H  H23  1  0.84287778  0.75565628  0.16216786  1  0.110173  -9e-06  0.941167  0.0  0.127837  0.00036  1.006993  0.0  0.128404  0.000166  1.00717  0.0  0.111169  0.127237  0.000572  1.00713  0.001
H  H24  1  0.11449215  0.06737734  0.92302562  1  0.084866  0.000189  0.946194  0.0  0.104286  0.000341  1.014628  0.0  0.104588  0.000248  1.014862  0.0  0.100191  0.10393  0.00044  1.014659  0.0
H  H25  1  0.88551285  0.93260818  0.07695991  1  0.084814  0.00019  0.946137  0.0  0.104252  0.000342  1.014558  0.0  0.104555  0.000248  1.014791  0.0  0.100195  0.103897  0.00044  1.014584  0.0
C  C26  1  0.75237474  0.92756933  0.58619419  1  -0.283434  0.001882  3.67843  0.002  -0.330656  0.002672  3.928555  0.003  -0.335886  0.001629  3.935386  0.002  -0.168721  -0.327074  0.003806  3.924077  0.003
C  C27  1  0.24760476  0.07244710  0.41380967  1  -0.283352  0.001895  3.678463  0.002  -0.330768  0.002671  3.928684  0.003  -0.33601  0.001629  3.935507  0.002  -0.168758  -0.327185  0.003806  3.924197  0.003
C  C28  1  0.34553699  0.75011165  0.47698191  1  0.69478  0.00797  3.806741  0.007  0.645391  0.01431  4.102394  0.013  0.68082  0.01103  4.096344  0.01  0.227104  0.620411  0.017726  4.105616  0.015
C  C29  1  0.65445403  0.24989391  0.52302581  1  0.694578  0.007973  3.806874  0.007  0.64528  0.014311  4.102391  0.013  0.680704  0.011031  4.096342  0.01  0.227048  0.620299  0.017727  4.105616  0.015
C  C30  1  0.62253096  0.15461460  0.90071861  1  -0.176774  -0.00045  3.636491  0.0  -0.281169  3.3e-05  3.886539  0.0  -0.277127  -0.000185  3.895359  0.0  -0.13713  -0.283597  0.00029  3.880921  0.0
C  C31  1  0.37748690  0.84538285  0.09928490  1  -0.176857  -0.00042  3.636707  0.0  -0.281262  3.1e-05  3.886792  0.0  -0.277215  -0.000185  3.895619  0.0  -0.137108  -0.283722  0.00029  3.881154  0.0
C  C32  1  0.51725895  0.33407843  0.07397287  1  0.582114  0.006283  3.746215  0.006  0.534051  0.010104  4.034268  0.009  0.56476  0.007514  4.035693  0.007  0.251407  0.512714  0.01281  4.032516  0.011
C  C33  1  0.48273925  0.66590968  0.92602461  1  0.581927  0.006275  3.746488  0.006  0.533972  0.01011  4.034334  0.009  0.564691  0.007515  4.035743  0.007  0.251336  0.51263  0.012814  4.032599  0.011
C  C34  1  0.53605047  0.91495199  0.48258193  1  -0.101384  0.002504  3.615506  0.003  -0.110786  0.003648  3.855555  0.003  -0.115249  0.002416  3.86734  0.003  -0.08514  -0.107748  0.004951  3.847759  0.004
C  C35  1  0.46394428  0.08505904  0.51741844  1  -0.101167  0.002474  3.615492  0.003  -0.110598  0.00365  3.855502  0.003  -0.115048  0.002415  3.867293  0.003  -0.085037  -0.10756  0.00495  3.847709  0.004
C  C36  1  0.83150041  0.76591230  0.55566185  1  0.727597  0.007449  3.808931  0.007  0.67986  0.013565  4.105494  0.012  0.715316  0.01049  4.099093  0.01  0.226028  0.654967  0.016619  4.108787  0.014
C  C37  1  0.16848535  0.23409600  0.44434361  1  0.727027  0.007452  3.809582  0.007  0.679639  0.013566  4.105631  0.012  0.715095  0.010491  4.099232  0.01  0.22586  0.654746  0.01662  4.10892  0.014
C  C38  1  0.34136272  0.38448347  0.12955471  1  -0.450752  0.00021  3.653419  0.0  -0.52877  0.00117  3.894591  0.001  -0.536257  0.000678  3.896542  0.001  -0.236466  -0.523312  0.00165  3.893414  0.001
C  C39  1  0.65863071  0.61550469  0.87043924  1  -0.450561  0.000245  3.653509  0.0  -0.528591  0.00117  3.894714  0.001  -0.536082  0.00068  3.89667  0.001  -0.236347  -0.523127  0.00165  3.893538  0.001
C  C40  1  0.22111322  0.13876602  0.86847456  1  -0.165351  0.000217  3.634793  0.0  -0.266594  0.000617  3.88557  0.0  -0.263259  0.000331  3.89631  0.0  -0.129553  -0.268518  0.000919  3.878387  0.0
C  C41  1  0.77889659  0.86122347  0.13151800  1  -0.165296  0.000212  3.634826  0.0  -0.266558  0.000618  3.885602  0.0  -0.263214  0.000331  3.896336  0.0  -0.12958  -0.268476  0.00092  3.878399  0.0
N  N42  1  0.45444715  0.21296747  0.95284511  1  -0.136066  0.006162  3.434256  0.007  -0.033607  0.00875  3.663902  0.009  -0.055158  0.006995  3.688936  0.008  -0.274929  -0.019229  0.010771  3.646663  0.011
N  N43  1  0.54555685  0.78701929  0.04715202  1  -0.136105  0.006165  3.434306  0.007  -0.033604  0.008752  3.663836  0.009  -0.055158  0.006998  3.68886  0.008  -0.27493  -0.019218  0.010773  3.646602  0.011
O  O44  1  0.79119983  0.68452909  0.43049425  1  -0.667467  0.034946  2.020441  0.023  -0.601528  0.044496  2.292475  0.029  -0.634458  0.038619  2.277686  0.024  -0.31262  -0.576709  0.050169  2.301688  0.035
O  O45  1  0.20876633  0.31547389  0.56950964  1  -0.667083  0.034942  2.020546  0.023  -0.601364  0.0445  2.292529  0.029  -0.634297  0.038622  2.277744  0.024  -0.312455  -0.576554  0.050175  2.301749  0.035
O  O46  1  0.72490339  0.40284215  0.13877347  1  -0.619648  0.033846  2.041833  0.02  -0.546587  0.040462  2.307397  0.022  -0.576699  0.035687  2.291112  0.018  -0.30647  -0.524094  0.045171  2.318534  0.026
O  O47  1  0.27509481  0.59714598  0.86122306  1  -0.619607  0.03385  2.041991  0.02  -0.546543  0.040464  2.307444  0.022  -0.576655  0.035688  2.291148  0.018  -0.306449  -0.524058  0.045174  2.318608  0.026
O  O48  1  0.20243090  0.66608375  0.36114415  1  -0.656313  0.033797  2.022931  0.023  -0.590409  0.041938  2.288953  0.027  -0.622891  0.036282  2.274938  0.022  -0.310072  -0.566002  0.047645  2.29782  0.033
O  O49  1  0.79757079  0.33392843  0.63887372  1  -0.656254  0.033796  2.022926  0.023  -0.590452  0.041943  2.288997  0.027  -0.622933  0.036283  2.274979  0.022  -0.310091  -0.566047  0.04765  2.297877  0.033
O  O50  1  0.94017931  0.72670835  0.65806221  1  -0.667069  0.034502  2.044008  0.023  -0.601182  0.042964  2.314082  0.029  -0.634353  0.037247  2.300129  0.023  -0.312772  -0.5761  0.048484  2.322731  0.034
O  O51  1  0.05983662  0.27330800  0.34193994  1  -0.666955  0.034498  2.044234  0.023  -0.601156  0.042963  2.314118  0.029  -0.634323  0.037245  2.300162  0.023  -0.312807  -0.576075  0.048482  2.322756  0.034
O  O52  1  0.33951349  0.71186074  0.59007431  1  -0.659202  0.035945  2.036167  0.024  -0.592005  0.047291  2.306779  0.033  -0.625309  0.041036  2.293088  0.027  -0.308087  -0.566943  0.053505  2.315261  0.038
O  O53  1  0.66048876  0.28815692  0.40993576  1  -0.659084  0.035942  2.036044  0.024  -0.591893  0.047284  2.306572  0.033  -0.625216  0.041034  2.292929  0.027  -0.308036  -0.566827  0.053499  2.315045  0.038
