# generated using pymatgen
data_Zn4H10C22Cl2O21
_symmetry_space_group_name_H-M   'P 1'
_cell_length_a   15.94556785
_cell_length_b   15.94478558
_cell_length_c   17.02732964
_cell_angle_alpha   62.12751701
_cell_angle_beta   62.56283028
_cell_angle_gamma   90.50849372
_symmetry_Int_Tables_number   1
_chemical_formula_structural   Zn4H10C22Cl2O21
_chemical_formula_sum   'Zn8 H20 C44 Cl4 O42'
_cell_volume   3254.72920550
_cell_formula_units_Z   2
loop_
 _symmetry_equiv_pos_site_id
 _symmetry_equiv_pos_as_xyz
  1  'x, y, z'
loop_
 _atom_site_type_symbol
 _atom_site_label
 _atom_site_symmetry_multiplicity
 _atom_site_fract_x
 _atom_site_fract_y
 _atom_site_fract_z
 _atom_site_occupancy
 _atom_site_pbe_bader_charge
 _atom_site_pbe_bader_spin_density
 _atom_site_pbe_cm5_charge
 _atom_site_pbe_ddec_charge
 _atom_site_pbe_ddec_spin_density
 _atom_site_pbe_ddec_sum_bond_order
 _atom_site_pbe_magmom
Zn  Zn0  1  0.35434876  0.45247469  0.59115203  1  1.31425  0  0.681116  0.974701  0  2.342679  0
Zn  Zn1  1  0.95632247  0.05446843  0.59114442  1  1.313664  0  0.681183  0.974697  0  2.342477  0
Zn  Zn2  1  0.53923751  0.64271726  0.41580898  1  1.317982  0  0.680426  0.96603  0  2.34924  0
Zn  Zn3  1  0.94146720  0.04492307  0.41580360  1  1.305257  0  0.68028  0.96597  0  2.350195  0
Zn  Zn4  1  0.54887820  0.44542107  0.41090737  1  1.329177  0  0.68267  0.981219  0  2.34015  0
Zn  Zn5  1  0.14369888  0.04020993  0.41079196  1  1.324624  0  0.68282  0.981322  0  2.340409  0
Zn  Zn6  1  0.55475114  0.45314547  0.59241066  1  1.339054  0  0.688784  0.984251  0  2.342497  0
Zn  Zn7  1  0.95441125  0.85281917  0.59244995  1  1.331563  0  0.689158  0.984621  0  2.341201  0
H  H8  1  0.21889945  0.20045198  0.90506991  1  0.086352  0  0.104134  0.120411  0  0.995157  0
H  H9  1  0.89452843  0.87583386  0.90515137  1  0.086883  0  0.104172  0.122885  0  0.991566  0
H  H10  1  0.76828414  0.82345248  0.07704136  1  0.104969  0  0.102253  0.123341  0  0.998025  0
H  H11  1  0.09941075  0.15469579  0.07703425  1  0.072535  0  0.102453  0.12399  0  0.997331  0
H  H12  1  0.42087294  0.26401094  0.91074580  1  0.081013  0  0.109209  0.095844  0  0.974454  0
H  H13  1  0.82521667  0.66824552  0.91081286  1  0.103761  0  0.109307  0.095698  0  0.974446  0
H  H14  1  0.76247330  0.60022908  0.08131288  1  0.099649  0  0.113158  0.101999  0  0.957201  0
H  H15  1  0.31838369  0.15623294  0.08126910  1  0.100135  0  0.113083  0.101038  0  0.95816  0
H  H16  1  0.31007785  0.16832041  0.93563213  1  0.027133  0  0.099938  0.100773  0  0.974921  0
H  H17  1  0.89600518  0.75406139  0.93574717  1  0.036506  0  0.100175  0.101002  0  0.974947  0
H  H18  1  0.81164386  0.71725825  0.10817877  1  0.043964  0  0.104275  0.113582  0  0.958145  0
H  H19  1  0.17453317  0.08024399  0.10807466  1  0.064432  0  0.104014  0.113735  0  0.958388  0
H  H20  1  0.06467852  0.29500885  0.89371395  1  0.632351  0  0.356788  0.390812  0  0.831121  0
H  H21  1  0.81133519  0.04150209  0.89374537  1  0.61031  0  0.356351  0.390118  0  0.83224  0
H  H22  1  0.59020194  0.91712561  0.14347123  1  0.614937  0  0.358198  0.397799  0  0.824769  0
H  H23  1  0.93937875  0.26617867  0.14351601  1  0.6301  0  0.358357  0.39823  0  0.82513  0
H  H24  1  0.25213040  0.60147922  0.86542529  1  0.637637  0  0.358744  0.39583  0  0.823752  0
H  H25  1  0.53309163  0.88232472  0.86556990  1  0.608203  0  0.359156  0.396098  0  0.823478  0
H  H26  1  0.42338370  0.57802566  0.21061744  1  0.609791  0  0.351623  0.39449  0  0.833458  0
H  H27  1  0.21128321  0.36614517  0.21048764  1  0.626596  0  0.35134  0.394248  0  0.831956  0
C  C28  1  0.62784382  0.64146893  0.22552629  1  1.613698  0  0.228213  0.603938  0  4.126007  0
C  C29  1  0.13295562  0.14667104  0.22544677  1  1.61783  0  0.228356  0.603828  0  4.126384  0
C  C30  1  0.17368088  0.31902527  0.06260203  1  0.013686  0  0.013689  -0.130382  0  3.570345  0
C  C31  1  0.22323299  0.36894402  0.93830324  1  -0.00498  0  0.016076  -0.124946  0  3.528528  0
C  C32  1  0.69275244  0.83833484  0.93841032  1  0.012935  0  0.015127  -0.127388  0  3.530775  0
C  C33  1  0.61834927  0.76359426  0.06270634  1  0.007844  0  0.013885  -0.129742  0  3.569926  0
C  C34  1  0.35893964  0.36487859  0.78201222  1  1.584168  0  0.233465  0.614855  0  4.121373  0
C  C35  1  0.25150888  0.20530775  0.94730864  1  -0.03109  0  -0.160646  -0.181749  0  3.856001  0
C  C36  1  0.84739291  0.80101405  0.94739350  1  -0.024536  0  -0.16063  -0.184389  0  3.856816  0
C  C37  1  0.77955140  0.76257538  0.06377476  1  -0.068032  0  -0.160003  -0.189326  0  3.854375  0
C  C38  1  0.17358917  0.15673881  0.06369110  1  -0.034475  0  -0.15975  -0.190718  0  3.854074  0
C  C39  1  0.85313130  0.85899761  0.78207326  1  1.618756  0  0.233175  0.613511  0  4.123065  0
C  C40  1  0.37229790  0.30219668  0.94281529  1  0.144428  0  -0.052697  0.003643  0  3.780381  0
C  C41  1  0.75497951  0.68477240  0.94286963  1  0.132844  0  -0.052792  0.00452  0  3.779325  0
C  C42  1  0.70580170  0.62611463  0.06471379  1  0.086364  0  -0.048759  0.014142  0  3.734414  0
C  C43  1  0.30910605  0.22951359  0.06464479  1  0.086448  0  -0.04824  0.016644  0  3.731983  0
C  C44  1  0.14343969  0.36692279  0.90774944  1  1.568475  0  0.231255  0.573276  0  4.052029  0
C  C45  1  0.72536958  0.94870761  0.90779729  1  1.562596  0  0.231461  0.574362  0  4.048693  0
C  C46  1  0.56835591  0.82274702  0.11368848  1  1.573154  0  0.230633  0.583644  0  4.067294  0
C  C47  1  0.06354332  0.31796785  0.11360130  1  1.56412  0  0.231059  0.584922  0  4.065337  0
C  C48  1  0.27297927  0.48306261  0.87338030  1  1.597487  0  0.233685  0.587327  0  4.082404  0
C  C49  1  0.64355510  0.85352186  0.87350495  1  1.590174  0  0.233584  0.587223  0  4.08226  0
C  C50  1  0.52940074  0.68907872  0.09192087  1  1.565248  0  0.228699  0.576827  0  4.069864  0
C  C51  1  0.21896376  0.37879230  0.09179607  1  1.579269  0  0.227676  0.572724  0  4.074317  0
C  C52  1  0.30175035  0.31545062  0.90100605  1  0.05921  0  -0.008367  -0.023631  0  3.704748  0
C  C53  1  0.78354313  0.79712955  0.90108315  1  0.025981  0  -0.007682  -0.021884  0  3.70473  0
C  C54  1  0.67780210  0.69722129  0.10644408  1  0.015082  0  -0.007174  -0.027188  0  3.707579  0
C  C55  1  0.19629461  0.21581766  0.10635726  1  0.024015  0  -0.007473  -0.026464  0  3.706117  0
C  C56  1  0.72443415  0.72386406  0.49765897  1  -0.175385  0  -0.010584  -0.102874  0  3.90945  0
C  C57  1  0.77843425  0.77784117  0.49771980  1  0.006898  0  -0.010598  -0.101946  0  3.908606  0
C  C58  1  0.28342762  0.28202739  0.48857053  1  0.003492  0  -0.016955  -0.110329  0  3.918586  0
C  C59  1  0.22944462  0.22796599  0.48847483  1  -0.195765  0  -0.017531  -0.111145  0  3.919698  0
C  C60  1  0.34612301  0.34463738  0.49227268  1  1.697925  0  0.243168  0.67912  0  4.21524  0
C  C61  1  0.16318296  0.16158152  0.49209539  1  1.676082  0  0.244336  0.680568  0  4.21548  0
C  C62  1  0.66025239  0.65872325  0.49822898  1  1.677588  0  0.245591  0.680446  0  4.213634  0
C  C63  1  0.84298528  0.84147176  0.49829890  1  1.696746  0  0.244439  0.678982  0  4.21437  0
C  C64  1  0.65854756  0.33849231  0.50313007  1  1.659837  0  0.243388  0.678347  0  4.221804  0
C  C65  1  0.15835659  0.83827844  0.50329006  1  1.676422  0  0.242212  0.675959  0  4.221094  0
C  C66  1  0.33690361  0.65446709  0.50653240  1  1.684243  0  0.24551  0.682062  0  4.209161  0
C  C67  1  0.83908143  0.15665890  0.50639012  1  1.723848  0  0.244377  0.680218  0  4.209368  0
C  C68  1  0.27280621  0.71803653  0.50673876  1  0.142325  0  -0.009221  -0.099938  0  3.906176  0
C  C69  1  0.77533890  0.22058083  0.50657806  1  0.111642  0  -0.009248  -0.098967  0  3.906975  0
C  C70  1  0.22097698  0.77329001  0.50493707  1  -0.304113  0  -0.012633  -0.105012  0  3.91056  0
C  C71  1  0.72192357  0.27424951  0.50474763  1  -0.304528  0  -0.012605  -0.106247  0  3.91181  0
Cl  Cl72  1  0.45736178  0.41109839  0.89595506  1  -0.191843  0  -0.040052  -0.07895  0  1.531134  0
Cl  Cl73  1  0.69294830  0.64658452  0.89599442  1  -0.18993  0  -0.040086  -0.07914  0  1.531593  0
Cl  Cl74  1  0.61480316  0.51281567  0.13055251  1  -0.211613  0  -0.044011  -0.109831  0  1.514307  0
Cl  Cl75  1  0.35654510  0.25469757  0.13047655  1  -0.214976  0  -0.044132  -0.110457  0  1.513262  0
O  O76  1  0.49862034  0.49752092  0.50308518  1  -1.239842  0  -0.572324  -1.039852  0  2.527218  0
O  O77  1  0.04349210  0.14659931  0.27064615  1  -1.166367  0  -0.300376  -0.522472  0  2.383551  0
O  O78  1  0.89571212  0.81305634  0.73810775  1  -1.17671  0  -0.308444  -0.53987  0  2.386574  0
O  O79  1  0.64302740  0.55830091  0.26905245  1  -1.182538  0  -0.316081  -0.55549  0  2.383496  0
O  O80  1  0.17260463  0.08796501  0.26895609  1  -1.177859  0  -0.316018  -0.555495  0  2.384872  0
O  O81  1  0.44884459  0.36623198  0.73808194  1  -1.182425  0  -0.308052  -0.540008  0  2.386714  0
O  O82  1  0.11092493  0.43644550  0.87860329  1  -1.119756  0  -0.281272  -0.462268  0  2.114544  0
O  O83  1  0.11210634  0.28203871  0.91640347  1  -1.126922  0  -0.323558  -0.461307  0  2.329923  0
O  O84  1  0.68506821  0.01040093  0.87852233  1  -1.116643  0  -0.281386  -0.462612  0  2.112979  0
O  O85  1  0.80154017  0.97135412  0.91653117  1  -1.100482  0  -0.322842  -0.460915  0  2.330193  0
O  O86  1  0.48271685  0.82199773  0.14409485  1  -1.114573  0  -0.279485  -0.453512  0  2.088142  0
O  O87  1  0.30835140  0.39063553  0.73896568  1  -1.169664  0  -0.308448  -0.54184  0  2.394476  0
O  O88  1  0.63038347  0.88184764  0.11341521  1  -1.114888  0  -0.326312  -0.478682  0  2.304064  0
O  O89  1  0.03383414  0.37317324  0.14403428  1  -1.110637  0  -0.280003  -0.454245  0  2.087126  0
O  O90  1  0.00474918  0.25615797  0.11336010  1  -1.121116  0  -0.326391  -0.479436  0  2.304545  0
O  O91  1  0.87043981  0.95265263  0.73903563  1  -1.172646  0  -0.308473  -0.541943  0  2.395884  0
O  O92  1  0.58272008  0.68575852  0.27069475  1  -1.159711  0  -0.300227  -0.52216  0  2.384289  0
O  O93  1  0.35180336  0.52412772  0.79064940  1  -1.125065  0  -0.280142  -0.475044  0  2.167891  0
O  O94  1  0.21528318  0.53117278  0.91238170  1  -1.115307  0  -0.319387  -0.447457  0  2.309039  0
O  O95  1  0.68524123  0.85750038  0.79074563  1  -1.127866  0  -0.279992  -0.474443  0  2.16695  0
O  O96  1  0.55640116  0.87213486  0.91256687  1  -1.086087  0  -0.319661  -0.447783  0  2.309307  0
O  O97  1  0.51375609  0.68016594  0.03272671  1  -1.103431  0  -0.264756  -0.451985  0  2.221975  0
O  O98  1  0.47217259  0.62834008  0.19746022  1  -1.106929  0  -0.331698  -0.480712  0  2.306462  0
O  O99  1  0.28705740  0.45367973  0.03258726  1  -1.113897  0  -0.264064  -0.449929  0  2.222429  0
O  O100  1  0.17415906  0.33049092  0.19732537  1  -1.124689  0  -0.330986  -0.478942  0  2.305661  0
O  O101  1  0.99940460  0.99828758  0.50304026  1  -1.216093  0  -0.572324  -1.039825  0  2.526518  0
O  O102  1  0.43678641  0.37949709  0.41955834  1  -1.150079  0  -0.301813  -0.533405  0  2.282814  0
O  O103  1  0.20110897  0.14363039  0.41939134  1  -1.128035  0  -0.301541  -0.533595  0  2.283325  0
O  O104  1  0.63128181  0.56778657  0.56964075  1  -1.13659  0  -0.291168  -0.515291  0  2.280996  0
O  O105  1  0.86253358  0.79905067  0.56968706  1  -1.13626  0  -0.290736  -0.51491  0  2.28153  0
O  O106  1  0.62254640  0.35097241  0.44658114  1  -1.123839  0  -0.302078  -0.529057  0  2.266355  0
O  O107  1  0.20242425  0.93084995  0.44661643  1  -1.139277  0  -0.301925  -0.528091  0  2.264728  0
O  O108  1  0.64545272  0.37563920  0.55830511  1  -1.138496  0  -0.297628  -0.526298  0  2.273224  0
O  O109  1  0.06602629  0.79617506  0.55855321  1  -1.13838  0  -0.296784  -0.52552  0  2.272499  0
O  O110  1  0.42826106  0.69783639  0.45825240  1  -1.144397  0  -0.30128  -0.527333  0  2.266001  0
O  O111  1  0.84399758  0.11359255  0.45810843  1  -1.140246  0  -0.30036  -0.525616  0  2.265853  0
O  O112  1  0.29567591  0.56243533  0.55409171  1  -1.135586  0  -0.299327  -0.525977  0  2.260857  0
O  O113  1  0.88354980  0.15030972  0.55395252  1  -1.146432  0  -0.299121  -0.526061  0  2.261103  0
O  O114  1  0.30340541  0.35758825  0.56828221  1  -1.140662  0  -0.303269  -0.531462  0  2.263305  0
O  O115  1  0.07420657  0.12828763  0.56806294  1  -1.148779  0  -0.30396  -0.531628  0  2.263441  0
O  O116  1  0.64022874  0.69958907  0.42670980  1  -1.137492  0  -0.305571  -0.535527  0  2.268149  0
O  O117  1  0.87358034  0.93303181  0.42680446  1  -1.145727  0  -0.305091  -0.535187  0  2.269104  0
