# generated using pymatgen
data_Na2H12C10S2O13
_symmetry_space_group_name_H-M   'P 1'
_cell_length_a   6.49997551
_cell_length_b   11.02728557
_cell_length_c   12.56440382
_cell_angle_alpha   109.71335812
_cell_angle_beta   104.97229987
_cell_angle_gamma   89.98705601
_symmetry_Int_Tables_number   1
_chemical_formula_structural   Na2H12C10S2O13
_chemical_formula_sum   'Na4 H24 C20 S4 O26'
_cell_volume   815.26719990
_cell_formula_units_Z   2
loop_
 _symmetry_equiv_pos_site_id
 _symmetry_equiv_pos_as_xyz
  1  'x, y, z'
loop_
 _atom_site_type_symbol
 _atom_site_label
 _atom_site_symmetry_multiplicity
 _atom_site_fract_x
 _atom_site_fract_y
 _atom_site_fract_z
 _atom_site_occupancy
 _atom_site_hle17_bader_spin_density
 _atom_site_hle17_ddec_charge
 _atom_site_hle17_ddec_spin_density
 _atom_site_hle17_ddec_sum_bond_order
 _atom_site_hle17_magmom
 _atom_site_hse06_10hf_bader_spin_density
 _atom_site_hse06_10hf_ddec_charge
 _atom_site_hse06_10hf_ddec_spin_density
 _atom_site_hse06_10hf_ddec_sum_bond_order
 _atom_site_hse06_10hf_magmom
 _atom_site_hse06_bader_spin_density
 _atom_site_hse06_ddec_charge
 _atom_site_hse06_ddec_spin_density
 _atom_site_hse06_ddec_sum_bond_order
 _atom_site_hse06_magmom
 _atom_site_pbe_bader_spin_density
 _atom_site_pbe_cm5_charge
 _atom_site_pbe_ddec_charge
 _atom_site_pbe_ddec_spin_density
 _atom_site_pbe_ddec_sum_bond_order
 _atom_site_pbe_magmom
Na  Na0  1  0.22043377  0.41373192  0.97152365  1  0  0.909621  0  0.353722  0  0  0.873994  0  0.49529  0  0  0.882719  0  0.474898  0  0  0.65119  0.867433  0  0.510076  0
Na  Na1  1  0.24904201  0.08631439  0.02846142  1  0  0.90982  0  0.353432  0  0  0.874179  0  0.494984  0  0  0.88295  0  0.474473  0  0  0.650926  0.867535  0  0.509933  0
Na  Na2  1  0.77956047  0.58627244  0.02847376  1  0  0.909625  0  0.353725  0  0  0.874008  0  0.495273  0  0  0.882735  0  0.474881  0  0  0.651213  0.86745  0  0.51006  0
Na  Na3  1  0.75095673  0.91368806  0.97153921  1  0  0.909829  0  0.353433  0  0  0.874216  0  0.49494  0  0  0.882987  0  0.474429  0  0  0.650924  0.86757  0  0.509889  0
H  H4  1  0.22954571  0.64355742  0.16529716  1  0  0.422762  0  0.876062  0  0  0.396262  0  0.933365  0  0  0.405538  0  0.919576  0  0  0.296367  0.389723  0  0.943085  0
H  H5  1  0.06470100  0.85642399  0.83479490  1  0  0.422653  0  0.876374  0  0  0.396371  0  0.933343  0  0  0.40564  0  0.919576  0  0  0.296404  0.389837  0  0.943045  0
H  H6  1  0.77045190  0.35644794  0.83470496  1  0  0.422821  0  0.875982  0  0  0.396302  0  0.933328  0  0  0.405579  0  0.919536  0  0  0.296361  0.389763  0  0.943051  0
H  H7  1  0.93529488  0.14358043  0.16520990  1  0  0.422667  0  0.876389  0  0  0.396383  0  0.93336  0  0  0.405651  0  0.919595  0  0  0.296393  0.38985  0  0.943062  0
H  H8  1  0.16499535  0.54100964  0.21526192  1  0  0.421085  0  0.880841  0  0  0.389366  0  0.94619  0  0  0.399895  0  0.930754  0  0  0.289282  0.38195  0  0.957039  0
H  H9  1  0.95018598  0.95897964  0.78480486  1  0  0.421147  0  0.880579  0  0  0.389532  0  0.945863  0  0  0.400054  0  0.930434  0  0  0.289381  0.382115  0  0.956727  0
H  H10  1  0.83499844  0.45899183  0.78473537  1  0  0.421007  0  0.880944  0  0  0.389278  0  0.9463  0  0  0.399822  0  0.930853  0  0  0.289228  0.381857  0  0.957156  0
H  H11  1  0.04981482  0.04102574  0.21520007  1  0  0.421275  0  0.880416  0  0  0.389659  0  0.945701  0  0  0.400182  0  0.93027  0  0  0.289458  0.382248  0  0.956566  0
H  H12  1  0.89852344  0.21747146  0.93216846  1  0  0.420507  0  0.882894  0  0  0.395756  0  0.936592  0  0  0.404829  0  0.923297  0  0  0.298568  0.389325  0  0.946028  0
H  H13  1  0.96598690  0.28252202  0.06771257  1  0  0.419112  0  0.884286  0  0  0.394551  0  0.93801  0  0  0.403642  0  0.924662  0  0  0.297854  0.388109  0  0.947468  0
H  H14  1  0.10147863  0.78253196  0.06783129  1  0  0.420479  0  0.882937  0  0  0.395759  0  0.936561  0  0  0.404832  0  0.923267  0  0  0.298586  0.389324  0  0.946004  0
H  H15  1  0.03401213  0.71748236  0.93228706  1  0  0.419155  0  0.884234  0  0  0.394602  0  0.93794  0  0  0.403691  0  0.924597  0  0  0.297878  0.388161  0  0.947399  0
H  H16  1  0.31557815  0.31898286  0.71897749  1  0  0.142079  0  0.983165  0  0  0.146884  0  1.048641  0  0  0.151311  0  1.045744  0  0  0.117114  0.143586  0  1.051035  0
H  H17  1  0.59660771  0.18086744  0.28096140  1  0  0.141169  0  0.983078  0  0  0.146006  0  1.048672  0  0  0.150418  0  1.045801  0  0  0.116796  0.142715  0  1.051064  0
H  H18  1  0.68442142  0.68101474  0.28101944  1  0  0.142056  0  0.983213  0  0  0.146865  0  1.04868  0  0  0.15129  0  1.045786  0  0  0.117116  0.143566  0  1.051071  0
H  H19  1  0.40339903  0.81913506  0.71904587  1  0  0.141189  0  0.983107  0  0  0.146038  0  1.048669  0  0  0.15045  0  1.045802  0  0  0.116813  0.142744  0  1.051064  0
H  H20  1  0.24848514  0.21668350  0.47969928  1  0  0.141482  0  0.97978  0  0  0.141615  0  1.049687  0  0  0.146269  0  1.046194  0  0  0.112625  0.138145  0  1.052471  0
H  H21  1  0.76923969  0.28319530  0.52011584  1  0  0.141667  0  0.979037  0  0  0.141421  0  1.049364  0  0  0.146119  0  1.045829  0  0  0.112361  0.137923  0  1.052208  0
H  H22  1  0.75152064  0.78331312  0.52029660  1  0  0.141408  0  0.979953  0  0  0.14166  0  1.049731  0  0  0.146325  0  1.046211  0  0  0.112649  0.13819  0  1.05251  0
H  H23  1  0.23076169  0.71680334  0.47989199  1  0  0.141657  0  0.979037  0  0  0.141437  0  1.049344  0  0  0.146131  0  1.045812  0  0  0.112383  0.137943  0  1.052184  0
H  H24  1  0.22105741  0.33023473  0.31104705  1  0  0.072766  0  0.911323  0  0  0.080645  0  0.975399  0  0  0.083425  0  0.97016  0  0  0.11857  0.078454  0  0.979336  0
H  H25  1  0.91012248  0.16986657  0.68875859  1  0  0.07327  0  0.911561  0  0  0.081396  0  0.975294  0  0  0.084075  0  0.970139  0  0  0.118826  0.07926  0  0.979181  0
H  H26  1  0.77893558  0.66975127  0.68894802  1  0  0.07281  0  0.911351  0  0  0.080667  0  0.975458  0  0  0.083449  0  0.970211  0  0  0.118589  0.078475  0  0.979399  0
H  H27  1  0.08988667  0.83013107  0.31124440  1  0  0.073252  0  0.911534  0  0  0.081403  0  0.975304  0  0  0.084082  0  0.97015  0  0  0.118812  0.079265  0  0.979194  0
C  C28  1  0.31248857  0.50284491  0.68699959  1  0  0.050963  0  3.624512  0  0  0.048527  0  3.903704  0  0  0.05191  0  3.917905  0  0  0.082123  0.046055  0  3.894445  0
C  C29  1  0.62510472  0.99703209  0.31301209  1  0  0.04952  0  3.624522  0  0  0.047364  0  3.903505  0  0  0.0508  0  3.917627  0  0  0.081706  0.044736  0  3.894478  0
C  C30  1  0.68750205  0.49715656  0.31299887  1  0  0.051009  0  3.624567  0  0  0.048567  0  3.903751  0  0  0.051949  0  3.917965  0  0  0.08214  0.04609  0  3.894496  0
C  C31  1  0.37490617  0.00296651  0.68699061  1  0  0.049419  0  3.624766  0  0  0.047511  0  3.903486  0  0  0.050919  0  3.917663  0  0  0.081743  0.044896  0  3.894433  0
C  C32  1  0.25812455  0.42208044  0.49550845  1  0  0.12399  0  3.712508  0  0  0.110653  0  3.991926  0  0  0.109975  0  4.008829  0  0  0.05823  0.111137  0  3.98026  0
C  C33  1  0.76236695  0.07785022  0.50444526  1  0  0.123839  0  3.713716  0  0  0.110071  0  3.993184  0  0  0.109407  0  4.010077  0  0  0.058378  0.110529  0  3.981559  0
C  C34  1  0.74187933  0.57791425  0.50448662  1  0  0.123957  0  3.712394  0  0  0.110612  0  3.991881  0  0  0.109936  0  4.008776  0  0  0.058258  0.111084  0  3.980234  0
C  C35  1  0.23763743  0.92214742  0.49555789  1  0  0.123831  0  3.713767  0  0  0.110115  0  3.993321  0  0  0.109448  0  4.010221  0  0  0.058345  0.110572  0  3.981701  0
C  C36  1  0.26749142  0.31851689  0.53459299  1  0  -0.101626  0  3.646985  0  0  -0.131001  0  3.913609  0  0  -0.130176  0  3.930174  0  0  -0.078474  -0.131175  0  3.902275  0
C  C37  1  0.73296915  0.18136828  0.46529453  1  0  -0.10157  0  3.647403  0  0  -0.130655  0  3.914081  0  0  -0.129847  0  3.930646  0  0  -0.078153  -0.130814  0  3.902705  0
C  C38  1  0.73251193  0.68148458  0.46540557  1  0  -0.101622  0  3.647001  0  0  -0.131067  0  3.913554  0  0  -0.130242  0  3.930123  0  0  -0.078536  -0.131229  0  3.902216  0
C  C39  1  0.26703508  0.81862840  0.53470912  1  0  -0.10142  0  3.647448  0  0  -0.13053  0  3.914133  0  0  -0.129716  0  3.930698  0  0  -0.078075  -0.130691  0  3.902748  0
C  C40  1  0.30179828  0.37077611  0.65821338  1  0  -0.131663  0  3.694249  0  0  -0.165796  0  3.958415  0  0  -0.169344  0  3.975727  0  0  -0.096055  -0.163366  0  3.946976  0
C  C41  1  0.64358903  0.12908957  0.34170851  1  0  -0.130388  0  3.694315  0  0  -0.164358  0  3.957688  0  0  -0.167962  0  3.975103  0  0  -0.095963  -0.161861  0  3.946214  0
C  C42  1  0.69819506  0.62922246  0.34178381  1  0  -0.131715  0  3.694399  0  0  -0.165844  0  3.95857  0  0  -0.169397  0  3.97589  0  0  -0.096099  -0.1634  0  3.947092  0
C  C43  1  0.35641740  0.87091099  0.65829656  1  0  -0.130483  0  3.694561  0  0  -0.164514  0  3.957904  0  0  -0.16811  0  3.975325  0  0  -0.096024  -0.162022  0  3.946428  0
C  C44  1  0.22902652  0.42585554  0.37966799  1  0  0.29232  0  3.718516  0  0  0.237191  0  4.00693  0  0  0.261211  0  4.003399  0  0  0.087173  0.220906  0  4.00925  0
C  C45  1  0.84932176  0.07418638  0.62030113  1  0  0.29094  0  3.720956  0  0  0.236367  0  4.008924  0  0  0.260447  0  4.005419  0  0  0.087052  0.220053  0  4.011168  0
C  C46  1  0.77097025  0.57413431  0.62032552  1  0  0.292507  0  3.718428  0  0  0.237347  0  4.006952  0  0  0.26138  0  4.003412  0  0  0.087264  0.221041  0  4.009279  0
C  C47  1  0.15068393  0.92580934  0.37970402  1  0  0.291044  0  3.720885  0  0  0.23634  0  4.009039  0  0  0.26042  0  4.005537  0  0  0.087064  0.220024  0  4.011283  0
S  S48  1  0.35835547  0.62988489  0.82416220  1  0  1.299246  0  5.747364  0  0  1.194487  0  6.278221  0  0  1.243239  0  6.251543  0  0  0.530254  1.16086  0  6.295459  0
S  S49  1  0.53366843  0.87006496  0.17585319  1  0  1.301688  0  5.745697  0  0  1.19598  0  6.277137  0  0  1.244806  0  6.250394  0  0  0.530932  1.162385  0  6.294417  0
S  S50  1  0.64163582  0.37011076  0.17583228  1  0  1.299173  0  5.747044  0  0  1.194447  0  6.277856  0  0  1.24319  0  6.251189  0  0  0.53021  1.160828  0  6.295082  0
S  S51  1  0.46633554  0.12994041  0.82414977  1  0  1.30155  0  5.745801  0  0  1.195804  0  6.277188  0  0  1.244632  0  6.250454  0  0  0.530932  1.162226  0  6.294456  0
O  O52  1  0.15947211  0.69457009  0.81710273  1  0  -0.676843  0  2.039292  0  0  -0.611832  0  2.276156  0  0  -0.63545  0  2.261908  0  0  -0.315023  -0.594985  0  2.285373  0
O  O53  1  0.34186628  0.80549285  0.18299964  1  0  -0.67874  0  2.039504  0  0  -0.612158  0  2.275363  0  0  -0.635956  0  2.261264  0  0  -0.31514  -0.595295  0  2.284526  0
O  O54  1  0.84052135  0.30542940  0.18288837  1  0  -0.676854  0  2.039317  0  0  -0.611842  0  2.276214  0  0  -0.635461  0  2.261966  0  0  -0.314973  -0.595013  0  2.285455  0
O  O55  1  0.65813450  0.19451251  0.81700130  1  0  -0.678693  0  2.039422  0  0  -0.612088  0  2.275303  0  0  -0.635881  0  2.261205  0  0  -0.315156  -0.595266  0  2.284495  0
O  O56  1  0.39779660  0.56413171  0.91012312  1  0  -0.713001  0  1.961634  0  0  -0.669928  0  2.224286  0  0  -0.688573  0  2.206643  0  0  -0.398554  -0.656745  0  2.236072  0
O  O57  1  0.48711428  0.93582284  0.08989521  1  0  -0.713732  0  1.960639  0  0  -0.67076  0  2.223757  0  0  -0.689429  0  2.206092  0  0  -0.39905  -0.657529  0  2.235517  0
O  O58  1  0.60218604  0.43586973  0.08987110  1  0  -0.712954  0  1.96132  0  0  -0.66989  0  2.223975  0  0  -0.688531  0  2.206331  0  0  -0.398551  -0.656709  0  2.235756  0
O  O59  1  0.51289554  0.06418932  0.91011289  1  0  -0.713624  0  1.96069  0  0  -0.670661  0  2.223821  0  0  -0.689323  0  2.206149  0  0  -0.39903  -0.657433  0  2.235572  0
O  O60  1  0.54187406  0.71252262  0.83271167  1  0  -0.674609  0  1.977057  0  0  -0.630309  0  2.23671  0  0  -0.650704  0  2.220688  0  0  -0.36066  -0.615709  0  2.247287  0
O  O61  1  0.70862618  0.78737596  0.16724273  1  0  -0.675009  0  1.978919  0  0  -0.630835  0  2.239079  0  0  -0.651176  0  2.222861  0  0  -0.360578  -0.616239  0  2.249692  0
O  O62  1  0.45811753  0.28747496  0.16728261  1  0  -0.674563  0  1.977049  0  0  -0.630269  0  2.236697  0  0  -0.650665  0  2.220684  0  0  -0.360663  -0.615671  0  2.24727  0
O  O63  1  0.29137399  0.21262551  0.83275541  1  0  -0.674949  0  1.978912  0  0  -0.630802  0  2.239116  0  0  -0.651141  0  2.222897  0  0  -0.360537  -0.616197  0  2.249703  0
O  O64  1  0.13634438  0.56379507  0.14317811  1  0  -0.91401  0  1.757492  0  0  -0.87415  0  1.927073  0  0  -0.88902  0  1.894457  0  0  -0.681076  -0.863594  0  1.950015  0
O  O65  1  0.99364713  0.93623608  0.85690581  1  0  -0.91437  0  1.75716  0  0  -0.874518  0  1.926356  0  0  -0.889359  0  1.893619  0  0  -0.681097  -0.863952  0  1.949323  0
O  O66  1  0.86365047  0.43621317  0.85682209  1  0  -0.913997  0  1.757498  0  0  -0.874091  0  1.927046  0  0  -0.888975  0  1.894393  0  0  -0.681016  -0.863536  0  1.949994  0
O  O67  1  0.00634860  0.06376736  0.14309869  1  0  -0.914482  0  1.757026  0  0  -0.874662  0  1.926276  0  0  -0.889496  0  1.89353  0  0  -0.681163  -0.864105  0  1.949224  0
O  O68  1  0.02590514  0.25008197  0.99997765  1  0  -0.907397  0  1.806232  0  0  -0.86804  0  1.977201  0  0  -0.884155  0  1.947709  0  0  -0.702831  -0.856545  0  1.99797  0
O  O69  1  0.97409679  0.74992049  0.00002339  1  0  -0.907392  0  1.806241  0  0  -0.868065  0  1.977241  0  0  -0.884178  0  1.947747  0  0  -0.702861  -0.856576  0  1.998016  0
O  O70  1  0.28495892  0.53699147  0.58994190  1  0  -0.187669  0  2.394854  0  0  -0.11818  0  2.612829  0  0  -0.134888  0  2.624144  0  0  -0.108385  -0.106939  0  2.605472  0
O  O71  1  0.69449320  0.96290975  0.41007835  1  0  -0.187526  0  2.395225  0  0  -0.117741  0  2.612685  0  0  -0.134487  0  2.624005  0  0  -0.108281  -0.106464  0  2.60539  0
O  O72  1  0.71504018  0.46300321  0.41005173  1  0  -0.187647  0  2.394912  0  0  -0.118191  0  2.612969  0  0  -0.134897  0  2.624282  0  0  -0.108398  -0.106952  0  2.60562  0
O  O73  1  0.30551276  0.03708788  0.58992342  1  0  -0.187504  0  2.395323  0  0  -0.117886  0  2.612808  0  0  -0.134633  0  2.62415  0  0  -0.108349  -0.106609  0  2.605504  0
O  O74  1  0.21526774  0.52640129  0.35532127  1  0  -0.442752  0  2.051344  0  0  -0.379444  0  2.270023  0  0  -0.399379  0  2.266437  0  0  -0.251472  -0.366053  0  2.272613  0
O  O75  1  0.86011498  0.97370358  0.64474239  1  0  -0.44074  0  2.051259  0  0  -0.378968  0  2.271333  0  0  -0.398824  0  2.267651  0  0  -0.251341  -0.365558  0  2.273917  0
O  O76  1  0.78471261  0.47358560  0.64466363  1  0  -0.442881  0  2.051358  0  0  -0.37954  0  2.270053  0  0  -0.39951  0  2.266496  0  0  -0.251537  -0.366098  0  2.272612  0
O  O77  1  0.13988984  0.02629696  0.35526087  1  0  -0.440943  0  2.051283  0  0  -0.37902  0  2.271284  0  0  -0.398873  0  2.267602  0  0  -0.251372  -0.365607  0  2.273878  0
