# generated using pymatgen
data_CdH10C12Br2(NO3)2
_symmetry_space_group_name_H-M   'P 1'
_cell_length_a   8.06480376
_cell_length_b   13.72829727
_cell_length_c   16.42585165
_cell_angle_alpha   89.99871268
_cell_angle_beta   94.57460519
_cell_angle_gamma   90.00066022
_symmetry_Int_Tables_number   1
_chemical_formula_structural   CdH10C12Br2(NO3)2
_chemical_formula_sum   'Cd4 H40 C48 Br8 N8 O24'
_cell_volume   1812.81149534
_cell_formula_units_Z   4
loop_
 _symmetry_equiv_pos_site_id
 _symmetry_equiv_pos_as_xyz
  1  'x, y, z'
loop_
 _atom_site_type_symbol
 _atom_site_label
 _atom_site_symmetry_multiplicity
 _atom_site_fract_x
 _atom_site_fract_y
 _atom_site_fract_z
 _atom_site_occupancy
 _atom_site_pbe_bader_charge
 _atom_site_pbe_bader_spin_density
 _atom_site_pbe_cm5_charge
 _atom_site_pbe_ddec_charge
 _atom_site_pbe_ddec_spin_density
 _atom_site_pbe_ddec_sum_bond_order
 _atom_site_pbe_magmom
Cd  Cd0  1  0.15107378  0.10721274  0.41366900  1  1.28809  0  0.755188  0.95348  0  2.059059  0
Cd  Cd1  1  0.84894926  0.60721444  0.08633163  1  1.288041  0  0.755194  0.95354  0  2.058983  0
Cd  Cd2  1  0.84897290  0.89278769  0.58632794  1  1.288089  0  0.755204  0.953506  0  2.059054  0
Cd  Cd3  1  0.15102395  0.39278673  0.91367757  1  1.288057  0  0.755241  0.953527  0  2.05911  0
H  H4  1  0.19205419  0.92554461  0.48881360  1  0.658463  0  0.29614  0.399905  0  0.927717  0
H  H5  1  0.80795166  0.42555366  0.01118564  1  0.658532  0  0.29615  0.399883  0  0.927737  0
H  H6  1  0.80795886  0.07445583  0.51119173  1  0.658593  0  0.296105  0.399752  0  0.927908  0
H  H7  1  0.19204401  0.57445187  0.98881046  1  0.658578  0  0.296109  0.399826  0  0.927814  0
H  H8  1  0.05351312  0.90944598  0.41999644  1  0.66238  0  0.290812  0.392886  0  0.940844  0
H  H9  1  0.94649900  0.40945019  0.07999828  1  0.662196  0  0.290803  0.3929  0  0.940806  0
H  H10  1  0.94651740  0.09055081  0.57999680  1  0.662181  0  0.29079  0.39284  0  0.940877  0
H  H11  1  0.05348419  0.59054442  0.92000462  1  0.662077  0  0.290717  0.392769  0  0.941011  0
H  H12  1  0.19831756  0.31157440  0.37609278  1  0.633896  0  0.269145  0.319709  0  1.054878  0
H  H13  1  0.80166606  0.81156843  0.12390624  1  0.633793  0  0.269216  0.319875  0  1.054668  0
H  H14  1  0.80167808  0.68843186  0.62390879  1  0.633896  0  0.269154  0.31976  0  1.054806  0
H  H15  1  0.19831969  0.18843201  0.87608337  1  0.633842  0  0.269173  0.319876  0  1.054656  0
H  H16  1  0.14694975  0.29967820  0.46955900  1  0.61193  0  0.293321  0.376438  0  0.937517  0
H  H17  1  0.85304044  0.79969039  0.03044097  1  0.611756  0  0.293325  0.376454  0  0.937505  0
H  H18  1  0.85304340  0.70031641  0.53044309  1  0.611925  0  0.293335  0.376489  0  0.937455  0
H  H19  1  0.14695525  0.20029621  0.96955147  1  0.611779  0  0.293333  0.376466  0  0.937445  0
H  H20  1  0.71190406  0.09292010  0.17408127  1  0.136371  0  0.118527  0.139577  0  0.966467  0
H  H21  1  0.28809930  0.59294709  0.32590830  1  0.136715  0  0.118481  0.139542  0  0.966365  0
H  H22  1  0.28812647  0.90705775  0.82590954  1  0.13681  0  0.118525  0.139626  0  0.966419  0
H  H23  1  0.71184658  0.40705772  0.67409249  1  0.136906  0  0.118542  0.139539  0  0.96634  0
H  H24  1  0.18854949  0.10322732  0.22042665  1  0.125929  0  0.119215  0.115046  0  1.011266  0
H  H25  1  0.81146823  0.60323967  0.27958413  1  0.125626  0  0.119254  0.115103  0  1.011067  0
H  H26  1  0.81150092  0.89677676  0.77957044  1  0.125274  0  0.119164  0.115003  0  1.011252  0
H  H27  1  0.18848498  0.39676587  0.72044556  1  0.125385  0  0.119244  0.115063  0  1.011316  0
H  H28  1  0.54510449  0.10646868  0.41672688  1  0.157907  0  0.12477  0.116873  0  1.014204  0
H  H29  1  0.45495459  0.60644120  0.08326973  1  0.157937  0  0.124754  0.116884  0  1.014406  0
H  H30  1  0.45494964  0.89354269  0.58327341  1  0.158292  0  0.124679  0.116856  0  1.014368  0
H  H31  1  0.54503855  0.39354613  0.91673540  1  0.157813  0  0.124696  0.11688  0  1.014444  0
H  H32  1  0.12308142  0.15241132  0.71234307  1  0.093961  0  0.111015  0.087057  0  1.024173  0
H  H33  1  0.87690499  0.65241302  0.78764032  1  0.093741  0  0.110978  0.087018  0  1.024153  0
H  H34  1  0.87691059  0.84758110  0.28763827  1  0.093967  0  0.110945  0.087005  0  1.024172  0
H  H35  1  0.12309062  0.34757941  0.21236795  1  0.093626  0  0.110977  0.086956  0  1.024207  0
H  H36  1  0.52192490  0.15748048  0.88874883  1  0.109251  0  0.110681  0.088673  0  1.004744  0
H  H37  1  0.47804316  0.65747403  0.61124780  1  0.10901  0  0.110594  0.088615  0  1.004852  0
H  H38  1  0.47802843  0.84251413  0.11125530  1  0.108723  0  0.110664  0.088635  0  1.004974  0
H  H39  1  0.52195994  0.34253733  0.38875408  1  0.108998  0  0.110606  0.088594  0  1.004897  0
H  H40  1  0.62051729  0.12817099  0.63452945  1  0.150239  0  0.113296  0.143684  0  1.010904  0
H  H41  1  0.37947469  0.62817319  0.86546954  1  0.150287  0  0.113261  0.143641  0  1.010927  0
H  H42  1  0.37949076  0.87183455  0.36547750  1  0.150166  0  0.11325  0.143661  0  1.010962  0
H  H43  1  0.62051724  0.37182287  0.13452945  1  0.150316  0  0.113269  0.143643  0  1.010798  0
C  C44  1  0.61190388  0.09664350  0.21481331  1  0.019858  0  -0.064004  -0.099533  0  3.917324  0
C  C45  1  0.38811467  0.59665506  0.28517989  1  0.019087  0  -0.063962  -0.099531  0  3.917103  0
C  C46  1  0.38813159  0.90335257  0.78518683  1  0.01985  0  -0.064084  -0.099643  0  3.917285  0
C  C47  1  0.61184613  0.40335412  0.71482210  1  0.019601  0  -0.064048  -0.09947  0  3.917135  0
C  C48  1  0.44486683  0.09788060  0.18612019  1  -0.099793  0  -0.013146  0.064004  0  3.977153  0
C  C49  1  0.55514930  0.59789533  0.31387838  1  -0.099304  0  -0.013081  0.064082  0  3.977164  0
C  C50  1  0.55516990  0.90211037  0.81387695  1  -0.099428  0  -0.013125  0.063849  0  3.977411  0
C  C51  1  0.44480522  0.40211312  0.68613554  1  -0.098814  0  -0.013039  0.063835  0  3.977072  0
C  C52  1  0.32072024  0.10274382  0.24049248  1  0.567197  0  0.03997  0.020497  0  3.953155  0
C  C53  1  0.67930494  0.60274999  0.25951130  1  0.554582  0  0.039845  0.020278  0  3.953185  0
C  C54  1  0.67932397  0.89726172  0.75950131  1  0.55471  0  0.040038  0.020568  0  3.953315  0
C  C55  1  0.32065325  0.39725555  0.74051677  1  0.554664  0  0.03985  0.02042  0  3.953593  0
C  C56  1  0.52119412  0.10440889  0.35057113  1  0.482897  0  0.053431  0.069933  0  3.878164  0
C  C57  1  0.47884615  0.60439050  0.14942472  1  0.481508  0  0.053486  0.069841  0  3.878345  0
C  C58  1  0.47885877  0.89561340  0.64942666  1  0.480984  0  0.053508  0.069771  0  3.878771  0
C  C59  1  0.52113951  0.39560994  0.85058315  1  0.481127  0  0.053472  0.069584  0  3.878591  0
C  C60  1  0.65114753  0.09980707  0.29917752  1  -0.012012  0  -0.009434  -0.056069  0  3.95903  0
C  C61  1  0.34888123  0.59979307  0.20081120  1  -0.010957  0  -0.009322  -0.055795  0  3.959134  0
C  C62  1  0.34890412  0.90020575  0.70082084  1  -0.011414  0  -0.009201  -0.055532  0  3.958999  0
C  C63  1  0.65108828  0.40020663  0.79919175  1  -0.010569  0  -0.009128  -0.055397  0  3.959053  0
C  C64  1  0.82976235  0.09792585  0.33352276  1  1.564493  0  0.191066  0.557842  0  4.266381  0
C  C65  1  0.17026500  0.59791200  0.16647201  1  1.563966  0  0.191005  0.557771  0  4.266671  0
C  C66  1  0.17028304  0.90208552  0.66648265  1  1.564867  0  0.190757  0.557532  0  4.266871  0
C  C67  1  0.82971082  0.40210010  0.83351294  1  1.565034  0  0.190696  0.557462  0  4.266993  0
C  C68  1  0.29212199  0.13270298  0.57580034  1  1.569953  0  0.190039  0.553492  0  4.272405  0
C  C69  1  0.70785667  0.63270716  0.92419260  1  1.572157  0  0.190082  0.553664  0  4.27286  0
C  C70  1  0.70790604  0.86730693  0.42419280  1  1.571444  0  0.189983  0.55359  0  4.272964  0
C  C71  1  0.29212157  0.36726924  0.07580462  1  1.571753  0  0.190034  0.553421  0  4.272962  0
C  C72  1  0.36307085  0.14000081  0.66293371  1  0.046707  0  -0.01208  -0.060593  0  3.963894  0
C  C73  1  0.63691953  0.64001565  0.83706515  1  0.045935  0  -0.012154  -0.060937  0  3.964082  0
C  C74  1  0.63693102  0.85997778  0.33706691  1  0.045637  0  -0.012005  -0.060579  0  3.963816  0
C  C75  1  0.36306241  0.35998479  0.16294075  1  0.045714  0  -0.012012  -0.060539  0  3.964073  0
C  C76  1  0.25745230  0.14898732  0.72595734  1  0.503835  0  0.04812  0.069617  0  3.907115  0
C  C77  1  0.74253380  0.64900369  0.77403581  1  0.505078  0  0.048116  0.069786  0  3.906839  0
C  C78  1  0.74253468  0.85099928  0.27403476  1  0.505113  0  0.048082  0.069597  0  3.906971  0
C  C79  1  0.25746060  0.35098072  0.22596572  1  0.505264  0  0.048  0.069676  0  3.90721  0
C  C80  1  0.47910649  0.15150769  0.82419137  1  0.549793  0  0.036072  0.018511  0  3.993134  0
C  C81  1  0.52086738  0.65150142  0.67579944  1  0.550361  0  0.036297  0.018679  0  3.992905  0
C  C82  1  0.52086927  0.84849129  0.17580636  1  0.550269  0  0.036237  0.018639  0  3.993117  0
C  C83  1  0.47912454  0.34849246  0.32420077  1  0.551124  0  0.036183  0.018633  0  3.993193  0
C  C84  1  0.59242697  0.14288235  0.76460153  1  -0.146741  0  -0.017007  0.047877  0  3.998428  0
C  C85  1  0.40755122  0.64287116  0.73539073  1  -0.147311  0  -0.017211  0.047658  0  3.998642  0
C  C86  1  0.40755871  0.85712100  0.23540148  1  -0.147223  0  -0.017097  0.047836  0  3.998476  0
C  C87  1  0.59243575  0.35712345  0.26460502  1  -0.14732  0  -0.01707  0.047845  0  3.998439  0
C  C88  1  0.53523260  0.13662378  0.68248726  1  0.028632  0  -0.066784  -0.100206  0  3.893062  0
C  C89  1  0.46475755  0.63662782  0.81750856  1  0.028567  0  -0.066661  -0.099996  0  3.892802  0
C  C90  1  0.46476926  0.86337957  0.31751700  1  0.028744  0  -0.06678  -0.100299  0  3.893322  0
C  C91  1  0.53523065  0.36335514  0.18249029  1  0.028749  0  -0.066727  -0.1002  0  3.892973  0
Br  Br92  1  0.38437541  0.08919858  0.07205350  1  -0.069027  0  0.04756  -0.056441  0  1.484132  0
Br  Br93  1  0.61562014  0.58923652  0.42794916  1  -0.068922  0  0.047521  -0.056432  0  1.484058  0
Br  Br94  1  0.61570985  0.91078656  0.92794012  1  -0.068966  0  0.047574  -0.056339  0  1.484289  0
Br  Br95  1  0.38423860  0.41079087  0.57206089  1  -0.069234  0  0.047465  -0.056454  0  1.483719  0
Br  Br96  1  0.82125706  0.14250716  0.80029094  1  -0.005916  0  0.07609  0.008627  0  1.578815  0
Br  Br97  1  0.17872602  0.64251137  0.69971247  1  -0.005825  0  0.076193  0.00877  0  1.57914  0
Br  Br98  1  0.17872985  0.85749109  0.19971698  1  -0.00569  0  0.076143  0.008689  0  1.578961  0
Br  Br99  1  0.82126589  0.35749271  0.30028896  1  -0.005726  0  0.076114  0.008653  0  1.578921  0
N  N100  1  0.36053890  0.10602109  0.32152115  1  -1.194153  0  -0.318849  -0.218301  0  3.504515  0
N  N101  1  0.63950146  0.60601031  0.17848201  1  -1.180884  0  -0.318926  -0.218376  0  3.504455  0
N  N102  1  0.63951278  0.89399610  0.67847234  1  -1.18112  0  -0.31898  -0.218425  0  3.505011  0
N  N103  1  0.36047917  0.39398576  0.82153784  1  -1.181554  0  -0.318926  -0.218218  0  3.504786  0
N  N104  1  0.31474237  0.15398507  0.80478978  1  -1.249216  0  -0.308879  -0.210579  0  3.444394  0
N  N105  1  0.68523417  0.65399189  0.69520112  1  -1.249483  0  -0.308931  -0.210618  0  3.444048  0
N  N106  1  0.68523591  0.84599643  0.19520075  1  -1.249169  0  -0.308957  -0.210537  0  3.444234  0
N  N107  1  0.31476645  0.34601073  0.30480065  1  -1.25021  0  -0.308859  -0.210557  0  3.444221  0
O  O108  1  0.94406084  0.09509630  0.28536357  1  -1.156785  0  -0.331912  -0.563266  0  2.149657  0
O  O109  1  0.05597746  0.59509335  0.21463713  1  -1.156434  0  -0.331871  -0.563254  0  2.14988  0
O  O110  1  0.05600317  0.90489540  0.71465111  1  -1.156256  0  -0.331697  -0.56317  0  2.149798  0
O  O111  1  0.94397725  0.40490927  0.78533905  1  -1.156195  0  -0.331651  -0.563062  0  2.149845  0
O  O112  1  0.85700038  0.09962623  0.41143103  1  -1.166223  0  -0.324388  -0.569027  0  2.276398  0
O  O113  1  0.14302089  0.59959877  0.08856044  1  -1.166161  0  -0.32434  -0.568992  0  2.276448  0
O  O114  1  0.14302262  0.90038513  0.58857348  1  -1.166791  0  -0.324369  -0.569016  0  2.276637  0
O  O115  1  0.85697735  0.40041551  0.91141994  1  -1.167362  0  -0.324366  -0.569078  0  2.276579  0
O  O116  1  0.38969983  0.11650932  0.52077042  1  -1.167927  0  -0.321299  -0.540771  0  2.170297  0
O  O117  1  0.61028882  0.61650276  0.97922059  1  -1.168992  0  -0.321379  -0.540849  0  2.170443  0
O  O118  1  0.61035057  0.88350422  0.47922728  1  -1.16902  0  -0.321295  -0.540831  0  2.170575  0
O  O119  1  0.38968940  0.38349768  0.02078090  1  -1.169265  0  -0.321324  -0.540758  0  2.17062  0
O  O120  1  0.13477639  0.14348421  0.56123624  1  -1.177658  0  -0.332431  -0.585615  0  2.239838  0
O  O121  1  0.86519683  0.64347338  0.93876251  1  -1.178605  0  -0.3324  -0.585661  0  2.240092  0
O  O122  1  0.86524177  0.85651695  0.43874128  1  -1.178103  0  -0.33233  -0.585591  0  2.240332  0
O  O123  1  0.13478014  0.35652341  0.06124136  1  -1.178116  0  -0.33239  -0.585565  0  2.240087  0
O  O124  1  0.16641153  0.93835469  0.42970053  1  -1.272418  0  -0.579522  -0.746994  0  2.049218  0
O  O125  1  0.83360150  0.43835638  0.07029831  1  -1.272208  0  -0.579535  -0.746975  0  2.049134  0
O  O126  1  0.83362019  0.06164648  0.57030250  1  -1.272349  0  -0.579497  -0.746805  0  2.049418  0
O  O127  1  0.16638794  0.56164771  0.92969875  1  -1.272239  0  -0.579419  -0.746806  0  2.049327  0
O  O128  1  0.12086212  0.27769730  0.41364010  1  -1.244035  0  -0.584713  -0.736362  0  2.167132  0
O  O129  1  0.87912518  0.77770444  0.08636049  1  -1.243708  0  -0.584794  -0.736555  0  2.166796  0
O  O130  1  0.87913851  0.72229877  0.58635924  1  -1.243988  0  -0.584725  -0.736439  0  2.166986  0
O  O131  1  0.12086800  0.22229746  0.91363733  1  -1.243775  0  -0.584757  -0.736543  0  2.166834  0
