# generated using pymatgen
data_NiH4C7O5
_symmetry_space_group_name_H-M   'P 1'
_cell_length_a   8.91395043
_cell_length_b   8.91395043
_cell_length_c   21.16630000
_cell_angle_alpha   90.00000000
_cell_angle_beta   90.00000000
_cell_angle_gamma   119.97159674
_symmetry_Int_Tables_number   1
_chemical_formula_structural   NiH4C7O5
_chemical_formula_sum   'Ni6 H24 C42 O30'
_cell_volume   1456.93520247
_cell_formula_units_Z   6
loop_
 _symmetry_equiv_pos_site_id
 _symmetry_equiv_pos_as_xyz
  1  'x, y, z'
loop_
 _atom_site_type_symbol
 _atom_site_label
 _atom_site_symmetry_multiplicity
 _atom_site_fract_x
 _atom_site_fract_y
 _atom_site_fract_z
 _atom_site_occupancy
 _atom_site_hle17_ddec_charge
 _atom_site_hle17_ddec_spin_density
 _atom_site_hle17_ddec_sum_bond_order
 _atom_site_hle17_magmom
 _atom_site_hse06_ddec_charge
 _atom_site_hse06_ddec_spin_density
 _atom_site_hse06_ddec_sum_bond_order
 _atom_site_hse06_magmom
 _atom_site_pbe_bader_charge
 _atom_site_pbe_bader_spin_density
 _atom_site_pbe_cm5_charge
 _atom_site_pbe_ddec_charge
 _atom_site_pbe_ddec_spin_density
 _atom_site_pbe_ddec_sum_bond_order
 _atom_site_pbe_magmom
Ni  Ni0  1  0.01769488  0.98272708  0.08298380  1  0.993603  1.750933  1.857319  1.523  1.111612  1.881141  2.187817  1.754  1.22988  1.607488  0.631311  0.943069  1.782364  2.324082  1.591
Ni  Ni1  1  0.01679405  0.03372975  0.41646532  1  0.993408  1.753455  1.856624  1.523  1.111374  1.883918  2.187406  1.754  1.230488  1.60755  0.631104  0.943062  1.784906  2.323088  1.591
Ni  Ni2  1  0.96522248  0.98276970  0.74981834  1  0.993509  1.754686  1.854931  1.523  1.111524  1.885116  2.185677  1.754  1.228901  1.607652  0.630926  0.943361  1.786075  2.320964  1.591
Ni  Ni3  1  0.03373489  0.01679788  0.58354507  1  0.993417  1.753512  1.856485  1.523  1.111379  1.88394  2.187284  1.754  1.230668  1.607536  0.631158  0.943128  1.78492  2.322874  1.591
Ni  Ni4  1  0.98277147  0.96522296  0.25019441  1  0.993619  1.754682  1.854907  1.523  1.111597  1.885087  2.185629  1.754  1.228844  1.607644  0.631039  0.943528  1.786055  2.32079  1.591
Ni  Ni5  1  0.98273054  0.01768020  0.91702376  1  0.993681  1.750947  1.857448  1.523  1.111689  1.881134  2.188055  1.754  1.229982  1.607503  0.631327  0.94315  1.782381  2.324345  1.591
H  H6  1  0.07590016  0.46095561  0.06822165  1  0.126506  0.000129  0.938444  0.0  0.137959  0.00012  0.998855  0.0  0.089301  0.000725  0.105865  0.131655  0.000277  1.003355  0.0
H  H7  1  0.53788926  0.61371387  0.40180995  1  0.12601  0.000126  0.93893  0.0  0.137373  0.00012  0.999456  0.0  0.084181  0.000726  0.105661  0.131178  0.000276  1.003802  0.0
H  H8  1  0.38565094  0.92478998  0.73533731  1  0.125884  0.000127  0.938679  0.0  0.137512  0.00012  0.998985  0.0  0.113912  0.000708  0.105971  0.131321  0.000276  1.003363  0.0
H  H9  1  0.61371659  0.53789328  0.59819052  1  0.126056  0.000126  0.938846  0.0  0.137389  0.00012  0.99941  0.0  0.084146  0.000726  0.105676  0.131196  0.000276  1.003752  0.0
H  H10  1  0.92478627  0.38565241  0.26467262  1  0.125806  0.000128  0.938678  0.0  0.137417  0.00012  0.999017  0.0  0.114067  0.000708  0.10593  0.131228  0.000276  1.003389  0.0
H  H11  1  0.46097200  0.07590619  0.93178968  1  0.126578  0.000128  0.93861  0.0  0.137991  0.00012  0.999062  0.0  0.089017  0.000725  0.105883  0.131676  0.000277  1.00358  0.0
H  H12  1  0.59692023  0.50097670  0.09580654  1  0.126981  0.000178  0.936785  0.0  0.139087  0.000139  0.995739  0.0  0.10543  0.00076  0.106518  0.132601  0.000312  1.000518  0.0
H  H13  1  0.49950044  0.09609193  0.42927484  1  0.12698  0.000176  0.936174  0.0  0.139163  0.000139  0.995106  0.0  0.095817  0.000763  0.106343  0.132587  0.000311  0.999997  0.0
H  H14  1  0.90484746  0.40363109  0.76243368  1  0.126269  0.000177  0.937105  0.0  0.138658  0.000139  0.995789  0.0  0.085979  0.000771  0.10599  0.13207  0.000312  1.000688  0.0
H  H15  1  0.09609866  0.49950717  0.57073556  1  0.126997  0.000176  0.93622  0.0  0.139137  0.000138  0.995196  0.0  0.095783  0.000763  0.106343  0.132562  0.000311  1.000085  0.0
H  H16  1  0.40364078  0.90487141  0.23757104  1  0.126329  0.000177  0.937141  0.0  0.138697  0.000139  0.995844  0.0  0.083075  0.00077  0.106022  0.13209  0.000312  1.000763  0.0
H  H17  1  0.50096436  0.59690789  0.90419960  1  0.127002  0.000179  0.93683  0.0  0.139119  0.000139  0.995763  0.0  0.105517  0.00076  0.106508  0.132638  0.000312  1.000539  0.0
H  H18  1  0.34088403  0.23406418  0.14331839  1  0.411925  -0.000237  0.783902  0.0  0.41291  4.3e-05  0.817536  0.0  0.642368  0.000621  0.354504  0.398379  0.000278  0.832279  0.0
H  H19  1  0.76602929  0.10598623  0.47679897  1  0.412811  -0.000241  0.782502  0.0  0.413871  4.2e-05  0.816081  0.0  0.633318  0.00062  0.354787  0.399343  0.000277  0.830825  0.0
H  H20  1  0.89354757  0.65937306  0.80997624  1  0.411814  -0.000235  0.783602  0.0  0.413353  4.4e-05  0.81652  0.0  0.635483  0.000612  0.354646  0.398935  0.000279  0.831111  0.0
H  H21  1  0.10599072  0.76603377  0.52321048  1  0.412801  -0.000242  0.782406  0.0  0.413921  4.1e-05  0.815902  0.0  0.633504  0.00062  0.35481  0.399393  0.000277  0.830651  0.0
H  H22  1  0.65938729  0.89356699  0.19003132  1  0.411908  -0.000235  0.783423  0.0  0.413459  4.4e-05  0.816326  0.0  0.635889  0.000611  0.354745  0.399033  0.000279  0.830938  0.0
H  H23  1  0.23404325  0.34088254  0.85669059  1  0.411775  -0.000238  0.784237  0.0  0.412831  4.2e-05  0.817748  0.0  0.642551  0.00062  0.354437  0.398303  0.000278  0.832492  0.0
H  H24  1  0.08603081  0.72463086  0.02097769  1  0.409603  -0.000106  0.78466  0.0  0.412422  0.000143  0.816032  0.0  0.627674  0.0008  0.355976  0.398397  0.000388  0.830034  0.001
H  H25  1  0.27458792  0.36053224  0.35462315  1  0.409631  -0.000109  0.78436  0.0  0.412436  0.000142  0.815762  0.0  0.657921  0.000758  0.355985  0.398457  0.000387  0.829681  0.001
H  H26  1  0.63882523  0.91413802  0.68819964  1  0.410636  -0.000108  0.783737  0.0  0.413122  0.000146  0.815522  0.0  0.640292  0.000777  0.356529  0.398969  0.000391  0.829658  0.001
H  H27  1  0.36053637  0.27459724  0.64538063  1  0.409592  -0.000109  0.784433  0.0  0.412382  0.000142  0.815848  0.0  0.657818  0.000758  0.355929  0.398404  0.000387  0.829763  0.001
H  H28  1  0.91413802  0.63882523  0.31181359  1  0.410358  -0.000108  0.784104  0.0  0.413012  0.000145  0.815644  0.0  0.640003  0.000777  0.356415  0.398854  0.00039  0.829795  0.001
H  H29  1  0.72462690  0.08601907  0.97903460  1  0.409393  -0.000106  0.784873  0.0  0.412206  0.000143  0.816257  0.0  0.627662  0.0008  0.355963  0.39819  0.000388  0.830233  0.001
C  C30  1  0.00066984  0.72325272  0.16643485  1  0.160376  0.004891  3.869499  0.002  0.154245  0.002271  4.167694  0.001  0.683894  0.0076  0.06118  0.138171  0.005699  4.126539  0.004
C  C31  1  0.27617157  0.27618582  0.50000425  1  0.161577  0.004974  3.868427  0.002  0.155858  0.002282  4.166231  0.001  0.685357  0.007658  0.061971  0.139815  0.00574  4.125142  0.004
C  C32  1  0.72325331  0.00067822  0.83358027  1  0.16022  0.0049  3.869589  0.002  0.154175  0.002271  4.167803  0.001  0.683352  0.007601  0.061028  0.138096  0.0057  4.126644  0.004
C  C33  1  0.00026250  0.24165205  0.16655391  1  0.641197  -0.01641  3.887361  -0.013  0.651068  -0.000411  4.180048  0.001  1.546265  -0.001193  0.203348  0.578532  -0.001589  4.196777  -0.001
C  C34  1  0.75742087  0.75741180  0.50000236  1  0.639031  -0.016502  3.889594  -0.013  0.648795  -0.000437  4.182162  0.001  1.536213  -0.001193  0.202151  0.57646  -0.001643  4.198616  -0.001
C  C35  1  0.24166184  0.00026840  0.83345696  1  0.641287  -0.016407  3.887362  -0.013  0.651227  -0.000413  4.179985  0.001  1.546366  -0.001199  0.20338  0.578696  -0.001591  4.196721  -0.001
C  C36  1  0.73087217  0.73085533  0.00000000  1  0.645466  -0.015826  3.884412  -0.013  0.655774  -0.00082  4.175587  0.0  1.52646  -0.001356  0.204805  0.583176  -0.002001  4.192529  -0.001
C  C37  1  0.26934976  0.00012098  0.33342908  1  0.643669  -0.015827  3.885167  -0.013  0.654244  -0.000791  4.175931  0.001  1.544408  -0.001435  0.203953  0.581575  -0.001964  4.192904  -0.001
C  C38  1  0.00011425  0.26934304  0.66657895  1  0.643644  -0.015825  3.885526  -0.013  0.654247  -0.000788  4.17627  0.001  1.543627  -0.001431  0.203946  0.581573  -0.001963  4.193244  -0.001
C  C39  1  0.24923613  0.24924908  0.00000378  1  0.159307  0.003279  3.878839  0.0  0.155228  0.002025  4.173505  0.001  0.606153  0.006445  0.062203  0.13844  0.004993  4.132968  0.003
C  C40  1  0.75105393  0.99983083  0.33339979  1  0.158402  0.00331  3.874879  0.0  0.153589  0.002017  4.171806  0.001  0.620316  0.006479  0.060786  0.136844  0.00501  4.131337  0.003
C  C41  1  0.99983597  0.75105777  0.66660730  1  0.158286  0.003323  3.875079  0.0  0.15367  0.002017  4.171723  0.001  0.620087  0.006481  0.060731  0.136925  0.00501  4.131255  0.003
C  C42  1  0.56411497  0.56411238  0.00000000  1  -0.04214  0.019987  3.826468  0.025  -0.037047  0.004232  4.096686  0.006  0.044184  0.018172  -0.039272  -0.021155  0.0107  4.057931  0.014
C  C43  1  0.43645630  0.00058984  0.33341207  1  -0.042432  0.020033  3.826009  0.025  -0.037014  0.004221  4.095615  0.006  -0.047926  0.018449  -0.03815  -0.020876  0.0107  4.056352  0.014
C  C44  1  0.00058293  0.43645199  0.66659548  1  -0.042311  0.020019  3.826099  0.025  -0.036905  0.004218  4.095714  0.006  -0.047882  0.018447  -0.038105  -0.020764  0.010699  4.056435  0.014
C  C45  1  0.35907558  0.30235158  0.05329793  1  0.208359  0.008029  3.819337  0.01  0.200203  0.001398  4.112795  0.002  0.387811  0.008148  0.055712  0.193689  0.004519  4.080562  0.005
C  C46  1  0.69800794  0.05656800  0.38673363  1  0.209086  0.008046  3.818961  0.01  0.200429  0.001387  4.11388  0.002  0.370553  0.008168  0.055292  0.193847  0.004523  4.081708  0.005
C  C47  1  0.94365173  0.64140920  0.71994586  1  0.209965  0.008053  3.816715  0.01  0.200944  0.001403  4.112145  0.002  0.392836  0.008151  0.055616  0.194346  0.004534  4.080035  0.005
C  C48  1  0.05656830  0.69801213  0.61327440  1  0.208883  0.008032  3.819336  0.01  0.20023  0.001387  4.114152  0.002  0.370694  0.008165  0.055332  0.193651  0.004522  4.081979  0.005
C  C49  1  0.64141386  0.94365380  0.28006123  1  0.209955  0.008062  3.81691  0.01  0.200998  0.001402  4.112378  0.002  0.392765  0.008152  0.055698  0.194397  0.004535  4.080256  0.005
C  C50  1  0.30233838  0.35907533  0.94670774  1  0.208804  0.008028  3.81923  0.01  0.20061  0.001396  4.112702  0.002  0.387791  0.008148  0.055874  0.194064  0.004518  4.080516  0.005
C  C51  1  0.04260669  0.50728147  0.11077515  1  -0.215699  -0.001971  3.780679  -0.001  -0.252937  0.001523  4.061922  0.002  -0.077258  0.005401  -0.115878  -0.252815  0.00314  4.031695  0.003
C  C52  1  0.49178966  0.53410950  0.44436061  1  -0.216119  -0.001915  3.782242  -0.001  -0.253479  0.001525  4.063194  0.002  -0.030815  0.005409  -0.115796  -0.253215  0.00316  4.033015  0.003
C  C53  1  0.46525393  0.95826675  0.77789741  1  -0.215809  -0.001959  3.781591  -0.001  -0.253158  0.00153  4.062793  0.002  -0.037026  0.00534  -0.116083  -0.253168  0.003147  4.032609  0.003
C  C54  1  0.53410561  0.49179355  0.55564081  1  -0.216045  -0.001916  3.782056  -0.001  -0.253403  0.001525  4.063004  0.002  -0.03071  0.005409  -0.115762  -0.253139  0.00316  4.032822  0.003
C  C55  1  0.95826562  0.46525281  0.22211251  1  -0.215592  -0.00198  3.781587  -0.001  -0.252925  0.00153  4.062764  0.002  -0.036516  0.00534  -0.115918  -0.252924  0.003147  4.032582  0.003
C  C56  1  0.50729079  0.04261082  0.88923714  1  -0.215652  -0.001949  3.781012  -0.001  -0.252818  0.001522  4.062199  0.002  -0.077801  0.005403  -0.115792  -0.252697  0.00314  4.031978  0.003
C  C57  1  0.51300334  0.45931745  0.05429763  1  -0.211173  -0.002467  3.780113  -0.001  -0.248148  0.001235  4.059687  0.001  -0.000798  0.004517  -0.114584  -0.248759  0.002666  4.030258  0.003
C  C58  1  0.54123612  0.05400414  0.38772766  1  -0.211118  -0.002396  3.781296  -0.001  -0.247883  0.001258  4.060702  0.001  0.062458  0.004477  -0.114434  -0.248482  0.002707  4.031178  0.003
C  C59  1  0.94701519  0.48760690  0.72093139  1  -0.210688  -0.002437  3.781511  -0.001  -0.247685  0.001246  4.061243  0.001  0.049078  0.004464  -0.11414  -0.248213  0.002682  4.031583  0.003
C  C60  1  0.05400833  0.54123642  0.61227943  1  -0.210917  -0.002374  3.781254  -0.001  -0.247668  0.001258  4.060646  0.001  0.063086  0.004476  -0.114367  -0.248272  0.002707  4.031118  0.003
C  C61  1  0.48760755  0.94701454  0.27907334  1  -0.210669  -0.002457  3.781248  -0.001  -0.247639  0.001245  4.060947  0.001  0.052513  0.004463  -0.114159  -0.248145  0.002682  4.03129  0.003
C  C62  1  0.45931548  0.51298064  0.94570331  1  -0.211427  -0.002469  3.780209  -0.001  -0.24841  0.001235  4.059784  0.001  -0.001016  0.004516  -0.114662  -0.249007  0.002666  4.030358  0.003
C  C63  1  0.04669305  0.66482956  0.11175028  1  0.213043  0.008483  3.817434  0.01  0.204108  0.001359  4.113636  0.002  0.423706  0.008499  0.057494  0.197352  0.004701  4.081355  0.006
C  C64  1  0.33435395  0.38068747  0.44537354  1  0.212292  0.008487  3.819702  0.01  0.203088  0.001362  4.115953  0.002  0.393907  0.008521  0.05646  0.196255  0.004702  4.083759  0.006
C  C65  1  0.61877128  0.95434497  0.77893160  1  0.213273  0.008491  3.818118  0.01  0.204526  0.001351  4.113935  0.002  0.409371  0.00853  0.057209  0.197719  0.004699  4.081763  0.006
C  C66  1  0.38068742  0.33436297  0.55462835  1  0.212006  0.008487  3.819771  0.01  0.20284  0.001363  4.115939  0.002  0.393263  0.008522  0.056317  0.196009  0.004703  4.083749  0.006
C  C67  1  0.95433553  0.61876054  0.22108068  1  0.212985  0.008499  3.818379  0.01  0.20425  0.001352  4.114226  0.002  0.409216  0.00853  0.056935  0.197424  0.004699  4.082082  0.006
C  C68  1  0.66484207  0.04670297  0.88826247  1  0.213029  0.008469  3.817695  0.01  0.204057  0.001358  4.113862  0.002  0.424163  0.008497  0.05752  0.197296  0.0047  4.081596  0.006
C  C69  1  0.00044575  0.40840950  0.16646225  1  -0.037729  0.020905  3.825284  0.026  -0.032921  0.00398  4.095809  0.006  0.022285  0.018513  -0.037944  -0.017052  0.010828  4.056537  0.014
C  C70  1  0.59081104  0.59081752  0.50000000  1  -0.034434  0.020877  3.822498  0.026  -0.028643  0.003978  4.091157  0.006  0.062313  0.018434  -0.036698  -0.013313  0.010816  4.05255  0.014
C  C71  1  0.40842006  0.00045762  0.83354767  1  -0.037731  0.020891  3.825466  0.026  -0.032956  0.003981  4.095995  0.006  0.023691  0.01851  -0.037917  -0.017078  0.010827  4.056694  0.014
O  O72  1  0.10018593  0.10018463  0.00000378  1  -0.586635  0.082412  2.313622  0.139  -0.630733  0.036798  2.638589  0.065  -1.103105  0.11026  -0.341769  -0.543337  0.061766  2.646284  0.101
O  O73  1  0.89993730  0.99933871  0.33335869  1  -0.586475  0.082954  2.309307  0.14  -0.629532  0.037066  2.633578  0.065  -1.112153  0.110586  -0.340006  -0.542264  0.062183  2.640937  0.101
O  O74  1  0.99936119  0.89995070  0.66664651  1  -0.586341  0.082956  2.309173  0.14  -0.629562  0.037067  2.633478  0.065  -1.112056  0.110585  -0.339973  -0.542281  0.062185  2.640813  0.101
O  O75  1  0.77919060  0.80957305  0.05311793  1  -0.6118  0.055599  2.05839  0.097  -0.640908  0.021869  2.320215  0.043  -1.144713  0.080361  -0.322791  -0.571692  0.042642  2.343762  0.074
O  O76  1  0.19031470  0.96883516  0.38650922  1  -0.610611  0.055552  2.0585  0.097  -0.63973  0.021855  2.31993  0.043  -1.143793  0.080168  -0.322354  -0.570651  0.042592  2.343433  0.073
O  O77  1  0.03095843  0.22114700  0.71965483  1  -0.610795  0.055608  2.059259  0.097  -0.640119  0.021865  2.321071  0.043  -1.141779  0.080223  -0.322637  -0.571011  0.042622  2.344595  0.073
O  O78  1  0.96883244  0.19031069  0.61349787  1  -0.610676  0.055558  2.058629  0.097  -0.639795  0.021859  2.32003  0.043  -1.143207  0.080179  -0.322415  -0.570731  0.042599  2.343538  0.073
O  O79  1  0.22115632  0.03096256  0.28035179  1  -0.610829  0.055615  2.058943  0.097  -0.640153  0.021866  2.320758  0.043  -1.141892  0.080237  -0.322697  -0.571058  0.042627  2.344271  0.073
O  O80  1  0.80958331  0.77919828  0.94688207  1  -0.611848  0.055603  2.058598  0.097  -0.640953  0.021875  2.32046  0.043  -1.145263  0.080366  -0.322847  -0.571736  0.042645  2.34402  0.074
O  O81  1  0.00079496  0.87239574  0.16651895  1  -0.587695  0.083144  2.306868  0.14  -0.630714  0.036813  2.631386  0.065  -1.111861  0.110445  -0.340343  -0.543368  0.062067  2.638164  0.101
O  O82  1  0.12714845  0.12714586  0.50000472  1  -0.589228  0.082955  2.307195  0.14  -0.632589  0.036663  2.632173  0.065  -1.122073  0.110442  -0.341284  -0.545069  0.061864  2.638636  0.101
O  O83  1  0.87240803  0.00081632  0.83349334  1  -0.587595  0.083151  2.306789  0.14  -0.630751  0.036816  2.631428  0.065  -1.111613  0.110451  -0.34025  -0.543386  0.062069  2.638226  0.101
O  O84  1  0.30109199  0.18099901  0.10186665  1  -0.509125  0.016267  2.176716  0.026  -0.489026  0.012402  2.380309  0.021  -1.140547  0.03394  -0.339066  -0.453448  0.018869  2.404026  0.029
O  O85  1  0.81921491  0.11934859  0.43536187  1  -0.509932  0.016392  2.17621  0.026  -0.489994  0.01247  2.380548  0.021  -1.135365  0.034185  -0.339371  -0.454356  0.018967  2.404221  0.029
O  O86  1  0.88037941  0.69947619  0.76856465  1  -0.509653  0.016199  2.173734  0.026  -0.489919  0.012339  2.377634  0.021  -1.138213  0.033854  -0.339335  -0.45446  0.018779  2.401317  0.029
O  O87  1  0.11936356  0.81921563  0.56464710  1  -0.509844  0.01639  2.176161  0.026  -0.489998  0.012469  2.380477  0.021  -1.13568  0.034185  -0.339415  -0.454375  0.018966  2.404141  0.029
O  O88  1  0.69946722  0.88037043  0.23144385  1  -0.509648  0.016202  2.173785  0.026  -0.489964  0.012341  2.377691  0.021  -1.138495  0.033859  -0.339385  -0.454501  0.018782  2.401352  0.029
O  O89  1  0.18099058  0.30110041  0.89814091  1  -0.50918  0.016265  2.177038  0.026  -0.489115  0.012401  2.380554  0.021  -1.140921  0.033943  -0.339074  -0.453532  0.018866  2.404284  0.029
O  O90  1  0.95060351  0.15281273  0.11550295  1  -0.61132  0.056731  2.057752  0.099  -0.641205  0.022226  2.319919  0.044  -1.146169  0.082236  -0.322565  -0.571568  0.043585  2.342515  0.075
O  O91  1  0.84649539  0.79634900  0.44899108  1  -0.611092  0.056627  2.054893  0.099  -0.641105  0.022193  2.316679  0.044  -1.143509  0.082151  -0.322273  -0.571615  0.043568  2.339227  0.075
O  O92  1  0.20245669  0.04966219  0.78232615  1  -0.611544  0.056578  2.055524  0.099  -0.641331  0.022208  2.317396  0.044  -1.142727  0.082021  -0.322526  -0.571882  0.043512  2.340028  0.075
O  O93  1  0.79634965  0.84649474  0.55101080  1  -0.611149  0.056615  2.054813  0.099  -0.64114  0.022186  2.316575  0.044  -1.143461  0.082139  -0.322218  -0.571666  0.043561  2.339106  0.075
O  O94  1  0.04965003  0.20244194  0.21768472  1  -0.611534  0.056576  2.055614  0.099  -0.641336  0.022207  2.317552  0.044  -1.142666  0.082018  -0.322626  -0.571901  0.043511  2.340177  0.075
O  O95  1  0.15281821  0.95060252  0.88450650  1  -0.611379  0.056735  2.057874  0.099  -0.641326  0.022229  2.320066  0.044  -1.14627  0.082245  -0.322657  -0.571685  0.043589  2.342671  0.075
O  O96  1  0.10016306  0.78127858  0.06170091  1  -0.506909  0.014936  2.169803  0.024  -0.488469  0.011636  2.372879  0.019  -1.127559  0.031824  -0.338444  -0.453538  0.017667  2.396883  0.027
O  O97  1  0.21788677  0.31779605  0.39532606  1  -0.506476  0.014962  2.168558  0.024  -0.487997  0.011646  2.371626  0.019  -1.158514  0.031856  -0.337954  -0.453095  0.017693  2.395559  0.027
O  O98  1  0.68190051  0.90078987  0.72892806  1  -0.507628  0.015042  2.170712  0.024  -0.488971  0.011684  2.374199  0.019  -1.144881  0.031922  -0.338538  -0.45384  0.017734  2.39842  0.027
O  O99  1  0.31780019  0.21789609  0.60467772  1  -0.506289  0.014963  2.168411  0.024  -0.48778  0.011647  2.371432  0.019  -1.158444  0.03186  -0.337795  -0.452884  0.017696  2.395354  0.027
O  O100  1  0.90078125  0.68188671  0.27108281  1  -0.507315  0.015041  2.171225  0.024  -0.488837  0.011683  2.374577  0.019  -1.144965  0.031921  -0.338397  -0.453718  0.017733  2.398795  0.027
O  O101  1  0.78127711  0.10016677  0.93831232  1  -0.506797  0.014932  2.169904  0.024  -0.488315  0.011635  2.372965  0.019  -1.12801  0.031818  -0.338574  -0.453386  0.017665  2.396975  0.027
