# generated using pymatgen
data_ZnH6C9NO4
_symmetry_space_group_name_H-M   'P 1'
_cell_length_a   8.97965842
_cell_length_b   8.97958909
_cell_length_c   13.92022422
_cell_angle_alpha   74.28317811
_cell_angle_beta   74.28407283
_cell_angle_gamma   81.49485170
_symmetry_Int_Tables_number   1
_chemical_formula_structural   ZnH6C9NO4
_chemical_formula_sum   'Zn4 H24 C36 N4 O16'
_cell_volume   1036.71183154
_cell_formula_units_Z   4
loop_
 _symmetry_equiv_pos_site_id
 _symmetry_equiv_pos_as_xyz
  1  'x, y, z'
loop_
 _atom_site_type_symbol
 _atom_site_label
 _atom_site_symmetry_multiplicity
 _atom_site_fract_x
 _atom_site_fract_y
 _atom_site_fract_z
 _atom_site_occupancy
 _atom_site_pbe_bader_charge
 _atom_site_pbe_bader_spin_density
 _atom_site_pbe_cm5_charge
 _atom_site_pbe_ddec_charge
 _atom_site_pbe_ddec_spin_density
 _atom_site_pbe_ddec_sum_bond_order
 _atom_site_pbe_magmom
Zn  Zn0  1  0.76711268  0.76711142  0.58812422  1  1.290537  0  0.673655  0.821326  0  2.40744  0
Zn  Zn1  1  0.71297120  0.71295017  0.80888620  1  1.283091  0  0.663938  0.821769  0  2.401102  0
Zn  Zn2  1  0.23288853  0.23288434  0.41187600  1  1.290555  0  0.673692  0.821361  0  2.407395  0
Zn  Zn3  1  0.28703696  0.28704149  0.19111287  1  1.283038  0  0.663939  0.82173  0  2.401271  0
H  H4  1  0.19513133  0.74138496  0.81435067  1  0.11585  0  0.10632  0.126095  0  0.995439  0
H  H5  1  0.28292648  0.75682631  0.58168171  1  0.120137  0  0.111272  0.13459  0  0.997899  0
H  H6  1  0.94719167  0.59271022  0.43318534  1  0.141104  0  0.123683  0.100914  0  0.998699  0
H  H7  1  0.93038829  0.56055027  0.26644940  1  0.106314  0  0.10999  0.119775  0  1.038806  0
H  H8  1  0.89774493  0.52773477  0.13938141  1  0.118069  0  0.109948  0.115906  0  1.04871  0
H  H9  1  0.86909130  0.51681473  0.96914542  1  0.101556  0  0.122524  0.090593  0  0.998252  0
H  H10  1  0.74140332  0.19510197  0.81437342  1  0.115978  0  0.106338  0.126052  0  0.995374  0
H  H11  1  0.75681941  0.28293424  0.58170738  1  0.120649  0  0.111288  0.134603  0  0.997915  0
H  H12  1  0.59269747  0.94719014  0.43318595  1  0.141027  0  0.123603  0.100821  0  0.998569  0
H  H13  1  0.56053998  0.93038649  0.26644890  1  0.106368  0  0.109986  0.119806  0  1.038872  0
H  H14  1  0.52773120  0.89775262  0.13937414  1  0.118048  0  0.109938  0.115908  0  1.048907  0
H  H15  1  0.51680937  0.86910947  0.96913403  1  0.101531  0  0.122493  0.090547  0  0.998031  0
H  H16  1  0.25859977  0.80488858  0.18563378  1  0.115785  0  0.106353  0.126122  0  0.995331  0
H  H17  1  0.24316846  0.71706672  0.41830558  1  0.120425  0  0.111252  0.134565  0  0.997879  0
H  H18  1  0.40729673  0.05281875  0.56681767  1  0.141099  0  0.123703  0.10094  0  0.998769  0
H  H19  1  0.43946806  0.06961301  0.73355333  1  0.10622  0  0.110006  0.119773  0  1.0388  0
H  H20  1  0.47227393  0.10226370  0.86062023  1  0.118214  0  0.109994  0.116004  0  1.04872  0
H  H21  1  0.48319316  0.13089657  0.03086444  1  0.101497  0  0.122494  0.090612  0  0.99809  0
H  H22  1  0.80487838  0.25861154  0.18564168  1  0.115634  0  0.106365  0.126127  0  0.995447  0
H  H23  1  0.71706969  0.24318328  0.41830712  1  0.120217  0  0.111234  0.134558  0  0.997944  0
H  H24  1  0.05280546  0.40730474  0.56680756  1  0.141064  0  0.123601  0.100811  0  0.998513  0
H  H25  1  0.06961422  0.43944212  0.73354754  1  0.106347  0  0.11002  0.119854  0  1.038859  0
H  H26  1  0.10223968  0.47226220  0.86062762  1  0.11827  0  0.109941  0.115917  0  1.048814  0
H  H27  1  0.13088259  0.48317274  0.03086882  1  0.101517  0  0.122491  0.090569  0  0.998169  0
C  C28  1  0.43866831  0.75218661  0.72527603  1  1.568213  0  0.205986  0.617039  0  4.194895  0
C  C29  1  0.26954290  0.74766514  0.73736701  1  -0.067941  0  -0.085437  -0.183491  0  3.909485  0
C  C30  1  0.20934085  0.74682671  0.65922879  1  -0.059926  0  -0.079184  -0.168906  0  3.87969  0
C  C31  1  0.04079687  0.73595896  0.67275688  1  1.557603  0  0.2086  0.616514  0  4.185412  0
C  C32  1  0.86259580  0.66509813  0.39383620  1  0.473813  0  0.059122  0.113874  0  3.900938  0
C  C33  1  0.85094114  0.64672206  0.30034144  1  -0.012922  0  -0.078162  -0.165246  0  3.910148  0
C  C34  1  0.81338101  0.60897225  0.10443241  1  -0.028892  0  -0.074386  -0.167335  0  3.918114  0
C  C35  1  0.79790194  0.60087508  0.00951636  1  0.494676  0  0.059334  0.112476  0  3.914495  0
C  C36  1  0.75221100  0.43864119  0.72530371  1  1.568294  0  0.205874  0.616998  0  4.194897  0
C  C37  1  0.74768362  0.26951724  0.73739248  1  -0.068397  0  -0.085384  -0.18338  0  3.909612  0
C  C38  1  0.74682806  0.20932907  0.65924566  1  -0.060175  0  -0.079191  -0.16889  0  3.879735  0
C  C39  1  0.73594787  0.04079018  0.67277483  1  1.557212  0  0.208481  0.616531  0  4.186011  0
C  C40  1  0.66508955  0.86258660  0.39383299  1  0.473441  0  0.059191  0.113973  0  3.901047  0
C  C41  1  0.64672053  0.85095038  0.30034082  1  -0.012603  0  -0.078183  -0.165389  0  3.910747  0
C  C42  1  0.60895695  0.81339282  0.10444787  1  -0.028165  0  -0.074321  -0.167228  0  3.918508  0
C  C43  1  0.60088959  0.79789519  0.00952224  1  0.494627  0  0.059283  0.112401  0  3.9141  0
C  C44  1  0.73914970  0.73915913  0.25169499  1  0.005935  0  0.017926  0.108243  0  3.953623  0
C  C45  1  0.72051451  0.72053852  0.15329491  1  -0.024309  0  0.020229  0.118212  0  3.936899  0
C  C46  1  0.24779174  0.56134219  0.27470895  1  1.568397  0  0.205918  0.617025  0  4.195332  0
C  C47  1  0.25232500  0.73047020  0.26261868  1  -0.068076  0  -0.085411  -0.183469  0  3.909686  0
C  C48  1  0.25316826  0.79066689  0.34075959  1  -0.05978  0  -0.079197  -0.168867  0  3.879766  0
C  C49  1  0.26404697  0.95920784  0.32723680  1  1.557426  0  0.208519  0.616341  0  4.185697  0
C  C50  1  0.33491898  0.13741112  0.60616007  1  0.473465  0  0.05909  0.11384  0  3.901017  0
C  C51  1  0.35328563  0.14906002  0.69965501  1  -0.012408  0  -0.078176  -0.165213  0  3.909974  0
C  C52  1  0.39103734  0.18662185  0.89555486  1  -0.02906  0  -0.074379  -0.167343  0  3.918142  0
C  C53  1  0.39912320  0.20210852  0.99047792  1  0.495137  0  0.059341  0.112344  0  3.914102  0
C  C54  1  0.56133950  0.24780597  0.27470857  1  1.568432  0  0.20601  0.61723  0  4.195071  0
C  C55  1  0.73045684  0.25233965  0.26261913  1  -0.067295  0  -0.085527  -0.183645  0  3.909542  0
C  C56  1  0.79066307  0.25318400  0.34076589  1  -0.060412  0  -0.079074  -0.168738  0  3.879285  0
C  C57  1  0.95920736  0.26404865  0.32723175  1  1.557412  0  0.208528  0.616451  0  4.186127  0
C  C58  1  0.13740992  0.33489932  0.60616596  1  0.473373  0  0.05926  0.114089  0  3.90073  0
C  C59  1  0.14905202  0.35328137  0.69965957  1  -0.012276  0  -0.078308  -0.165508  0  3.910799  0
C  C60  1  0.18660758  0.39102602  0.89556719  1  -0.029133  0  -0.074246  -0.167229  0  3.918375  0
C  C61  1  0.20209895  0.39911013  0.99048839  1  0.494855  0  0.059266  0.112397  0  3.914472  0
C  C62  1  0.26083559  0.26085898  0.74830426  1  0.005816  0  0.017943  0.108122  0  3.953484  0
C  C63  1  0.27947875  0.27948776  0.84670694  1  -0.024042  0  0.020207  0.118339  0  3.936751  0
N  N64  1  0.77043634  0.77044221  0.44052658  1  -1.255535  0  -0.321507  -0.202722  0  3.51594  0
N  N65  1  0.69609761  0.69608939  0.96124687  1  -1.252499  0  -0.319413  -0.198849  0  3.512978  0
N  N66  1  0.22956502  0.22955824  0.55947148  1  -1.255367  0  -0.321548  -0.202787  0  3.515833  0
N  N67  1  0.30390823  0.30390819  0.03875310  1  -1.253058  0  -0.319423  -0.198819  0  3.513081  0
O  O68  1  0.52635531  0.77392581  0.63483131  1  -1.177317  0  -0.315397  -0.556304  0  2.338498  0
O  O69  1  0.48181758  0.73230787  0.80848021  1  -1.156365  0  -0.321924  -0.546619  0  2.271677  0
O  O70  1  0.95484424  0.70919806  0.76439017  1  -1.174474  0  -0.323287  -0.571858  0  2.326102  0
O  O71  1  0.99659168  0.75184656  0.59077357  1  -1.143379  0  -0.306405  -0.52193  0  2.293163  0
O  O72  1  0.77391756  0.52633740  0.63485793  1  -1.177309  0  -0.315393  -0.556338  0  2.338359  0
O  O73  1  0.73238237  0.48178382  0.80850464  1  -1.15641  0  -0.321893  -0.546688  0  2.271466  0
O  O74  1  0.70916909  0.95483483  0.76440784  1  -1.174548  0  -0.323157  -0.571842  0  2.326336  0
O  O75  1  0.75185862  0.99659511  0.59078814  1  -1.142898  0  -0.306391  -0.521963  0  2.29338  0
O  O76  1  0.22607026  0.47365441  0.36515499  1  -1.177354  0  -0.315364  -0.556286  0  2.338648  0
O  O77  1  0.26764726  0.51820514  0.19150167  1  -1.156498  0  -0.321926  -0.546702  0  2.27168  0
O  O78  1  0.29080846  0.04516954  0.23560473  1  -1.174543  0  -0.323173  -0.571747  0  2.326239  0
O  O79  1  0.24815330  0.00339863  0.40922660  1  -1.143358  0  -0.306443  -0.52189  0  2.293162  0
O  O80  1  0.47364687  0.22608115  0.36515269  1  -1.17736  0  -0.315371  -0.556375  0  2.338474  0
O  O81  1  0.51819471  0.26765569  0.19150307  1  -1.156573  0  -0.321978  -0.54673  0  2.271593  0
O  O82  1  0.04515892  0.29080747  0.23559678  1  -1.174539  0  -0.323193  -0.571792  0  2.326195  0
O  O83  1  0.00340551  0.24815368  0.40921652  1  -1.143074  0  -0.306417  -0.521963  0  2.293547  0
