# generated using pymatgen
data_CuH9C10NO9
_symmetry_space_group_name_H-M   'P 1'
_cell_length_a   7.74965010
_cell_length_b   8.16854667
_cell_length_c   11.24948173
_cell_angle_alpha   77.16205004
_cell_angle_beta   76.78000399
_cell_angle_gamma   62.19011019
_symmetry_Int_Tables_number   1
_chemical_formula_structural   CuH9C10NO9
_chemical_formula_sum   'Cu2 H18 C20 N2 O18'
_cell_volume   607.64554404
_cell_formula_units_Z   2
loop_
 _symmetry_equiv_pos_site_id
 _symmetry_equiv_pos_as_xyz
  1  'x, y, z'
loop_
 _atom_site_type_symbol
 _atom_site_label
 _atom_site_symmetry_multiplicity
 _atom_site_fract_x
 _atom_site_fract_y
 _atom_site_fract_z
 _atom_site_occupancy
 _atom_site_hle17_bader_spin_density
 _atom_site_hle17_ddec_charge
 _atom_site_hle17_ddec_spin_density
 _atom_site_hle17_ddec_sum_bond_order
 _atom_site_hle17_magmom
 _atom_site_hse06_10hf_bader_spin_density
 _atom_site_hse06_10hf_ddec_charge
 _atom_site_hse06_10hf_ddec_spin_density
 _atom_site_hse06_10hf_ddec_sum_bond_order
 _atom_site_hse06_10hf_magmom
 _atom_site_hse06_bader_spin_density
 _atom_site_hse06_ddec_charge
 _atom_site_hse06_ddec_spin_density
 _atom_site_hse06_ddec_sum_bond_order
 _atom_site_hse06_magmom
 _atom_site_pbe_bader_spin_density
 _atom_site_pbe_cm5_charge
 _atom_site_pbe_ddec_charge
 _atom_site_pbe_ddec_spin_density
 _atom_site_pbe_ddec_sum_bond_order
 _atom_site_pbe_magmom
Cu  Cu0  1  0.14968551  0.03265463  0.44226331  1  0  0.88081  0  1.805611  0  0  0.83469  0  2.225908  0  0  0.87749  0  2.158065  0  0  0.657953  0.805055  0  2.272937  0
Cu  Cu1  1  0.85032422  0.96735508  0.55773750  1  0  0.88076  0  1.805363  0  0  0.834297  0  2.226001  0  0  0.877279  0  2.15807  0  0  0.65823  0.805382  0  2.272874  0
H  H2  1  0.46646554  0.98523166  0.26821256  1  0  0.410325  0  0.884905  0  0  0.386484  0  0.941189  0  0  0.394983  0  0.928541  0  0  0.296555  0.38029  0  0.950416  0
H  H3  1  0.53352024  0.01476241  0.73178491  1  0  0.410312  0  0.884798  0  0  0.386467  0  0.941181  0  0  0.394967  0  0.928533  0  0  0.296553  0.380277  0  0.950398  0
H  H4  1  0.53830958  0.03626193  0.36791105  1  0  0.423139  0  0.869788  0  0  0.400433  0  0.923011  0  0  0.410668  0  0.907991  0  0  0.295152  0.393046  0  0.933864  0
H  H5  1  0.46167549  0.96373528  0.63209401  1  0  0.423145  0  0.869811  0  0  0.400436  0  0.922999  0  0  0.410677  0  0.907981  0  0  0.295165  0.393071  0  0.933801  0
H  H6  1  0.35851925  0.80579976  0.80947463  1  0  0.09044  0  0.959438  0  0  0.095585  0  1.032926  0  0  0.097097  0  1.03236  0  0  0.112201  0.093974  0  1.034115  0
H  H7  1  0.64148719  0.19421526  0.19051949  1  0  0.090446  0  0.959432  0  0  0.095646  0  1.032885  0  0  0.097156  0  1.032317  0  0  0.112212  0.094029  0  1.034081  0
H  H8  1  0.18204630  0.03156693  0.84764905  1  0  0.096232  0  0.938643  0  0  0.102943  0  1.007555  0  0  0.104612  0  1.006472  0  0  0.111809  0.102229  0  1.008056  0
H  H9  1  0.81795435  0.96844942  0.15234379  1  0  0.096301  0  0.938417  0  0  0.102885  0  1.007528  0  0  0.104553  0  1.006444  0  0  0.111765  0.102172  0  1.008024  0
H  H10  1  0.98789691  0.60613218  0.09138445  1  0  0.12265  0  0.9424  0  0  0.127087  0  1.009099  0  0  0.131076  0  1.005746  0  0  0.111331  0.124306  0  1.011465  0
H  H11  1  0.01210938  0.39388400  0.90860416  1  0  0.12281  0  0.942379  0  0  0.127196  0  1.009109  0  0  0.131181  0  1.005762  0  0  0.111378  0.124413  0  1.011471  0
H  H12  1  0.13001722  0.43671109  0.28174198  1  0  0.141769  0  0.94842  0  0  0.147896  0  1.010341  0  0  0.151885  0  1.007908  0  0  0.11609  0.145355  0  1.011835  0
H  H13  1  0.86998006  0.56328703  0.71825160  1  0  0.141744  0  0.948423  0  0  0.147871  0  1.010344  0  0  0.151857  0  1.007914  0  0  0.116072  0.145314  0  1.01186  0
H  H14  1  0.41208260  0.83567568  0.98940872  1  0  0.140442  0  0.946213  0  0  0.146777  0  1.009749  0  0  0.150575  0  1.006599  0  0  0.118463  0.144204  0  1.011901  0
H  H15  1  0.58793273  0.16432716  0.01059520  1  0  0.140503  0  0.946259  0  0  0.146836  0  1.0098  0  0  0.150635  0  1.006652  0  0  0.118474  0.144265  0  1.011944  0
H  H16  1  0.40206525  0.37241630  0.53101295  1  0  0.130321  0  0.923781  0  0  0.133877  0  0.989394  0  0  0.136976  0  0.986893  0  0  0.12108  0.131601  0  0.991397  0
H  H17  1  0.59791711  0.62758204  0.46898602  1  0  0.130518  0  0.923712  0  0  0.133978  0  0.989385  0  0  0.137083  0  0.986882  0  0  0.121154  0.131708  0  0.991369  0
H  H18  1  0.20888628  0.39002091  0.45861601  1  0  0.114231  0  0.958746  0  0  0.116423  0  1.027437  0  0  0.119203  0  1.025222  0  0  0.112603  0.114586  0  1.029124  0
H  H19  1  0.79110879  0.60995906  0.54137994  1  0  0.114302  0  0.958845  0  0  0.116493  0  1.027468  0  0  0.119267  0  1.025279  0  0  0.112639  0.11464  0  1.029186  0
C  C20  1  0.11865484  0.93978049  0.70626969  1  0  0.679655  0  3.809043  0  0  0.632584  0  4.115501  0  0  0.667619  0  4.107768  0  0  0.222527  0.6085  0  4.121358  0
C  C21  1  0.88134545  0.06021918  0.29372683  1  0  0.679148  0  3.809452  0  0  0.632323  0  4.115566  0  0  0.667361  0  4.107828  0  0  0.22252  0.608247  0  4.121353  0
C  C22  1  0.19990423  0.89890469  0.82576153  1  0  -0.061985  0  3.622697  0  0  -0.117327  0  3.877754  0  0  -0.115573  0  3.880815  0  0  -0.061523  -0.119054  0  3.875846  0
C  C23  1  0.80010239  0.10111196  0.17423765  1  0  -0.061745  0  3.62279  0  0  -0.117228  0  3.877971  0  0  -0.115488  0  3.881072  0  0  -0.06148  -0.118958  0  3.87602  0
C  C24  1  0.19255078  0.72755551  0.02451523  1  0  0.265749  0  3.814947  0  0  0.25112  0  4.088238  0  0  0.25892  0  4.106123  0  0  0.080748  0.245555  0  4.075456  0
C  C25  1  0.80745802  0.27244277  0.97548135  1  0  0.265682  0  3.814802  0  0  0.25121  0  4.087847  0  0  0.259015  0  4.105726  0  0  0.080786  0.24564  0  4.075061  0
C  C26  1  0.11432865  0.61605729  0.10990022  1  0  -0.109736  0  3.691827  0  0  -0.142251  0  3.961844  0  0  -0.143214  0  3.978694  0  0  -0.083797  -0.141058  0  3.949722  0
C  C27  1  0.88569031  0.38393383  0.89009271  1  0  -0.109782  0  3.69184  0  0  -0.142337  0  3.961842  0  0  -0.143298  0  3.978683  0  0  -0.083832  -0.141146  0  3.949722  0
C  C28  1  0.19483611  0.52056604  0.21691167  1  0  -0.148897  0  3.712617  0  0  -0.172879  0  3.974318  0  0  -0.177522  0  3.993179  0  0  -0.092472  -0.169191  0  3.960123  0
C  C29  1  0.80516943  0.47943082  0.78308466  1  0  -0.14882  0  3.712602  0  0  -0.172775  0  3.974285  0  0  -0.177425  0  3.993161  0  0  -0.092452  -0.169093  0  3.9601  0
C  C30  1  0.36047375  0.52841149  0.24132229  1  0  0.220057  0  3.773282  0  0  0.201302  0  4.048051  0  0  0.211865  0  4.06545  0  0  0.088253  0.19461  0  4.034987  0
C  C31  1  0.63953201  0.47158417  0.75867865  1  0  0.220038  0  3.773196  0  0  0.201202  0  4.047996  0  0  0.211765  0  4.065395  0  0  0.08817  0.194509  0  4.03493  0
C  C32  1  0.43497215  0.64311398  0.15548180  1  0  0.004536  0  3.694761  0  0  -0.011397  0  3.960619  0  0  -0.016992  0  3.982616  0  0  0.073528  -0.007583  0  3.945617  0
C  C33  1  0.56504050  0.35687763  0.84452252  1  0  0.004584  0  3.694827  0  0  -0.01133  0  3.960679  0  0  -0.01693  0  3.982682  0  0  0.073626  -0.007525  0  3.945684  0
C  C34  1  0.35114050  0.74480526  0.04874097  1  0  -0.216365  0  3.718027  0  0  -0.252365  0  3.984566  0  0  -0.253512  0  4.002964  0  0  -0.098976  -0.251056  0  3.971711  0
C  C35  1  0.64887044  0.25518763  0.95126068  1  0  -0.216465  0  3.718036  0  0  -0.252553  0  3.984554  0  0  -0.253705  0  4.002957  0  0  -0.099071  -0.251242  0  3.971687  0
C  C36  1  0.30980529  0.44972028  0.45782238  1  0  -0.068688  0  3.547048  0  0  -0.114724  0  3.794277  0  0  -0.113629  0  3.796363  0  0  -0.060199  -0.116236  0  3.792936  0
C  C37  1  0.69017570  0.55027528  0.54217722  1  0  -0.069071  0  3.547466  0  0  -0.115103  0  3.794665  0  0  -0.114022  0  3.796748  0  0  -0.060284  -0.116596  0  3.793318  0
C  C38  1  0.19105484  0.65409790  0.47999297  1  0  0.666637  0  3.817389  0  0  0.617606  0  4.129226  0  0  0.652113  0  4.12253  0  0  0.217696  0.594151  0  4.133883  0
C  C39  1  0.80891999  0.34589635  0.52000939  1  0  0.666809  0  3.817445  0  0  0.617857  0  4.129085  0  0  0.652376  0  4.122375  0  0  0.217766  0.594418  0  4.133711  0
N  N40  1  0.59376827  0.67092062  0.17987677  1  0  0.521476  0  3.870363  0  0  0.544424  0  4.176481  0  0  0.567882  0  4.180072  0  0  0.053408  0.528421  0  4.174147  0
N  N41  1  0.40623778  0.32908224  0.82012829  1  0  0.52151  0  3.870409  0  0  0.544486  0  4.176503  0  0  0.567943  0  4.180095  0  0  0.053459  0.528476  0  4.174175  0
O  O42  1  0.22135261  0.98825207  0.61151301  1  0  -0.609147  0  2.100747  0  0  -0.559096  0  2.36145  0  0  -0.587536  0  2.347121  0  0  -0.307064  -0.540125  0  2.371367  0
O  O43  1  0.77865301  0.01173460  0.38847518  1  0  -0.608852  0  2.100972  0  0  -0.558882  0  2.361552  0  0  -0.587316  0  2.347234  0  0  -0.306948  -0.540017  0  2.371609  0
O  O44  1  0.96276208  0.92515708  0.71033283  1  0  -0.523613  0  2.064868  0  0  -0.486805  0  2.329238  0  0  -0.513247  0  2.316478  0  0  -0.290757  -0.470445  0  2.338997  0
O  O45  1  0.03725355  0.07484906  0.28968208  1  0  -0.523631  0  2.064736  0  0  -0.486823  0  2.328873  0  0  -0.513291  0  2.316134  0  0  -0.290929  -0.47037  0  2.338452  0
O  O46  1  0.10172359  0.81397612  0.92236602  1  0  -0.239483  0  2.339878  0  0  -0.175492  0  2.573768  0  0  -0.192244  0  2.577448  0  0  -0.173918  -0.161918  0  2.570082  0
O  O47  1  0.89828330  0.18604212  0.07763731  1  0  -0.239569  0  2.339789  0  0  -0.175507  0  2.573617  0  0  -0.192264  0  2.577296  0  0  -0.173894  -0.161919  0  2.569897  0
O  O48  1  0.44495303  0.43570303  0.34530534  1  0  -0.241106  0  2.36236  0  0  -0.188295  0  2.604643  0  0  -0.206885  0  2.610562  0  0  -0.175548  -0.173327  0  2.59893  0
O  O49  1  0.55504417  0.56430529  0.65469637  1  0  -0.241117  0  2.362424  0  0  -0.188167  0  2.604582  0  0  -0.206755  0  2.610497  0  0  -0.175569  -0.173216  0  2.598887  0
O  O50  1  0.01885509  0.69856581  0.53970628  1  0  -0.559956  0  2.101973  0  0  -0.516222  0  2.374936  0  0  -0.54446  0  2.362314  0  0  -0.295745  -0.497997  0  2.383877  0
O  O51  1  0.98111561  0.30143416  0.46029833  1  0  -0.560137  0  2.101913  0  0  -0.516439  0  2.374868  0  0  -0.544695  0  2.36223  0  0  -0.295902  -0.498113  0  2.383642  0
O  O52  1  0.27525909  0.75979048  0.43456017  1  0  -0.579447  0  2.139909  0  0  -0.54632  0  2.427319  0  0  -0.573673  0  2.414895  0  0  -0.306233  -0.528937  0  2.436115  0
O  O53  1  0.72472388  0.24020538  0.56544626  1  0  -0.579406  0  2.140238  0  0  -0.546319  0  2.427646  0  0  -0.573629  0  2.415139  0  0  -0.306169  -0.529051  0  2.436599  0
O  O54  1  0.72518345  0.54026759  0.23447142  1  0  -0.322279  0  1.755547  0  0  -0.302623  0  1.963727  0  0  -0.31027  0  1.958258  0  0  -0.10417  -0.297423  0  1.967649  0
O  O55  1  0.27481327  0.45973253  0.76553526  1  0  -0.322287  0  1.755327  0  0  -0.302672  0  1.963518  0  0  -0.310312  0  1.958043  0  0  -0.104225  -0.297465  0  1.967434  0
O  O56  1  0.59037939  0.82988101  0.14357800  1  0  -0.417022  0  1.753245  0  0  -0.388566  0  1.959852  0  0  -0.401131  0  1.951579  0  0  -0.148539  -0.380084  0  1.965696  0
O  O57  1  0.40963030  0.17011639  0.85643018  1  0  -0.417086  0  1.753274  0  0  -0.388663  0  1.95993  0  0  -0.401232  0  1.95166  0  0  -0.14861  -0.380191  0  1.965774  0
O  O58  1  0.41830663  0.05749647  0.33765461  1  0  -0.810698  0  1.87079  0  0  -0.76465  0  2.047074  0  0  -0.782917  0  2.013812  0  0  -0.590515  -0.751566  0  2.070664  0
O  O59  1  0.58167705  0.94249625  0.66234423  1  0  -0.810691  0  1.870586  0  0  -0.764607  0  2.047036  0  0  -0.78291  0  2.01374  0  0  -0.590545  -0.751543  0  2.070595  0
