# generated using pymatgen
data_Al3H7(C9O7)2
_symmetry_space_group_name_H-M   'P 1'
_cell_length_a   11.75410616
_cell_length_b   12.47833251
_cell_length_c   19.31882424
_cell_angle_alpha   90.47125792
_cell_angle_beta   90.35475533
_cell_angle_gamma   57.83881222
_symmetry_Int_Tables_number   1
_chemical_formula_structural   Al3H7(C9O7)2
_chemical_formula_sum   'Al6 H14 C36 O28'
_cell_volume   2398.64404558
_cell_formula_units_Z   2
loop_
 _symmetry_equiv_pos_site_id
 _symmetry_equiv_pos_as_xyz
  1  'x, y, z'
loop_
 _atom_site_type_symbol
 _atom_site_label
 _atom_site_symmetry_multiplicity
 _atom_site_fract_x
 _atom_site_fract_y
 _atom_site_fract_z
 _atom_site_occupancy
 _atom_site_pbe_bader_charge
 _atom_site_pbe_bader_spin_density
 _atom_site_pbe_cm5_charge
 _atom_site_pbe_ddec_charge
 _atom_site_pbe_ddec_spin_density
 _atom_site_pbe_ddec_sum_bond_order
 _atom_site_pbe_magmom
Al  Al0  1  0.46211822  0.77735784  0.50287594  1  2.490157  0  0.397755  1.683272  0  2.559341  0
Al  Al1  1  0.74228233  0.51072604  0.50455261  1  2.480607  0  0.506849  1.659366  0  2.512308  0
Al  Al2  1  0.75054202  0.74740364  0.50789324  1  2.477374  0  0.508496  1.659671  0  2.511816  0
Al  Al3  1  0.54174353  0.24264873  0.02487052  1  2.493635  0  0.39898  1.682299  0  2.554406  0
Al  Al4  1  0.24894126  0.49650182  0.02602914  1  2.479867  0  0.507604  1.662433  0  2.5088  0
Al  Al5  1  0.26753464  0.24702659  0.02931976  1  2.483121  0  0.505987  1.659432  0  2.514494  0
H  H6  1  0.95445246  0.36521071  0.32788003  1  0.124798  0  0.121774  0.120994  0  0.965853  0
H  H7  1  0.08270071  0.29908578  0.21686082  1  0.092319  0  0.120353  0.118978  0  0.967545  0
H  H8  1  0.64608635  0.08402709  0.22298658  1  0.114075  0  0.11831  0.117966  0  0.970546  0
H  H9  1  0.27674129  0.63563820  0.21649563  1  0.099546  0  0.116263  0.114218  0  0.97506  0
H  H10  1  0.71290426  0.95504544  0.33188119  1  0.112425  0  0.116205  0.114899  0  0.97244  0
H  H11  1  0.34442083  0.69504861  0.32708787  1  0.135421  0  0.12476  0.128058  0  0.960974  0
H  H12  1  0.98316819  0.58224430  0.20328841  1  0.146726  0  0.118252  0.137497  0  0.978674  0
H  H13  1  0.44320897  0.00052376  0.20613646  1  0.073526  0  0.112869  0.130265  0  0.98735  0
H  H14  1  0.58217524  0.45238691  0.19753395  1  0.059516  0  0.114249  0.133373  0  0.982337  0
H  H15  1  0.01382014  0.57822025  0.32857482  1  0.086443  0  0.117603  0.137896  0  0.977263  0
H  H16  1  0.42515967  0.00754785  0.32474534  1  0.099466  0  0.115273  0.132971  0  0.982926  0
H  H17  1  0.59202811  0.42255437  0.31993549  1  0.095318  0  0.112219  0.129531  0  0.988454  0
H  H18  1  0.23983859  0.89309729  0.54318830  1  0.597156  0  0.297133  0.391321  0  0.910309  0
H  H19  1  0.76020630  0.19622911  0.04623797  1  0.580267  0  0.291465  0.379471  0  0.928515  0
C  C20  1  0.56211621  0.89849829  0.60555288  1  1.649887  0  0.280224  0.698394  0  4.170659  0
C  C21  1  0.43854797  0.47430043  0.11868089  1  1.53669  0  0.264556  0.678146  0  4.109479  0
C  C22  1  0.09731880  0.44405440  0.12207630  1  1.55462  0  0.271477  0.683759  0  4.09978  0
C  C23  1  0.46831241  0.11160661  0.12793663  1  1.527086  0  0.262137  0.672932  0  4.112481  0
C  C24  1  0.55838967  0.90332306  0.40982049  1  1.527955  0  0.264187  0.669858  0  4.120147  0
C  C25  1  0.55329527  0.55185682  0.40657848  1  1.565755  0  0.264654  0.668626  0  4.117529  0
C  C26  1  0.91138635  0.54967069  0.41356870  1  1.547587  0  0.271799  0.682973  0  4.102136  0
C  C27  1  0.04305701  0.46587130  0.86355565  1  0.109352  0  0.010164  -0.13277  0  3.811524  0
C  C28  1  0.48665042  0.04340200  0.86462178  1  0.046469  0  0.00656  -0.135495  0  3.830254  0
C  C29  1  0.45197806  0.49262310  0.85637271  1  0.246429  0  0.003796  -0.136801  0  3.831888  0
C  C30  1  0.98495987  0.49445531  0.73370973  1  -0.240638  0  0.014776  0.053795  0  4.188969  0
C  C31  1  0.54439745  0.56364531  0.60211793  1  1.686027  0  0.279421  0.701539  0  4.17357  0
C  C32  1  0.52202450  0.97952516  0.73595586  1  -0.313307  0  0.003737  0.041238  0  4.214035  0
C  C33  1  0.49539091  0.52094615  0.72953619  1  -0.311796  0  0.002724  0.041811  0  4.21977  0
C  C34  1  0.01536209  0.47882578  0.80181233  1  -0.113011  0  0.01526  0.053363  0  4.187401  0
C  C35  1  0.50382940  0.01270780  0.80347727  1  -0.110093  0  0.006451  0.044384  0  4.210545  0
C  C36  1  0.47230398  0.50617062  0.79598886  1  -0.285237  0  0.002628  0.040386  0  4.216142  0
C  C37  1  0.95736087  0.51018997  0.67198637  1  0.16218  0  0.009624  -0.134787  0  3.814787  0
C  C38  1  0.53817578  0.95003837  0.67462909  1  0.272028  0  0.003546  -0.138313  0  3.832339  0
C  C39  1  0.51790173  0.53308158  0.66930393  1  0.160919  0  0.001215  -0.143026  0  3.839191  0
C  C40  1  0.97854154  0.51773240  0.34575041  1  -0.024425  0  -0.07838  -0.235078  0  3.867534  0
C  C41  1  0.52618035  0.97298456  0.34428766  1  -0.061729  0  -0.081513  -0.230964  0  3.885986  0
C  C42  1  0.90186480  0.54048016  0.60326873  1  1.661378  0  0.289009  0.708841  0  4.158818  0
C  C43  1  0.52161523  0.51812982  0.33906481  1  -0.014075  0  -0.084366  -0.238108  0  3.884472  0
C  C44  1  0.03087466  0.48220859  0.19004285  1  -0.093996  0  -0.078423  -0.234378  0  3.869559  0
C  C45  1  0.49951141  0.04494507  0.19452905  1  -0.019839  0  -0.08364  -0.235126  0  3.879377  0
C  C46  1  0.47488469  0.50435829  0.18588682  1  -0.016107  0  -0.081836  -0.233954  0  3.881586  0
C  C47  1  0.03756124  0.39674154  0.23511239  1  -0.009018  0  -0.057003  -0.01234  0  3.957351  0
C  C48  1  0.58883486  0.04279017  0.23976764  1  -0.048811  0  -0.062541  -0.01771  0  3.966742  0
C  C49  1  0.38215476  0.58292153  0.23258541  1  -0.000237  0  -0.062403  -0.01912  0  3.978887  0
C  C50  1  0.98680002  0.42490743  0.30540575  1  -0.05341  0  -0.054947  -0.009098  0  3.953815  0
C  C51  1  0.61532209  0.98690380  0.30808137  1  0.003  0  -0.064179  -0.023444  0  3.978608  0
C  C52  1  0.41350207  0.60393593  0.30208294  1  -0.100773  0  -0.058497  -0.015368  0  3.961738  0
C  C53  1  0.43398339  0.45680704  0.92408012  1  1.708388  0  0.279191  0.69508  0  4.175125  0
C  C54  1  0.09930873  0.44434913  0.93204868  1  1.660185  0  0.288748  0.70726  0  4.160849  0
C  C55  1  0.45778723  0.09899559  0.93275446  1  1.651825  0  0.285381  0.693308  0  4.175304  0
O  O56  1  0.46402888  0.67505153  0.58123444  1  -1.211597  0  -0.205307  -0.553944  0  2.29928  0
O  O57  1  0.66847291  0.87341396  0.44165972  1  -1.272282  0  -0.249955  -0.622363  0  2.274857  0
O  O58  1  0.47538352  0.87432433  0.42909908  1  -1.225865  0  -0.213158  -0.554405  0  2.312425  0
O  O59  1  0.66868865  0.46775806  0.43300782  1  -1.272544  0  -0.251366  -0.615468  0  2.238042  0
O  O60  1  0.88306638  0.65582964  0.44016827  1  -1.252235  0  -0.233962  -0.593629  0  2.255436  0
O  O61  1  0.65422279  0.67734273  0.50639940  1  -1.610971  0  -0.391508  -1.271304  0  2.293253  0
O  O62  1  0.54230552  0.11885671  0.96044973  1  -1.204166  0  -0.191831  -0.515137  0  2.266263  0
O  O63  1  0.33120083  0.54012468  0.95937295  1  -1.257887  0  -0.239189  -0.601388  0  2.231075  0
O  O64  1  0.12722676  0.34291310  0.96258038  1  -1.230672  0  -0.21851  -0.572193  0  2.246776  0
O  O65  1  0.51944846  0.34487283  0.94206948  1  -1.203671  0  -0.198916  -0.537311  0  2.290499  0
O  O66  1  0.12297785  0.52702855  0.95511417  1  -1.229598  0  -0.218337  -0.571868  0  2.239678  0
O  O67  1  0.87072957  0.46555201  0.57614512  1  -1.23619  0  -0.21919  -0.572651  0  2.241733  0
O  O68  1  0.34317959  0.12853730  0.95825106  1  -1.242589  0  -0.235013  -0.592423  0  2.229957  0
O  O69  1  0.53846335  0.15471945  0.10801325  1  -1.246362  0  -0.218768  -0.574781  0  2.338307  0
O  O70  1  0.31608772  0.54667141  0.09724347  1  -1.274972  0  -0.248292  -0.616616  0  2.265481  0
O  O71  1  0.13924185  0.33203762  0.09947393  1  -1.267227  0  -0.235367  -0.604547  0  2.284376  0
O  O72  1  0.52919952  0.37577404  0.08769702  1  -1.238587  0  -0.221713  -0.585299  0  2.302386  0
O  O73  1  0.11422337  0.52507362  0.09133230  1  -1.247227  0  -0.230994  -0.592415  0  2.264261  0
O  O74  1  0.36559575  0.12354055  0.09506630  1  -1.270059  0  -0.253826  -0.623929  0  2.248207  0
O  O75  1  0.67736016  0.86507379  0.57926651  1  -1.241584  0  -0.236776  -0.593729  0  2.228425  0
O  O76  1  0.35012432  0.33012274  0.02596689  1  -1.613491  0  -0.391512  -1.273541  0  2.303426  0
O  O77  1  0.47252514  0.88591725  0.57778711  1  -1.197145  0  -0.204345  -0.54894  0  2.276645  0
O  O78  1  0.64969018  0.47645438  0.57015261  1  -1.249409  0  -0.237698  -0.59806  0  2.234405  0
O  O79  1  0.88196031  0.64219447  0.57654004  1  -1.229325  0  -0.218202  -0.572684  0  2.246102  0
O  O80  1  0.47156929  0.65877908  0.43295179  1  -1.252495  0  -0.211706  -0.561493  0  2.33938  0
O  O81  1  0.87975303  0.47539326  0.43996278  1  -1.269695  0  -0.232331  -0.602236  0  2.298569  0
O  O82  1  0.28620780  0.86885032  0.49927042  1  -1.375667  0  -0.576006  -0.996526  0  1.787128  0
O  O83  1  0.71738790  0.15939927  0.02145125  1  -1.359505  0  -0.572161  -0.984837  0  1.796565  0
