# generated using pymatgen
data_NaH6C9SO3
_symmetry_space_group_name_H-M   'P 1'
_cell_length_a   5.78579520
_cell_length_b   8.41280163
_cell_length_c   17.19925809
_cell_angle_alpha   90.00048229
_cell_angle_beta   97.67087414
_cell_angle_gamma   89.99946462
_symmetry_Int_Tables_number   1
_chemical_formula_structural   NaH6C9SO3
_chemical_formula_sum   'Na4 H24 C36 S4 O12'
_cell_volume   829.67786402
_cell_formula_units_Z   4
loop_
 _symmetry_equiv_pos_site_id
 _symmetry_equiv_pos_as_xyz
  1  'x, y, z'
loop_
 _atom_site_type_symbol
 _atom_site_label
 _atom_site_symmetry_multiplicity
 _atom_site_fract_x
 _atom_site_fract_y
 _atom_site_fract_z
 _atom_site_occupancy
 _atom_site_hle17_bader_spin_density
 _atom_site_hle17_ddec_charge
 _atom_site_hle17_ddec_spin_density
 _atom_site_hle17_ddec_sum_bond_order
 _atom_site_hle17_magmom
 _atom_site_hse06_10hf_bader_spin_density
 _atom_site_hse06_10hf_ddec_charge
 _atom_site_hse06_10hf_ddec_spin_density
 _atom_site_hse06_10hf_ddec_sum_bond_order
 _atom_site_hse06_10hf_magmom
 _atom_site_hse06_bader_spin_density
 _atom_site_hse06_ddec_charge
 _atom_site_hse06_ddec_spin_density
 _atom_site_hse06_ddec_sum_bond_order
 _atom_site_hse06_magmom
 _atom_site_pbe_bader_spin_density
 _atom_site_pbe_cm5_charge
 _atom_site_pbe_ddec_charge
 _atom_site_pbe_ddec_spin_density
 _atom_site_pbe_ddec_sum_bond_order
 _atom_site_pbe_magmom
Na  Na0  1  0.12544666  0.18400634  0.98069510  1  0  0.91667  0  0.406809  0  0  0.885629  0  0.553357  0  0  0.89357  0  0.533998  0  0  0.763575  0.879577  0  0.567363  0
Na  Na1  1  0.37455272  0.68400170  0.01930573  1  0  0.916668  0  0.406761  0  0  0.885607  0  0.553327  0  0  0.893554  0  0.533966  0  0  0.763553  0.879562  0  0.567331  0
Na  Na2  1  0.87455082  0.81599763  0.01930571  1  0  0.916668  0  0.406769  0  0  0.885627  0  0.553315  0  0  0.893569  0  0.533956  0  0  0.76358  0.879578  0  0.56732  0
Na  Na3  1  0.62544793  0.31600346  0.98069342  1  0  0.916687  0  0.406791  0  0  0.885605  0  0.553376  0  0  0.893561  0  0.534006  0  0  0.763554  0.879561  0  0.567377  0
H  H4  1  0.51720149  0.14640076  0.61521439  1  0  0.088619  0  0.975461  0  0  0.099231  0  1.038542  0  0  0.101613  0  1.038663  0  0  0.097598  0.097529  0  1.038563  0
H  H5  1  0.98276384  0.64640536  0.38479023  1  0  0.088539  0  0.975516  0  0  0.09912  0  1.038632  0  0  0.101521  0  1.038731  0  0  0.097594  0.097421  0  1.03865  0
H  H6  1  0.48280705  0.85359965  0.38479019  1  0  0.088653  0  0.975401  0  0  0.099213  0  1.038545  0  0  0.101626  0  1.038633  0  0  0.097614  0.097511  0  1.038565  0
H  H7  1  0.01724265  0.35358197  0.61521255  1  0  0.088565  0  0.975498  0  0  0.09912  0  1.038653  0  0  0.101533  0  1.038739  0  0  0.097579  0.09742  0  1.038671  0
H  H8  1  0.20061680  0.83788249  0.60835272  1  0  0.086512  0  0.980724  0  0  0.096661  0  1.044616  0  0  0.099047  0  1.044449  0  0  0.09792  0.094989  0  1.044738  0
H  H9  1  0.29933681  0.33790293  0.39164462  1  0  0.086556  0  0.980774  0  0  0.096694  0  1.044674  0  0  0.099056  0  1.044583  0  0  0.097899  0.095021  0  1.044798  0
H  H10  1  0.79937536  0.16210365  0.39164737  1  0  0.086584  0  0.98074  0  0  0.096717  0  1.044626  0  0  0.099105  0  1.044452  0  0  0.097941  0.095043  0  1.04475  0
H  H11  1  0.70066395  0.66209272  0.60835511  1  0  0.086577  0  0.9808  0  0  0.09673  0  1.044671  0  0  0.099098  0  1.044558  0  0  0.097931  0.095056  0  1.044794  0
H  H12  1  0.65161421  0.16147169  0.51555362  1  0  0.087384  0  0.984379  0  0  0.097186  0  1.049196  0  0  0.099538  0  1.049266  0  0  0.096442  0.095518  0  1.049196  0
H  H13  1  0.84838567  0.66147183  0.48444146  1  0  0.087422  0  0.98429  0  0  0.097207  0  1.049124  0  0  0.099558  0  1.049196  0  0  0.096456  0.095534  0  1.049136  0
H  H14  1  0.34838337  0.83851802  0.48444778  1  0  0.087432  0  0.98429  0  0  0.097203  0  1.049136  0  0  0.099549  0  1.049219  0  0  0.096443  0.095531  0  1.049149  0
H  H15  1  0.15160802  0.33853689  0.51555751  1  0  0.087472  0  0.984292  0  0  0.097268  0  1.049104  0  0  0.09962  0  1.049174  0  0  0.09646  0.095594  0  1.049122  0
H  H16  1  0.10253706  0.85235214  0.71024874  1  0  0.08782  0  0.982603  0  0  0.097675  0  1.047162  0  0  0.099727  0  1.048027  0  0  0.09831  0.096171  0  1.046747  0
H  H17  1  0.39745726  0.35235110  0.28974445  1  0  0.087887  0  0.982717  0  0  0.097732  0  1.047261  0  0  0.099785  0  1.048123  0  0  0.098299  0.096227  0  1.046849  0
H  H18  1  0.89748275  0.14764707  0.28975089  1  0  0.087964  0  0.982601  0  0  0.097803  0  1.047162  0  0  0.099854  0  1.048026  0  0  0.098332  0.096297  0  1.046751  0
H  H19  1  0.60253204  0.64766475  0.71024917  1  0  0.087947  0  0.982639  0  0  0.097778  0  1.047212  0  0  0.099831  0  1.048075  0  0  0.09828  0.096273  0  1.0468  0
H  H20  1  0.37918048  0.14757677  0.74451911  1  0  0.108757  0  0.954546  0  0  0.1171  0  1.017214  0  0  0.119705  0  1.016965  0  0  0.107157  0.115228  0  1.01743  0
H  H21  1  0.12079627  0.64757921  0.25548858  1  0  0.108633  0  0.954696  0  0  0.116974  0  1.017352  0  0  0.119578  0  1.017106  0  0  0.107123  0.115105  0  1.017569  0
H  H22  1  0.62083656  0.85241532  0.25548453  1  0  0.108696  0  0.954487  0  0  0.117063  0  1.017133  0  0  0.119668  0  1.016885  0  0  0.107152  0.11519  0  1.017349  0
H  H23  1  0.87919465  0.35241407  0.74451440  1  0  0.10867  0  0.954669  0  0  0.117024  0  1.017319  0  0  0.119628  0  1.017074  0  0  0.107126  0.115156  0  1.01754  0
H  H24  1  0.96108986  0.85245373  0.83706600  1  0  0.122924  0  0.975033  0  0  0.131797  0  1.034948  0  0  0.135575  0  1.032281  0  0  0.115785  0.129016  0  1.036999  0
H  H25  1  0.53892722  0.35244817  0.16293141  1  0  0.122869  0  0.975005  0  0  0.131802  0  1.034868  0  0  0.135583  0  1.032196  0  0  0.115758  0.129018  0  1.036925  0
H  H26  1  0.03892770  0.14755143  0.16293067  1  0  0.122896  0  0.974982  0  0  0.131778  0  1.034896  0  0  0.135557  0  1.032229  0  0  0.115767  0.128994  0  1.036951  0
H  H27  1  0.46107169  0.64757245  0.83706769  1  0  0.122841  0  0.974973  0  0  0.131747  0  1.034857  0  0  0.135523  0  1.032197  0  0  0.115755  0.128963  0  1.03691  0
C  C28  1  0.82204897  0.99908625  0.65102815  1  0  0.050582  0  3.771619  0  0  0.063728  0  4.002979  0  0  0.065676  0  4.025985  0  0  -0.006072  0.062525  0  3.987298  0
C  C29  1  0.67793061  0.49909013  0.34897294  1  0  0.050239  0  3.771867  0  0  0.063373  0  4.003168  0  0  0.06532  0  4.026166  0  0  -0.006233  0.062172  0  3.987487  0
C  C30  1  0.17795752  0.00090941  0.34897463  1  0  0.050421  0  3.771837  0  0  0.063681  0  4.003042  0  0  0.065633  0  4.026038  0  0  -0.006168  0.062478  0  3.98736  0
C  C31  1  0.32205571  0.50091622  0.65102351  1  0  0.050205  0  3.7718  0  0  0.063445  0  4.003005  0  0  0.065398  0  4.026004  0  0  -0.006199  0.062242  0  3.987323  0
C  C32  1  0.91178189  0.99968435  0.57429768  1  0  0.043001  0  3.776505  0  0  0.057901  0  4.007017  0  0  0.057885  0  4.030018  0  0  -0.009415  0.05791  0  3.991335  0
C  C33  1  0.58819502  0.49968901  0.42569810  1  0  0.042803  0  3.776715  0  0  0.057828  0  4.007025  0  0  0.057811  0  4.03002  0  0  -0.00948  0.057835  0  3.991344  0
C  C34  1  0.08821323  0.00030892  0.42569957  1  0  0.042912  0  3.776488  0  0  0.057767  0  4.007003  0  0  0.057749  0  4.029999  0  0  -0.009406  0.057776  0  3.99132  0
C  C35  1  0.41179990  0.50031140  0.57429799  1  0  0.042898  0  3.776631  0  0  0.057841  0  4.007012  0  0  0.057822  0  4.030009  0  0  -0.009478  0.057852  0  3.991328  0
C  C36  1  0.61698560  0.08101477  0.66306472  1  0  -0.112669  0  3.714506  0  0  -0.129101  0  3.962087  0  0  -0.133736  0  3.983566  0  0  -0.088302  -0.126025  0  3.947513  0
C  C37  1  0.88298180  0.58102754  0.33693738  1  0  -0.112387  0  3.714472  0  0  -0.128793  0  3.962047  0  0  -0.133439  0  3.983507  0  0  -0.088201  -0.125716  0  3.947472  0
C  C38  1  0.38300921  0.91897969  0.33694068  1  0  -0.11279  0  3.714354  0  0  -0.129219  0  3.961934  0  0  -0.133882  0  3.983396  0  0  -0.088388  -0.126142  0  3.947358  0
C  C39  1  0.11701497  0.41898000  0.66305934  1  0  -0.112332  0  3.714321  0  0  -0.128755  0  3.961889  0  0  -0.133417  0  3.983352  0  0  -0.088208  -0.125677  0  3.947314  0
C  C40  1  0.10983847  0.91067978  0.56163292  1  0  -0.104208  0  3.744504  0  0  -0.121647  0  3.99034  0  0  -0.123906  0  4.011061  0  0  -0.089786  -0.120038  0  3.976217  0
C  C41  1  0.39012795  0.41070279  0.43836327  1  0  -0.104126  0  3.744436  0  0  -0.121607  0  3.990246  0  0  -0.123877  0  4.010958  0  0  -0.089712  -0.119995  0  3.976123  0
C  C42  1  0.89015349  0.08930755  0.43836600  1  0  -0.104265  0  3.744506  0  0  -0.12168  0  3.990331  0  0  -0.123939  0  4.01105  0  0  -0.089831  -0.12007  0  3.976209  0
C  C43  1  0.60986769  0.58929880  0.56163691  1  0  -0.104243  0  3.744509  0  0  -0.121725  0  3.990337  0  0  -0.123993  0  4.011053  0  0  -0.089756  -0.120113  0  3.976213  0
C  C44  1  0.80482371  0.08911353  0.51019291  1  0  -0.113136  0  3.748762  0  0  -0.131449  0  3.997117  0  0  -0.133636  0  4.017258  0  0  -0.092778  -0.129893  0  3.98342  0
C  C45  1  0.69518497  0.58910769  0.48980794  1  0  -0.113052  0  3.748445  0  0  -0.131382  0  3.99678  0  0  -0.133568  0  4.01692  0  0  -0.092781  -0.129828  0  3.983084  0
C  C46  1  0.19516302  0.91087023  0.48980589  1  0  -0.113095  0  3.748584  0  0  -0.131377  0  3.996973  0  0  -0.133566  0  4.017117  0  0  -0.092746  -0.129825  0  3.983276  0
C  C47  1  0.30481609  0.41088558  0.51019354  1  0  -0.113194  0  3.748497  0  0  -0.131528  0  3.996874  0  0  -0.133714  0  4.017012  0  0  -0.092794  -0.129975  0  3.983177  0
C  C48  1  0.94217516  0.91679515  0.71558723  1  0  -0.110293  0  3.71981  0  0  -0.127685  0  3.97034  0  0  -0.131946  0  3.990896  0  0  -0.087213  -0.124885  0  3.956449  0
C  C49  1  0.55781006  0.41679515  0.28441078  1  0  -0.110233  0  3.719746  0  0  -0.127613  0  3.970271  0  0  -0.131872  0  3.990818  0  0  -0.087151  -0.124814  0  3.956384  0
C  C50  1  0.05784147  0.08320288  0.28441407  1  0  -0.110398  0  3.719858  0  0  -0.12781  0  3.970344  0  0  -0.132073  0  3.990893  0  0  -0.087232  -0.12501  0  3.956456  0
C  C51  1  0.44218824  0.58321833  0.71558482  1  0  -0.110311  0  3.719568  0  0  -0.127728  0  3.970074  0  0  -0.131991  0  3.990619  0  0  -0.087169  -0.124928  0  3.956185  0
C  C52  1  0.53619902  0.08196662  0.73600567  1  0  -0.057462  0  3.740515  0  0  -0.080709  0  3.986471  0  0  -0.079295  0  4.00643  0  0  -0.080329  -0.081446  0  3.972905  0
C  C53  1  0.96377379  0.58198112  0.26399773  1  0  -0.057283  0  3.740574  0  0  -0.080499  0  3.98653  0  0  -0.079079  0  4.006485  0  0  -0.080239  -0.081242  0  3.972968  0
C  C54  1  0.46380563  0.91802547  0.26399649  1  0  -0.057166  0  3.740214  0  0  -0.080422  0  3.986174  0  0  -0.079005  0  4.006144  0  0  -0.080155  -0.081157  0  3.972607  0
C  C55  1  0.03621683  0.41802404  0.73600349  1  0  -0.057338  0  3.740348  0  0  -0.080576  0  3.986295  0  0  -0.079158  0  4.006258  0  0  -0.080238  -0.081327  0  3.972742  0
C  C56  1  0.86392059  0.91688877  0.78843688  1  0  -0.048989  0  3.720225  0  0  -0.074068  0  3.965746  0  0  -0.072279  0  3.983865  0  0  -0.076739  -0.075113  0  3.953526  0
C  C57  1  0.63607877  0.41689171  0.21156265  1  0  -0.048959  0  3.720148  0  0  -0.074093  0  3.965701  0  0  -0.072306  0  3.983823  0  0  -0.076743  -0.075136  0  3.95348  0
C  C58  1  0.13609246  0.08310807  0.21156375  1  0  -0.048902  0  3.719943  0  0  -0.07397  0  3.965476  0  0  -0.07218  0  3.983598  0  0  -0.076694  -0.075015  0  3.953259  0
C  C59  1  0.36391431  0.58312652  0.78843280  1  0  -0.048895  0  3.719797  0  0  -0.073988  0  3.965349  0  0  -0.072196  0  3.983464  0  0  -0.076686  -0.075033  0  3.953131  0
C  C60  1  0.66012699  0.99909166  0.79854654  1  0  -0.114687  0  3.721247  0  0  -0.085439  0  3.959004  0  0  -0.093227  0  3.981059  0  0  -0.01166  -0.080445  0  3.944305  0
C  C61  1  0.83986549  0.49909898  0.20145895  1  0  -0.114687  0  3.721233  0  0  -0.085494  0  3.959091  0  0  -0.093288  0  3.981152  0  0  -0.011686  -0.080502  0  3.94439  0
C  C62  1  0.33988943  0.00089923  0.20145358  1  0  -0.114764  0  3.721205  0  0  -0.085556  0  3.959062  0  0  -0.093351  0  3.981118  0  0  -0.011703  -0.080567  0  3.944366  0
C  C63  1  0.16012052  0.50090856  0.79854565  1  0  -0.114766  0  3.721221  0  0  -0.085536  0  3.959013  0  0  -0.093329  0  3.981067  0  0  -0.011672  -0.08054  0  3.944315  0
S  S64  1  0.57178195  0.00123259  0.89360699  1  0  1.332571  0  5.670039  0  0  1.245606  0  6.183534  0  0  1.292407  0  6.157265  0  0  0.4901  1.21328  0  6.200803  0
S  S65  1  0.92821574  0.50123149  0.10639440  1  0  1.332567  0  5.670135  0  0  1.245607  0  6.18364  0  0  1.292408  0  6.15737  0  0  0.490072  1.213283  0  6.200911  0
S  S66  1  0.42822096  0.99876187  0.10639512  1  0  1.332466  0  5.670249  0  0  1.245493  0  6.183772  0  0  1.292299  0  6.157495  0  0  0.490071  1.213171  0  6.201041  0
S  S67  1  0.07178564  0.49877248  0.89359893  1  0  1.332737  0  5.669984  0  0  1.245777  0  6.183467  0  0  1.29258  0  6.157193  0  0  0.490152  1.213452  0  6.200737  0
O  O68  1  0.52034324  0.83722557  0.91529997  1  0  -0.723491  0  1.988767  0  0  -0.683304  0  2.252331  0  0  -0.702015  0  2.235552  0  0  -0.400609  -0.670018  0  2.263434  0
O  O69  1  0.97967862  0.33722512  0.08470391  1  0  -0.72349  0  1.988796  0  0  -0.683287  0  2.252355  0  0  -0.701998  0  2.235577  0  0  -0.400545  -0.669983  0  2.263416  0
O  O70  1  0.47967564  0.16277008  0.08470430  1  0  -0.723464  0  1.988683  0  0  -0.683272  0  2.252235  0  0  -0.701988  0  2.235457  0  0  -0.400591  -0.669965  0  2.263288  0
O  O71  1  0.02033566  0.66277885  0.91529384  1  0  -0.723536  0  1.988567  0  0  -0.68336  0  2.252144  0  0  -0.702071  0  2.235359  0  0  -0.400613  -0.670061  0  2.263221  0
O  O72  1  0.77716678  0.05982045  0.94686727  1  0  -0.821807  0  2.017166  0  0  -0.782037  0  2.292371  0  0  -0.799267  0  2.272606  0  0  -0.513273  -0.769744  0  2.305619  0
O  O73  1  0.72282678  0.55980793  0.05313425  1  0  -0.821852  0  2.017172  0  0  -0.782076  0  2.292372  0  0  -0.799305  0  2.272602  0  0  -0.513315  -0.769785  0  2.305621  0
O  O74  1  0.22282272  0.94019185  0.05313742  1  0  -0.821845  0  2.017114  0  0  -0.782081  0  2.292327  0  0  -0.799307  0  2.272551  0  0  -0.513333  -0.769789  0  2.305576  0
O  O75  1  0.27716661  0.44018653  0.94686297  1  0  -0.821889  0  2.017088  0  0  -0.782112  0  2.292285  0  0  -0.799343  0  2.272513  0  0  -0.51333  -0.769821  0  2.305535  0
O  O76  1  0.37383370  0.11072827  0.88989444  1  0  -0.718094  0  1.958953  0  0  -0.67706  0  2.213885  0  0  -0.695413  0  2.198243  0  0  -0.41072  -0.664126  0  2.224262  0
O  O77  1  0.12614879  0.61073287  0.11011383  1  0  -0.718075  0  1.959146  0  0  -0.677037  0  2.214075  0  0  -0.695391  0  2.198432  0  0  -0.410665  -0.664107  0  2.224453  0
O  O78  1  0.62614985  0.88926263  0.11010602  1  0  -0.717997  0  1.959164  0  0  -0.676957  0  2.214104  0  0  -0.69531  0  2.198459  0  0  -0.410662  -0.664026  0  2.224478  0
O  O79  1  0.87384367  0.38927823  0.88988802  1  0  -0.718145  0  1.959001  0  0  -0.677106  0  2.213929  0  0  -0.695462  0  2.198284  0  0  -0.410681  -0.664175  0  2.224308  0
