# generated using pymatgen
data_CuH4C6N4O3
_symmetry_space_group_name_H-M   'P 1'
_cell_length_a   6.38993577
_cell_length_b   8.00509202
_cell_length_c   17.00729697
_cell_angle_alpha   89.98606400
_cell_angle_beta   90.00767346
_cell_angle_gamma   89.97929380
_symmetry_Int_Tables_number   1
_chemical_formula_structural   CuH4C6N4O3
_chemical_formula_sum   'Cu4 H16 C24 N16 O12'
_cell_volume   869.95756991
_cell_formula_units_Z   4
loop_
 _symmetry_equiv_pos_site_id
 _symmetry_equiv_pos_as_xyz
  1  'x, y, z'
loop_
 _atom_site_type_symbol
 _atom_site_label
 _atom_site_symmetry_multiplicity
 _atom_site_fract_x
 _atom_site_fract_y
 _atom_site_fract_z
 _atom_site_occupancy
 _atom_site_hle17_ddec_charge
 _atom_site_hle17_ddec_spin_density
 _atom_site_hle17_ddec_sum_bond_order
 _atom_site_hle17_magmom
 _atom_site_hse06_10hf_ddec_charge
 _atom_site_hse06_10hf_ddec_spin_density
 _atom_site_hse06_10hf_ddec_sum_bond_order
 _atom_site_hse06_10hf_magmom
 _atom_site_hse06_ddec_charge
 _atom_site_hse06_ddec_spin_density
 _atom_site_hse06_ddec_sum_bond_order
 _atom_site_hse06_magmom
 _atom_site_pbe_cm5_charge
 _atom_site_pbe_ddec_charge
 _atom_site_pbe_ddec_spin_density
 _atom_site_pbe_ddec_sum_bond_order
 _atom_site_pbe_magmom
Cu  Cu0  1  1.00000000  0.00000375  1.00000000  1  0.908008  -0.6433  1.825162  -0.454  0.924854  -0.760604  2.219412  -0.598  1.024467  -0.85522  2.13967  -0.7  0.729411  0.866635  -0.68624  2.274181  -0.525
Cu  Cu1  1  0.00000678  0.49999797  0.49999862  1  0.907958  0.643477  1.825771  0.454  0.924737  0.760721  2.220229  0.598  1.024254  0.855292  2.140653  0.7  0.729453  0.866587  0.686386  2.274889  0.525
Cu  Cu2  1  0.50000191  0.99999729  0.00000169  1  0.908081  0.643261  1.824803  0.454  0.925006  0.760615  2.218992  0.598  1.024556  0.855256  2.139468  0.7  0.729465  0.86677  0.686251  2.273785  0.525
Cu  Cu3  1  0.50000713  0.49999901  0.49999972  1  0.907711  -0.64333  1.825256  -0.454  0.924502  -0.760625  2.219662  -0.598  1.024241  -0.855241  2.139801  -0.7  0.729266  0.866286  -0.686294  2.274444  -0.525
H  H4  1  0.91417298  0.15136368  0.23345281  1  0.116733  -0.000256  0.953316  0.0  0.124913  -0.000197  1.014292  0.0  0.128673  -0.000137  1.012054  0.0  0.112864  0.122105  -0.000248  1.01632  0.0
H  H5  1  0.08573544  0.65108262  0.26657312  1  0.116192  0.000255  0.954563  0.0  0.124746  0.000196  1.015112  0.0  0.128504  0.000137  1.012895  0.0  0.11284  0.121936  0.000247  1.017143  0.0
H  H6  1  0.41407927  0.84895202  0.76652777  1  0.116346  0.000254  0.953693  0.0  0.124636  0.000196  1.014588  0.0  0.128392  0.000137  1.012376  0.0  0.112745  0.121822  0.000248  1.016628  0.0
H  H7  1  0.58589994  0.34890249  0.73357394  1  0.116773  -0.000254  0.95374  0.0  0.125042  -0.000196  1.014615  0.0  0.128793  -0.000137  1.012419  0.0  0.113073  0.122234  -0.000247  1.016653  0.0
H  H8  1  0.08581936  0.84863059  0.76654898  1  0.116728  -0.000255  0.953333  0.0  0.124923  -0.000197  1.014298  0.0  0.128683  -0.000137  1.012053  0.0  0.112869  0.122117  -0.000248  1.016313  0.0
H  H9  1  0.91427725  0.34891539  0.73342398  1  0.116228  0.000255  0.954486  0.0  0.124821  0.000196  1.014984  0.0  0.128579  0.000137  1.012766  0.0  0.112864  0.122011  0.000247  1.017016  0.0
H  H10  1  0.58591307  0.15105974  0.23346814  1  0.116386  0.000254  0.953661  0.0  0.124681  0.000196  1.014529  0.0  0.128436  0.000137  1.012318  0.0  0.112748  0.12187  0.000248  1.016567  0.0
H  H11  1  0.41411588  0.65109552  0.26642492  1  0.116765  -0.000254  0.953738  0.0  0.125042  -0.000196  1.014588  0.0  0.128788  -0.000137  1.012398  0.0  0.113042  0.122233  -0.000247  1.016627  0.0
H  H12  1  0.92771314  0.23519375  0.37844077  1  0.110543  -0.000229  0.95625  0.0  0.119184  -0.000107  1.018225  0.0  0.122911  -7.2e-05  1.015239  0.0  0.126427  0.116486  -0.00013  1.020577  0.0
H  H13  1  0.07231835  0.73499328  0.12154993  1  0.110777  0.00023  0.95596  0.0  0.119279  0.000107  1.018017  0.0  0.122996  7.2e-05  1.01503  0.0  0.126365  0.116578  0.00013  1.020373  0.0
H  H14  1  0.42758791  0.76502201  0.62155014  1  0.110874  0.00023  0.955688  0.0  0.119544  0.000107  1.017611  0.0  0.123268  7.2e-05  1.014619  0.0  0.12649  0.116837  0.00013  1.019959  0.0
H  H15  1  0.57230111  0.26501683  0.87858856  1  0.110736  -0.000232  0.955568  0.0  0.119464  -0.000108  1.017479  0.0  0.123169  -7.2e-05  1.014496  0.0  0.126336  0.116729  -0.000131  1.019873  0.0
H  H16  1  0.07228077  0.76479802  0.62156279  1  0.110634  -0.00023  0.956232  0.0  0.119239  -0.000107  1.018234  0.0  0.122964  -7.2e-05  1.015248  0.0  0.126433  0.116538  -0.00013  1.020586  0.0
H  H17  1  0.92767713  0.26501098  0.87844834  1  0.110749  0.000229  0.95595  0.0  0.11928  0.000107  1.017977  0.0  0.122998  7.2e-05  1.014991  0.0  0.126365  0.116581  0.00013  1.020333  0.0
H  H18  1  0.57241069  0.23498975  0.37844754  1  0.110859  0.00023  0.955714  0.0  0.11954  0.000107  1.017632  0.0  0.123267  7.1e-05  1.01464  0.0  0.126468  0.116836  0.00013  1.019982  0.0
H  H19  1  0.42769594  0.73498993  0.12141088  1  0.110818  -0.000231  0.955483  0.0  0.119539  -0.000108  1.01739  0.0  0.123257  -7.2e-05  1.014396  0.0  0.126354  0.116809  -0.000131  1.019778  0.0
C  C20  1  0.25006441  0.14476931  0.22292096  1  -0.04054  -1.8e-05  3.745007  0.0  -0.029115  -1e-06  3.980289  0.0  -0.031916  -1e-06  3.996767  0.0  -0.011786  -0.026596  1e-06  3.968453  0.0
C  C21  1  0.74991653  0.64469651  0.27704324  1  -0.040287  4e-06  3.745027  0.0  -0.028912  -2e-06  3.98042  0.0  -0.03167  -2e-06  3.996832  0.0  -0.011826  -0.026398  -1e-06  3.968593  0.0
C  C22  1  0.74992637  0.85523371  0.77707848  1  -0.040501  -1.4e-05  3.74469  0.0  -0.02908  0.0  3.980014  0.0  -0.031878  -1e-06  3.996485  0.0  -0.011764  -0.026565  1e-06  3.968177  0.0
C  C23  1  0.25009460  0.35529776  0.72295444  1  -0.040318  6e-06  3.745076  0.0  -0.028942  0.0  3.98041  0.0  -0.0317  3e-06  3.996825  0.0  -0.011822  -0.02643  -1e-06  3.968582  0.0
C  C24  1  0.06230588  0.16915833  0.26377888  1  -0.086682  0.001319  3.73823  0.002  -0.107559  0.000892  3.988896  0.001  -0.109368  0.000628  4.005743  0.001  -0.071157  -0.106585  0.001087  3.97765  0.002
C  C25  1  0.93767971  0.66896526  0.23621545  1  -0.086236  -0.001305  3.739784  -0.002  -0.107597  -0.000889  3.990369  -0.001  -0.109417  -0.000626  4.007198  -0.001  -0.071283  -0.106623  -0.001085  3.979122  -0.002
C  C26  1  0.56220378  0.83101045  0.73622192  1  -0.086245  -0.001291  3.739385  -0.002  -0.107405  -0.000891  3.990122  -0.001  -0.109215  -0.000627  4.006963  -0.001  -0.071106  -0.106439  -0.001087  3.978881  -0.002
C  C27  1  0.43777340  0.33102312  0.76386201  1  -0.086579  0.001295  3.740251  0.002  -0.10773  0.000889  3.990866  0.001  -0.109552  0.000625  4.007699  0.001  -0.071242  -0.106764  0.001084  3.979623  0.002
C  C28  1  0.93769273  0.83083844  0.73622350  1  -0.086723  0.001314  3.738014  0.002  -0.107631  0.000891  3.988701  0.001  -0.109438  0.000628  4.005543  0.001  -0.071218  -0.10665  0.001087  3.977454  0.002
C  C29  1  0.06233142  0.33103150  0.76378341  1  -0.086384  -0.001308  3.739725  -0.002  -0.107769  -0.00089  3.990332  -0.001  -0.109591  -0.000628  4.007164  -0.001  -0.071327  -0.106797  -0.001085  3.979089  -0.002
C  C30  1  0.43778856  0.16899631  0.26377752  1  -0.086398  -0.001288  3.739376  -0.002  -0.107537  -0.000891  3.990097  -0.001  -0.109344  -0.000628  4.006937  -0.001  -0.071143  -0.106574  -0.001087  3.978857  -0.002
C  C31  1  0.56224086  0.66897614  0.23613685  1  -0.086548  0.001301  3.74042  0.002  -0.107694  0.000889  3.99106  0.001  -0.109514  0.000627  4.007893  0.001  -0.071157  -0.106729  0.001084  3.979818  0.002
C  C32  1  0.06472056  0.21567139  0.34177867  1  0.006347  -8.1e-05  3.592149  0.0  -0.033249  3e-06  3.848436  0.0  -0.027496  -1.4e-05  3.859312  0.0  0.034672  -0.036696  4.1e-05  3.841183  0.0
C  C33  1  0.93528751  0.71549423  0.15819146  1  0.006021  6.9e-05  3.591824  0.0  -0.033188  -3e-06  3.847849  0.0  -0.027409  1.6e-05  3.858712  0.0  0.035093  -0.036645  -3.9e-05  3.840609  0.0
C  C34  1  0.56463735  0.78445777  0.65820583  1  0.005894  5.2e-05  3.59186  0.0  -0.033487  -4e-06  3.847923  0.0  -0.027711  1.4e-05  3.858771  0.0  0.034803  -0.036929  -4.1e-05  3.840664  0.0
C  C35  1  0.43531422  0.28450755  0.84188054  1  0.006107  -6.1e-05  3.59179  0.0  -0.033281  1e-06  3.847702  0.0  -0.027475  -1.6e-05  3.858579  0.0  0.035107  -0.036714  3.8e-05  3.84048  0.0
C  C36  1  0.93528117  0.78432537  0.65822489  1  0.006275  -7.6e-05  3.592101  0.0  -0.03328  4e-06  3.848389  0.0  -0.027524  -1.3e-05  3.859264  0.0  0.034738  -0.036729  4.1e-05  3.841136  0.0
C  C37  1  0.06470953  0.28450629  0.84180681  1  0.006052  7.6e-05  3.59183  0.0  -0.033201  -4e-06  3.847902  0.0  -0.027423  1.4e-05  3.858769  0.0  0.035054  -0.036656  -3.9e-05  3.840663  0.0
C  C38  1  0.43535500  0.21554775  0.34179538  1  0.00595  4.7e-05  3.591986  0.0  -0.033476  -5e-06  3.848086  0.0  -0.027707  1.4e-05  3.85894  0.0  0.034785  -0.036916  -4.1e-05  3.840829  0.0
C  C39  1  0.56468595  0.71549297  0.15812008  1  0.005851  -6.9e-05  3.591893  0.0  -0.033556  1e-06  3.847861  0.0  -0.027761  -1.5e-05  3.858729  0.0  0.034978  -0.036994  3.7e-05  3.840635  0.0
C  C40  1  0.25003517  0.09122589  0.13895237  1  0.656155  0.0  3.852813  0.0  0.622789  -1e-06  4.133724  0.0  0.664126  -2e-06  4.123901  0.0  0.223008  0.59476  -1e-06  4.139487  0.0
C  C41  1  0.74992554  0.59124302  0.36105548  1  0.656092  4e-06  3.851412  0.0  0.622703  3e-06  4.132364  0.0  0.664041  3e-06  4.122533  0.0  0.223189  0.594664  2e-06  4.138146  0.0
C  C42  1  0.74996031  0.90877587  0.86105002  1  0.656053  1e-06  3.85276  0.0  0.622643  -1e-06  4.133673  0.0  0.663978  -2e-06  4.123855  0.0  0.222968  0.594622  -1e-06  4.139431  0.0
C  C43  1  0.25008558  0.40875249  0.63894338  1  0.655953  3e-06  3.851506  0.0  0.622706  2e-06  4.132306  0.0  0.664043  3e-06  4.12248  0.0  0.223274  0.594673  2e-06  4.138072  0.0
N  N44  1  0.25006725  0.24001575  0.38028675  1  0.300977  1e-05  3.7276  0.0  0.359669  1e-06  3.989073  0.0  0.362954  0.0  4.010952  0.0  -0.102477  0.356812  1e-06  3.974229  0.0
N  N45  1  0.75000804  0.73992259  0.11963590  1  0.301313  0.0  3.727057  0.0  0.35991  -0.0  3.988574  0.0  0.363186  -1e-06  4.010452  0.0  -0.102842  0.357061  -1e-06  3.973718  0.0
N  N46  1  0.74992823  0.75998102  0.61971505  1  0.300946  6e-06  3.727306  0.0  0.359669  1e-06  3.988755  0.0  0.362953  1e-06  4.010632  0.0  -0.102567  0.356812  1e-06  3.973909  0.0
N  N47  1  0.24998900  0.26007918  0.88036237  1  0.301151  -5e-06  3.727081  0.0  0.359741  -1e-06  3.988607  0.0  0.363016  -0.0  4.010483  0.0  -0.102956  0.356892  -1e-06  3.973752  0.0
N  N48  1  0.25005259  0.84130722  0.99872406  1  -0.564162  3.1e-05  2.842261  0.0  -0.627302  7e-06  3.234569  0.0  -0.689456  3e-06  3.250678  0.0  -0.36113  -0.591373  1.2e-05  3.228327  0.0
N  N49  1  0.75007932  0.34128326  0.50127956  1  -0.563448  -1.6e-05  2.843483  0.0  -0.626558  -7e-06  3.235627  0.0  -0.688714  -6e-06  3.251771  0.0  -0.361009  -0.590647  -3e-06  3.22936  0.0
N  N50  1  0.74993819  0.15869704  0.00127891  1  -0.564016  3.8e-05  2.842324  0.0  -0.62712  7e-06  3.234683  0.0  -0.689264  3e-06  3.250787  0.0  -0.361004  -0.591199  1.2e-05  3.228444  0.0
N  N51  1  0.24992555  0.65871226  0.49871929  1  -0.563716  -0.0  2.842915  0.0  -0.626773  -2e-06  3.235187  0.0  -0.68894  -1e-06  3.251332  0.0  -0.361042  -0.590851  1e-06  3.228911  0.0
N  N52  1  0.25004629  0.73652274  0.94651239  1  0.419667  -9e-06  4.101819  0.0  0.471342  -2e-06  4.413498  0.0  0.495291  -1e-06  4.44748  0.0  0.100158  0.456092  -5e-06  4.391885  0.0
N  N53  1  0.75011331  0.23639745  0.55345427  1  0.418742  1.4e-05  4.103603  0.0  0.470498  5e-06  4.415225  0.0  0.494443  6e-06  4.449258  0.0  0.099969  0.455249  3e-06  4.393579  0.0
N  N54  1  0.74993980  0.26347153  0.05348940  1  0.41961  -1.4e-05  4.101448  0.0  0.471214  -2e-06  4.413223  0.0  0.495165  -2e-06  4.447209  0.0  0.100051  0.455962  -4e-06  4.391605  0.0
N  N55  1  0.24989312  0.76360681  0.44654047  1  0.419139  8e-06  4.103371  0.0  0.470727  3e-06  4.41519  0.0  0.494673  4e-06  4.449212  0.0  0.100005  0.455481  2e-06  4.393549  0.0
N  N56  1  0.25003809  0.63618937  0.89767672  1  -0.25026  1.9e-05  2.337179  0.0  -0.279069  -4e-06  2.561804  0.0  -0.290662  -9e-06  2.574851  0.0  -0.125227  -0.272457  -0.0  2.55345  0.0
N  N57  1  0.75010551  0.13592740  0.60226258  1  -0.249938  -3.4e-05  2.337218  0.0  -0.278738  -1.6e-05  2.561674  0.0  -0.290355  -1.4e-05  2.574751  0.0  -0.125218  -0.272115  -1.3e-05  2.553298  0.0
N  N58  1  0.74994800  0.36381115  0.10233389  1  -0.250429  2.6e-05  2.336725  0.0  -0.27919  -2e-06  2.561395  0.0  -0.290793  -5e-06  2.574449  0.0  -0.12532  -0.27257  -0.0  2.553035  0.0
N  N59  1  0.24990092  0.86406562  0.39773745  1  -0.250037  -1.7e-05  2.337726  0.0  -0.278733  -9e-06  2.562265  0.0  -0.29034  -8e-06  2.575331  0.0  -0.125151  -0.272121  -7e-06  2.553906  0.0
O  O60  1  0.07110046  0.06989250  0.10744431  1  -0.593571  -0.064651  2.141791  -0.084  -0.559296  -0.047715  2.413745  -0.069  -0.600822  -0.038113  2.405302  -0.058  -0.312861  -0.532123  -0.05328  2.419767  -0.073
O  O61  1  0.92885933  0.56996728  0.39259016  1  -0.593609  0.064564  2.14248  0.084  -0.559304  0.047666  2.414498  0.068  -0.6008  0.038086  2.406069  0.058  -0.313108  -0.53215  0.053218  2.420526  0.073
O  O62  1  0.57106043  0.93006565  0.89255298  1  -0.593494  0.064601  2.142482  0.084  -0.559267  0.047699  2.414501  0.069  -0.600775  0.038102  2.406093  0.058  -0.312902  -0.5321  0.05326  2.420514  0.073
O  O63  1  0.42900361  0.43000439  0.60742790  1  -0.593183  -0.064595  2.141734  -0.084  -0.559178  -0.047691  2.414013  -0.068  -0.600723  -0.038102  2.405596  -0.058  -0.312803  -0.53202  -0.053247  2.420042  -0.073
O  O64  1  0.92889658  0.93012051  0.89255572  1  -0.593558  -0.064643  2.141877  -0.084  -0.559223  -0.04771  2.413792  -0.069  -0.600741  -0.03811  2.405339  -0.058  -0.312819  -0.532057  -0.053273  2.419823  -0.073
O  O65  1  0.07115336  0.43002574  0.60740575  1  -0.593537  0.064571  2.142396  0.084  -0.55933  0.047667  2.414453  0.068  -0.600826  0.038086  2.406028  0.058  -0.313223  -0.532178  0.053219  2.420473  0.073
O  O66  1  0.42893192  0.06992737  0.10745116  1  -0.593491  0.064597  2.142557  0.084  -0.559298  0.047696  2.414574  0.069  -0.600804  0.0381  2.406164  0.058  -0.312882  -0.532128  0.053257  2.420587  0.073
O  O67  1  0.57100752  0.56999487  0.39257154  1  -0.593443  -0.064592  2.141883  -0.084  -0.559213  -0.04769  2.414012  -0.068  -0.600757  -0.038102  2.40559  -0.058  -0.312849  -0.532054  -0.053247  2.420051  -0.073
O  O68  1  0.25006870  0.28390474  0.45409014  1  -0.536609  5e-06  1.804507  0.0  -0.53117  -2e-06  2.058262  0.0  -0.562647  -1e-06  2.055195  0.0  -0.231807  -0.510229  -2e-06  2.061101  0.0
O  O69  1  0.75004870  0.78386518  0.04582265  1  -0.536888  1e-06  1.804107  0.0  -0.531529  0.0  2.057986  0.0  -0.562996  -1e-06  2.054909  0.0  -0.231995  -0.510574  2e-06  2.060829  0.0
O  O70  1  0.74993147  0.71609203  0.54590872  1  -0.536582  3e-06  1.804288  0.0  -0.531191  -2e-06  2.058081  0.0  -0.562668  -3e-06  2.055008  0.0  -0.231808  -0.51025  -3e-06  2.060919  0.0
O  O71  1  0.24994052  0.21613783  0.95417562  1  -0.536785  -3e-06  1.804078  0.0  -0.531413  1e-06  2.057967  0.0  -0.562875  1e-06  2.054879  0.0  -0.231899  -0.510457  2e-06  2.06081  0.0
