# generated using pymatgen
data_ZnH7C7(NO)3
_symmetry_space_group_name_H-M   'P 1'
_cell_length_a   10.11961107
_cell_length_b   16.51544592
_cell_length_c   16.51577860
_cell_angle_alpha   115.93774358
_cell_angle_beta   101.80212278
_cell_angle_gamma   101.77908049
_symmetry_Int_Tables_number   1
_chemical_formula_structural   ZnH7C7(NO)3
_chemical_formula_sum   'Zn6 H42 C42 N18 O18'
_cell_volume   2290.62549846
_cell_formula_units_Z   6
loop_
 _symmetry_equiv_pos_site_id
 _symmetry_equiv_pos_as_xyz
  1  'x, y, z'
loop_
 _atom_site_type_symbol
 _atom_site_label
 _atom_site_symmetry_multiplicity
 _atom_site_fract_x
 _atom_site_fract_y
 _atom_site_fract_z
 _atom_site_occupancy
 _atom_site_pbe_bader_charge
 _atom_site_pbe_bader_spin_density
 _atom_site_pbe_cm5_charge
 _atom_site_pbe_ddec_charge
 _atom_site_pbe_ddec_spin_density
 _atom_site_pbe_ddec_sum_bond_order
 _atom_site_pbe_magmom
Zn  Zn0  1  0.52084662  0.69472710  0.31657233  1  1.259272  0  0.723633  0.755726  0  2.46481  0
Zn  Zn1  1  0.20454772  0.68336275  0.37832437  1  1.259029  0  0.722784  0.755768  0  2.465342  0
Zn  Zn2  1  0.82613399  0.62184047  0.30532619  1  1.26115  0  0.723339  0.755865  0  2.464919  0
Zn  Zn3  1  0.71084309  0.37778056  0.68114999  1  1.259782  0  0.721589  0.756966  0  2.465537  0
Zn  Zn4  1  0.02973859  0.31888050  0.69655913  1  1.258114  0  0.720884  0.756274  0  2.464233  0
Zn  Zn5  1  0.33311000  0.30337683  0.62217270  1  1.261982  0  0.721537  0.757256  0  2.465695  0
H  H6  1  0.63723233  0.34351551  0.37116167  1  0.485701  0  0.307933  0.283146  0  0.981434  0
H  H7  1  0.26578511  0.62884867  0.97244045  1  0.499822  0  0.30829  0.284258  0  0.979699  0
H  H8  1  0.29391371  0.02774922  0.65651630  1  0.52447  0  0.308653  0.28493  0  0.980498  0
H  H9  1  0.79969470  0.66462911  0.02506644  1  0.517871  0  0.302477  0.280374  0  1.008649  0
H  H10  1  0.77488125  0.97497561  0.63953189  1  0.500008  0  0.302855  0.279868  0  1.008674  0
H  H11  1  0.13506279  0.36034612  0.33509875  1  0.513073  0  0.302363  0.279134  0  1.008762  0
H  H12  1  0.36825180  0.21077951  0.34940842  1  0.083846  0  0.121679  0.08832  0  0.956888  0
H  H13  1  0.01866936  0.65074475  0.86145189  1  0.096005  0  0.121895  0.088355  0  0.957285  0
H  H14  1  0.15770731  0.13865652  0.78931065  1  0.099111  0  0.120368  0.089516  0  0.955041  0
H  H15  1  0.78631263  0.55994725  0.87982262  1  0.195287  0  0.118895  0.116511  0  1.062555  0
H  H16  1  0.90658064  0.12012859  0.67993457  1  0.179278  0  0.11843  0.115311  0  1.063204  0
H  H17  1  0.22634539  0.31971456  0.43994615  1  0.197196  0  0.118611  0.115928  0  1.061802  0
H  H18  1  0.72389508  0.44456760  0.32611059  1  0.188905  0  0.120848  0.118853  0  1.076583  0
H  H19  1  0.39758807  0.67417789  0.11853540  1  0.191633  0  0.120693  0.119141  0  1.077201  0
H  H20  1  0.27964078  0.88160795  0.55548478  1  0.185008  0  0.120422  0.117471  0  1.077571  0
H  H21  1  0.86515080  0.78972931  0.16773376  1  0.047794  0  0.127887  0.090495  0  0.924639  0
H  H22  1  0.69806263  0.83248376  0.62238796  1  0.073446  0  0.127154  0.088981  0  0.924475  0
H  H23  1  0.07485306  0.37773053  0.20984220  1  0.080431  0  0.12825  0.090617  0  0.924969  0
H  H24  1  0.32774112  0.46608579  0.82274576  1  0.138044  0  0.118256  0.11243  0  1.045039  0
H  H25  1  0.50500261  0.17714116  0.64314858  1  0.16301  0  0.118107  0.111549  0  1.046045  0
H  H26  1  0.86194496  0.35711141  0.53394715  1  0.144035  0  0.118806  0.113364  0  1.04446  0
H  H27  1  0.34085794  0.52242272  0.33942189  1  0.134083  0  0.117695  0.113616  0  1.043825  0
H  H28  1  0.00119572  0.66007014  0.18305630  1  0.132319  0  0.11771  0.113083  0  1.044273  0
H  H29  1  0.81868067  0.81690553  0.47752535  1  0.16175  0  0.11773  0.11269  0  1.044629  0
H  H30  1  0.53169583  0.13557041  0.27254350  1  0.052661  0  0.098494  0.136609  0  0.984227  0
H  H31  1  0.25915785  0.72749369  0.86321217  1  0.033766  0  0.098119  0.135496  0  0.984796  0
H  H32  1  0.39642340  0.13696982  0.86443167  1  0.041593  0  0.097951  0.13585  0  0.9845  0
H  H33  1  0.52832533  0.11676517  0.37065161  1  0.043573  0  0.098956  0.137744  0  0.984489  0
H  H34  1  0.15765326  0.62943811  0.74628642  1  0.030148  0  0.098976  0.137451  0  0.983151  0
H  H35  1  0.41186427  0.25389513  0.88330799  1  0.055219  0  0.099023  0.137639  0  0.98323  0
H  H36  1  0.67726935  0.20534673  0.38246167  1  0.024264  0  0.093061  0.130155  0  1.015895  0
H  H37  1  0.29462480  0.61752989  0.82311032  1  0.046229  0  0.092808  0.129196  0  1.017398  0
H  H38  1  0.47210004  0.17710712  0.79465030  1  0.050401  0  0.093664  0.130569  0  1.015322  0
H  H39  1  0.71150110  0.86386054  0.10791055  1  0.016428  0  0.091331  0.126367  0  0.995652  0
H  H40  1  0.60390103  0.89221215  0.75612492  1  0.022489  0  0.091276  0.126614  0  0.995371  0
H  H41  1  0.84689182  0.24395147  0.13604469  1  0.027123  0  0.091687  0.127657  0  0.994224  0
H  H42  1  0.71989556  0.89095903  0.22642779  1  0.055989  0  0.093895  0.132401  0  0.9934  0
H  H43  1  0.49383938  0.77366645  0.66471073  1  0.054217  0  0.093777  0.132511  0  0.993515  0
H  H44  1  0.82821161  0.33538467  0.10892875  1  0.050826  0  0.094155  0.133315  0  0.993787  0
H  H45  1  0.56397907  0.80492502  0.12792002  1  0.058882  0  0.09174  0.132658  0  1.025216  0
H  H46  1  0.43637766  0.87209517  0.67698880  1  0.061302  0  0.091926  0.133362  0  1.025472  0
H  H47  1  0.75867050  0.32312598  0.19514597  1  0.061861  0  0.091631  0.132985  0  1.026532  0
C  C48  1  0.48456981  0.24469545  0.38438918  1  0.380901  0  0.015176  0.06687  0  3.89084  0
C  C49  1  0.09988690  0.61566311  0.86036183  1  0.378389  0  0.014162  0.066549  0  3.891591  0
C  C50  1  0.24007419  0.13976324  0.75538312  1  0.369838  0  0.015439  0.066336  0  3.892064  0
C  C51  1  0.51435178  0.28696632  0.49244236  1  1.572976  0  0.234036  0.597822  0  4.08392  0
C  C52  1  0.02147232  0.50764916  0.79444050  1  1.54474  0  0.232269  0.594463  0  4.088996  0
C  C53  1  0.22756088  0.20565784  0.71322878  1  1.558215  0  0.23256  0.595588  0  4.089295  0
C  C54  1  0.67095600  0.52422535  0.85023473  1  0.376254  0  0.017406  -0.010303  0  3.946355  0
C  C55  1  0.82078262  0.14969484  0.67377024  1  0.422817  0  0.017468  -0.009744  0  3.947159  0
C  C56  1  0.14677868  0.32596131  0.47569930  1  0.385452  0  0.018133  -0.008193  0  3.945494  0
C  C57  1  0.57868080  0.62344086  0.98446796  1  1.39199  0  0.238366  0.50555  0  4.163432  0
C  C58  1  0.59439842  0.01548872  0.63892150  1  1.388268  0  0.237117  0.501749  0  4.16637  0
C  C59  1  0.95540302  0.36105531  0.37644960  1  1.380592  0  0.238089  0.503306  0  4.166238  0
C  C60  1  0.63947556  0.47611603  0.32661720  1  0.40931  0  0.018739  -0.011187  0  3.947503  0
C  C61  1  0.31270443  0.67351023  0.14958686  1  0.377406  0  0.018869  -0.012963  0  3.949447  0
C  C62  1  0.16364978  0.85052107  0.52395097  1  0.39139  0  0.019477  -0.008072  0  3.946083  0
C  C63  1  0.44329694  0.36818656  0.34865279  1  1.409731  0  0.236586  0.499218  0  4.177431  0
C  C64  1  0.09430890  0.65121544  0.01957786  1  1.358171  0  0.236498  0.498894  0  4.179416  0
C  C65  1  0.07531935  0.98052239  0.63179862  1  1.399829  0  0.23584  0.497446  0  4.180663  0
C  C66  1  0.74773866  0.75660645  0.14175265  1  0.380394  0  0.020099  0.079129  0  3.87074  0
C  C67  1  0.60649187  0.85830103  0.61504505  1  0.349801  0  0.020971  0.081588  0  3.867541  0
C  C68  1  0.99081228  0.38500347  0.24315553  1  0.371184  0  0.021373  0.084267  0  3.864689  0
C  C69  1  0.56461199  0.54648533  0.89027689  1  0.023894  0  -0.043626  -0.150723  0  4.06604  0
C  C70  1  0.67440081  0.10963186  0.65600804  1  -0.02529  0  -0.042295  -0.146835  0  4.063798  0
C  C71  1  0.01828594  0.34389393  0.45347058  1  0.023725  0  -0.043913  -0.151292  0  4.066139  0
C  C72  1  0.43610261  0.47588534  0.82042648  1  0.403981  0  0.020896  -0.000857  0  3.951045  0
C  C73  1  0.61569296  0.17946230  0.65526487  1  0.381949  0  0.019241  -0.003303  0  3.950624  0
C  C74  1  0.96040114  0.34480758  0.52410493  1  0.403402  0  0.02099  -0.000653  0  3.948991  0
C  C75  1  0.50545331  0.44840423  0.33609578  1  -0.04296  0  -0.045172  -0.150144  0  4.075945  0
C  C76  1  0.16907083  0.66375122  0.11236588  1  0.028496  0  -0.045293  -0.150069  0  4.075765  0
C  C77  1  0.05731153  0.88770651  0.55160940  1  0.025342  0  -0.045549  -0.151168  0  4.074264  0
C  C78  1  0.44365312  0.51629976  0.33301893  1  0.447447  0  0.019829  -0.001786  0  3.940205  0
C  C79  1  0.11042585  0.66666808  0.18330860  1  0.426642  0  0.020346  0.000881  0  3.939288  0
C  C80  1  0.92764437  0.81667958  0.48370383  1  0.370779  0  0.020518  0.000951  0  3.937672  0
C  C81  1  0.56047386  0.17104238  0.35053574  1  -0.049036  0  -0.234102  -0.400702  0  3.910996  0
C  C82  1  0.20983475  0.64951600  0.82068322  1  -0.03394  0  -0.233067  -0.397538  0  3.910207  0
C  C83  1  0.38968686  0.17950710  0.82899576  1  -0.069905  0  -0.2336  -0.399699  0  3.909444  0
C  C84  1  0.68083159  0.83374119  0.15154049  1  -0.053196  0  -0.245753  -0.408843  0  3.954434  0
C  C85  1  0.52966248  0.84853399  0.68233975  1  -0.06086  0  -0.245829  -0.410261  0  3.9535  0
C  C86  1  0.84651054  0.31774743  0.16616208  1  -0.068332  0  -0.247217  -0.413898  0  3.95411  0
C  C87  1  0.72141026  0.71318469  0.20551489  1  1.578353  0  0.234289  0.587575  0  4.093913  0
C  C88  1  0.51647023  0.79434169  0.50782986  1  1.598723  0  0.232778  0.584506  0  4.091116  0
C  C89  1  0.00803085  0.49220451  0.28657300  1  1.575197  0  0.234015  0.586045  0  4.09238  0
N  N90  1  0.53064358  0.31939882  0.36222260  1  -1.202682  0  -0.416182  -0.378652  0  3.510276  0
N  N91  1  0.16808107  0.63773768  0.95724297  1  -1.193796  0  -0.416045  -0.379881  0  3.509981  0
N  N92  1  0.21141895  0.04291573  0.68060003  1  -1.255917  0  -0.416704  -0.380369  0  3.511286  0
N  N93  1  0.71383506  0.68103017  0.04360366  1  -1.221597  0  -0.415621  -0.386372  0  3.507572  0
N  N94  1  0.67051590  0.95641852  0.63744167  1  -1.208183  0  -0.414134  -0.38306  0  3.504666  0
N  N95  1  0.03275782  0.36244800  0.31873918  1  -1.22949  0  -0.416391  -0.386545  0  3.508188  0
N  N96  1  0.53513164  0.57960673  0.32239791  1  -0.811633  0  -0.278476  -0.205523  0  3.616236  0
N  N97  1  0.21275212  0.67746179  0.25726619  1  -0.801365  0  -0.279045  -0.208242  0  3.620242  0
N  N98  1  0.95585148  0.74274222  0.42044102  1  -0.804506  0  -0.278369  -0.204857  0  3.617439  0
N  N99  1  0.60969762  0.44631850  0.76328787  1  -0.829388  0  -0.281149  -0.191855  0  3.628175  0
N  N100  1  0.84644176  0.23664099  0.68283563  1  -0.79515  0  -0.281731  -0.193841  0  3.631218  0
N  N101  1  0.16340351  0.31697731  0.55362847  1  -0.812963  0  -0.281968  -0.193179  0  3.629047  0
N  N102  1  0.65535283  0.55424100  0.31831864  1  -0.80923  0  -0.282532  -0.190007  0  3.63358  0
N  N103  1  0.33709095  0.68183736  0.23603562  1  -0.810089  0  -0.282406  -0.187683  0  3.63437  0
N  N104  1  0.10145660  0.76405708  0.44585775  1  -0.811743  0  -0.283528  -0.193322  0  3.636668  0
N  N105  1  0.46462140  0.41620708  0.74449158  1  -0.798347  0  -0.279465  -0.207689  0  3.617389  0
N  N106  1  0.72012828  0.25541612  0.67151754  1  -0.81497  0  -0.277938  -0.204627  0  3.616884  0
N  N107  1  0.04853620  0.32849025  0.58379109  1  -0.803296  0  -0.278853  -0.207306  0  3.615481  0
O  O108  1  0.65150229  0.74504197  0.26095444  1  -1.193518  0  -0.309086  -0.514539  0  2.360235  0
O  O109  1  0.39110436  0.73882021  0.48420013  1  -1.198398  0  -0.308908  -0.51423  0  2.358677  0
O  O110  1  0.90634417  0.51586456  0.25467619  1  -1.191783  0  -0.309876  -0.515912  0  2.359182  0
O  O111  1  0.77946301  0.65007598  0.19978780  1  -1.173471  0  -0.317707  -0.529527  0  2.362847  0
O  O112  1  0.58024272  0.80010722  0.45047281  1  -1.181637  0  -0.31635  -0.527169  0  2.35989  0
O  O113  1  0.12919429  0.54953508  0.34976178  1  -1.187787  0  -0.317155  -0.528021  0  2.362486  0
O  O114  1  0.63608638  0.35027081  0.54744529  1  -1.181231  0  -0.311646  -0.515359  0  2.338699  0
O  O115  1  0.08816696  0.45259015  0.80265147  1  -1.176689  0  -0.311057  -0.51422  0  2.339458  0
O  O116  1  0.28613705  0.19744340  0.65002307  1  -1.168683  0  -0.311234  -0.515106  0  2.340942  0
O  O117  1  0.41756157  0.25342673  0.51877815  1  -1.204685  0  -0.321191  -0.54173  0  2.34951  0
O  O118  1  0.89839626  0.48142835  0.73455633  1  -1.197233  0  -0.319984  -0.539481  0  2.352428  0
O  O119  1  0.16414981  0.26545581  0.74670029  1  -1.199907  0  -0.319778  -0.539829  0  2.351452  0
O  O120  1  0.31604501  0.34537811  0.34678908  1  -1.188144  0  -0.313139  -0.530098  0  2.176702  0
O  O121  1  0.96886363  0.65299101  0.99855528  1  -1.188332  0  -0.312768  -0.52959  0  2.178347  0
O  O122  1  0.97085572  0.00147996  0.65454669  1  -1.182992  0  -0.311959  -0.52877  0  2.17956  0
O  O123  1  0.47019942  0.63400528  0.00769448  1  -1.180231  0  -0.309187  -0.523897  0  2.173217  0
O  O124  1  0.46272997  0.99228400  0.62638179  1  -1.170373  0  -0.308871  -0.522943  0  2.17677  0
O  O125  1  0.83638346  0.37378427  0.36595665  1  -1.181051  0  -0.307968  -0.521444  0  2.174235  0
