# generated using pymatgen
data_Mg3P4H24C14(NO9)2
_symmetry_space_group_name_H-M   'P 1'
_cell_length_a   6.94700674
_cell_length_b   9.63894445
_cell_length_c   10.31812247
_cell_angle_alpha   78.64718202
_cell_angle_beta   86.77349880
_cell_angle_gamma   79.55108662
_symmetry_Int_Tables_number   1
_chemical_formula_structural   Mg3P4H24C14(NO9)2
_chemical_formula_sum   'Mg3 P4 H24 C14 N2 O18'
_cell_volume   666.01620808
_cell_formula_units_Z   1
loop_
 _symmetry_equiv_pos_site_id
 _symmetry_equiv_pos_as_xyz
  1  'x, y, z'
loop_
 _atom_site_type_symbol
 _atom_site_label
 _atom_site_symmetry_multiplicity
 _atom_site_fract_x
 _atom_site_fract_y
 _atom_site_fract_z
 _atom_site_occupancy
 _atom_site_hle17_bader_spin_density
 _atom_site_hle17_ddec_charge
 _atom_site_hle17_ddec_spin_density
 _atom_site_hle17_ddec_sum_bond_order
 _atom_site_hle17_magmom
 _atom_site_hse06_10hf_bader_spin_density
 _atom_site_hse06_10hf_ddec_charge
 _atom_site_hse06_10hf_ddec_spin_density
 _atom_site_hse06_10hf_ddec_sum_bond_order
 _atom_site_hse06_10hf_magmom
 _atom_site_hse06_bader_spin_density
 _atom_site_hse06_ddec_charge
 _atom_site_hse06_ddec_spin_density
 _atom_site_hse06_ddec_sum_bond_order
 _atom_site_hse06_magmom
 _atom_site_pbe_bader_spin_density
 _atom_site_pbe_cm5_charge
 _atom_site_pbe_ddec_charge
 _atom_site_pbe_ddec_spin_density
 _atom_site_pbe_ddec_sum_bond_order
 _atom_site_pbe_magmom
Mg  Mg0  1  0.49999949  0.49999942  0.00000065  1  0  1.566195  0  1.065101  0  0  1.464177  0  1.308266  0  0  1.484678  0  1.275828  0  0  0.82623  1.449277  0  1.331599  0
Mg  Mg1  1  0.29604720  0.05010297  0.05037476  1  0  1.520933  0  1.135813  0  0  1.415297  0  1.374055  0  0  1.43615  0  1.342912  0  0  0.846817  1.400463  0  1.395973  0
Mg  Mg2  1  0.70395295  0.94989647  0.94962577  1  0  1.520954  0  1.135768  0  0  1.41531  0  1.374033  0  0  1.436163  0  1.34289  0  0  0.84682  1.400476  0  1.39595  0
P  P3  1  0.45929171  0.73891742  0.18376955  1  0  1.461995  0  4.94313  0  0  1.294682  0  5.456956  0  0  1.343966  0  5.417052  0  0  0.321656  1.260426  0  5.483685  0
P  P4  1  0.54070818  0.26108310  0.81623176  1  0  1.461998  0  4.943128  0  0  1.294679  0  5.456963  0  0  1.343971  0  5.417038  0  0  0.321658  1.260413  0  5.483704  0
P  P5  1  0.14755579  0.78776560  0.97809039  1  0  1.456962  0  4.863159  0  0  1.285644  0  5.372543  0  0  1.335174  0  5.333363  0  0  0.341244  1.25125  0  5.398782  0
P  P6  1  0.85244409  0.21223491  0.02190995  1  0  1.45693  0  4.863112  0  0  1.285629  0  5.372501  0  0  1.335161  0  5.333317  0  0  0.341228  1.251235  0  5.398742  0
H  H7  1  0.36481020  0.40535310  0.61839950  1  0  0.308314  0  0.926089  0  0  0.282074  0  0.997283  0  0  0.292149  0  0.989687  0  0  0.301727  0.275026  0  1.002456  0
H  H8  1  0.63518823  0.59464740  0.38159994  1  0  0.308275  0  0.926088  0  0  0.282045  0  0.997273  0  0  0.292119  0  0.989682  0  0  0.301708  0.274999  0  1.002451  0
H  H9  1  0.99167361  0.96491082  0.15814571  1  0  0.393244  0  0.899645  0  0  0.363577  0  0.976266  0  0  0.374957  0  0.963586  0  0  0.303959  0.355578  0  0.985119  0
H  H10  1  0.00832628  0.03508969  0.84185463  1  0  0.393214  0  0.899687  0  0  0.36354  0  0.97631  0  0  0.374919  0  0.963633  0  0  0.303948  0.355537  0  0.985172  0
H  H11  1  0.19384095  0.34685478  0.07870908  1  0  0.445788  0  0.840336  0  0  0.417597  0  0.897405  0  0  0.42766  0  0.882647  0  0  0.307555  0.410301  0  0.908114  0
H  H12  1  0.80615921  0.65314466  0.92129242  1  0  0.445776  0  0.840351  0  0  0.417587  0  0.897418  0  0  0.427649  0  0.882662  0  0  0.307547  0.410291  0  0.908128  0
H  H13  1  0.36135957  0.29607370  0.17759228  1  0  0.428447  0  0.85429  0  0  0.402192  0  0.915514  0  0  0.41133  0  0.901823  0  0  0.308282  0.395402  0  0.925812  0
H  H14  1  0.63864087  0.70392467  0.82240941  1  0  0.428463  0  0.854256  0  0  0.402212  0  0.915482  0  0  0.41135  0  0.90179  0  0  0.308301  0.39542  0  0.925781  0
H  H15  1  0.58588460  0.08172416  0.17953603  1  0  0.438461  0  0.858354  0  0  0.404234  0  0.928122  0  0  0.415312  0  0.911774  0  0  0.304665  0.396303  0  0.939871  0
H  H16  1  0.41411556  0.91827528  0.82046450  1  0  0.43846  0  0.858356  0  0  0.404225  0  0.928135  0  0  0.415303  0  0.911787  0  0  0.304663  0.396296  0  0.93988  0
H  H17  1  0.45160477  0.99802846  0.28176370  1  0  0.440464  0  0.812608  0  0  0.415565  0  0.878825  0  0  0.425098  0  0.867087  0  0  0.317941  0.408651  0  0.887474  0
H  H18  1  0.54839538  0.00197097  0.71823683  1  0  0.440462  0  0.81262  0  0  0.415563  0  0.878833  0  0  0.425096  0  0.867094  0  0  0.317942  0.408644  0  0.887492  0
H  H19  1  0.91403090  0.71468581  0.22223195  1  0  0.114429  0  0.914603  0  0  0.127275  0  0.979473  0  0  0.129106  0  0.978142  0  0  0.108523  0.125739  0  0.980572  0
H  H20  1  0.08596924  0.28531363  0.77776762  1  0  0.114425  0  0.914598  0  0  0.127268  0  0.979473  0  0  0.129104  0  0.978144  0  0  0.10852  0.12573  0  0.980572  0
H  H21  1  0.10727037  0.56995226  0.20626785  1  0  0.115778  0  0.946539  0  0  0.129071  0  1.012125  0  0  0.130927  0  1.010972  0  0  0.110528  0.127774  0  1.012911  0
H  H22  1  0.89272978  0.43004718  0.79373268  1  0  0.115736  0  0.946582  0  0  0.129061  0  1.012131  0  0  0.130922  0  1.010979  0  0  0.110521  0.127764  0  1.012913  0
H  H23  1  0.30706915  0.44640109  0.39111377  1  0  0.110925  0  0.908858  0  0  0.122617  0  0.96466  0  0  0.125298  0  0.962913  0  0  0.136942  0.120363  0  0.966456  0
H  H24  1  0.69292982  0.55359725  0.60888508  1  0  0.110929  0  0.908893  0  0  0.122629  0  0.96469  0  0  0.125311  0  0.962942  0  0  0.136948  0.12037  0  0.966492  0
H  H25  1  0.23491068  0.57134345  0.75637084  1  0  0.136529  0  0.966602  0  0  0.139369  0  1.029501  0  0  0.14339  0  1.025743  0  0  0.13597  0.136187  0  1.032804  0
H  H26  1  0.76508918  0.42865705  0.24362757  1  0  0.136522  0  0.966608  0  0  0.139379  0  1.029507  0  0  0.143394  0  1.025748  0  0  0.135975  0.136195  0  1.032813  0
H  H27  1  0.99763261  0.79522066  0.66364836  1  0  0.12575  0  0.92642  0  0  0.136621  0  0.977791  0  0  0.140054  0  0.977105  0  0  0.120654  0.133915  0  0.978715  0
H  H28  1  0.00236870  0.20477986  0.33635095  1  0  0.125711  0  0.926422  0  0  0.136609  0  0.977766  0  0  0.140042  0  0.977079  0  0  0.120665  0.133906  0  0.978688  0
H  H29  1  0.91412103  0.84020525  0.42237427  1  0  0.114851  0  0.905284  0  0  0.129602  0  0.955398  0  0  0.132551  0  0.952949  0  0  0.118422  0.127237  0  0.957393  0
H  H30  1  0.08587741  0.15979525  0.57762516  1  0  0.114854  0  0.90527  0  0  0.129618  0  0.955366  0  0  0.132571  0  0.952917  0  0  0.118426  0.127255  0  0.957359  0
C  C31  1  0.18929156  0.77849957  0.15812433  1  0  -0.224363  0  3.616817  0  0  -0.184381  0  3.867691  0  0  -0.192565  0  3.877672  0  0  0.047924  -0.178613  0  3.860521  0
C  C32  1  0.81070948  0.22150203  0.84187479  1  0  -0.224331  0  3.616705  0  0  -0.18436  0  3.867606  0  0  -0.192537  0  3.877591  0  0  0.047896  -0.178584  0  3.86043  0
C  C33  1  0.07005088  0.67234130  0.24126697  1  0  -0.186457  0  3.728195  0  0  -0.24238  0  3.978068  0  0  -0.242666  0  3.991732  0  0  -0.158591  -0.241817  0  3.968858  0
C  C34  1  0.92994810  0.32765705  0.75873285  1  0  -0.186407  0  3.728133  0  0  -0.242357  0  3.978019  0  0  -0.242667  0  3.991715  0  0  -0.158563  -0.241792  0  3.968802  0
C  C35  1  0.10682713  0.64880025  0.38607893  1  0  0.074593  0  3.723934  0  0  0.096894  0  3.971351  0  0  0.092263  0  3.995166  0  0  0.008109  0.09929  0  3.955499  0
C  C36  1  0.89317445  0.35119919  0.61391960  1  0  0.074628  0  3.723818  0  0  0.09695  0  3.971222  0  0  0.092325  0  3.995043  0  0  0.008128  0.099348  0  3.955364  0
C  C37  1  0.23415072  0.52747464  0.44593547  1  0  0.084147  0  3.596542  0  0  0.03512  0  3.851546  0  0  0.041861  0  3.868658  0  0  0.06617  0.03082  0  3.840888  0
C  C38  1  0.76584888  0.47252694  0.55406274  1  0  0.084097  0  3.596555  0  0  0.035052  0  3.851596  0  0  0.041792  0  3.868705  0  0  0.066145  0.03074  0  3.840967  0
C  C39  1  0.19240614  0.59849868  0.65322664  1  0  0.14312  0  3.566849  0  0  0.100126  0  3.821699  0  0  0.109287  0  3.835755  0  0  0.069864  0.093659  0  3.813561  0
C  C40  1  0.80759319  0.40150398  0.34677139  1  0  0.143125  0  3.566671  0  0  0.100103  0  3.821587  0  0  0.109269  0  3.83564  0  0  0.069869  0.093645  0  3.813451  0
C  C41  1  0.06356399  0.72151427  0.59935034  1  0  -0.110087  0  3.707714  0  0  -0.121677  0  3.966598  0  0  -0.12977  0  3.986412  0  0  -0.069877  -0.116793  0  3.954243  0
C  C42  1  0.93644021  0.27848628  0.40064981  1  0  -0.109969  0  3.707617  0  0  -0.121568  0  3.966524  0  0  -0.129661  0  3.986339  0  0  -0.069855  -0.11669  0  3.954172  0
C  C43  1  0.01890825  0.74613720  0.46581210  1  0  -0.016722  0  3.621074  0  0  -0.05134  0  3.876968  0  0  -0.045504  0  3.89168  0  0  -0.047518  -0.055071  0  3.867134  0
C  C44  1  0.98109133  0.25386437  0.53418515  1  0  -0.016821  0  3.621201  0  0  -0.051458  0  3.877116  0  0  -0.045628  0  3.891833  0  0  -0.04756  -0.055188  0  3.867282  0
N  N45  1  0.27238241  0.50486027  0.57556206  1  0  -0.213638  0  3.476866  0  0  -0.138305  0  3.701228  0  0  -0.154827  0  3.720064  0  0  -0.332221  -0.127539  0  3.688551  0
N  N46  1  0.72761892  0.49514026  0.42443822  1  0  -0.213574  0  3.476829  0  0  -0.138256  0  3.701233  0  0  -0.154774  0  3.720064  0  0  -0.3322  -0.127484  0  3.688551  0
O  O47  1  0.53741346  0.59085361  0.15405484  1  0  -0.932618  0  1.999054  0  0  -0.854354  0  2.26166  0  0  -0.877835  0  2.241742  0  0  -0.419601  -0.837322  0  2.274859  0
O  O48  1  0.46258671  0.40914583  0.84594763  1  0  -0.932638  0  1.999112  0  0  -0.854354  0  2.26168  0  0  -0.877855  0  2.241796  0  0  -0.419589  -0.837319  0  2.274877  0
O  O49  1  0.51797437  0.86462754  0.07907808  1  0  -1.041822  0  2.105501  0  0  -0.948011  0  2.360593  0  0  -0.97029  0  2.337562  0  0  -0.469586  -0.932186  0  2.376341  0
O  O50  1  0.48202579  0.13537190  0.92092245  1  0  -1.041807  0  2.105468  0  0  -0.947998  0  2.360558  0  0  -0.970273  0  2.337525  0  0  -0.469587  -0.932175  0  2.376314  0
O  O51  1  0.50750816  0.75150424  0.32361986  1  0  -0.836298  0  1.814931  0  0  -0.772431  0  2.050958  0  0  -0.796871  0  2.033624  0  0  -0.39868  -0.754731  0  2.062458  0
O  O52  1  0.49249316  0.24849629  0.67638042  1  0  -0.836291  0  1.814927  0  0  -0.772421  0  2.050948  0  0  -0.79686  0  2.033612  0  0  -0.398678  -0.754717  0  2.062447  0
O  O53  1  0.27934442  0.66515138  0.92916674  1  0  -0.9008  0  1.957055  0  0  -0.818974  0  2.211486  0  0  -0.842598  0  2.191719  0  0  -0.402492  -0.801776  0  2.225217  0
O  O54  1  0.72065546  0.33484913  0.07083360  1  0  -0.900791  0  1.957079  0  0  -0.818966  0  2.211512  0  0  -0.842591  0  2.191748  0  0  -0.402479  -0.801771  0  2.22525  0
O  O55  1  0.19649667  0.93906931  0.91120214  1  0  -0.929791  0  2.024526  0  0  -0.837662  0  2.256251  0  0  -0.862634  0  2.236359  0  0  -0.390949  -0.819683  0  2.269629  0
O  O56  1  0.80350205  0.06093012  0.08879845  1  0  -0.929777  0  2.024446  0  0  -0.837707  0  2.256224  0  0  -0.862675  0  2.236319  0  0  -0.390947  -0.819724  0  2.269596  0
O  O57  1  0.92835514  0.78734240  0.96326158  1  0  -0.939477  0  1.96691  0  0  -0.851795  0  2.219512  0  0  -0.875796  0  2.198264  0  0  -0.42539  -0.834754  0  2.233832  0
O  O58  1  0.07164530  0.21265596  0.03674011  1  0  -0.939469  0  1.966891  0  0  -0.851789  0  2.219492  0  0  -0.87579  0  2.198243  0  0  -0.425372  -0.834747  0  2.233808  0
O  O59  1  0.13114643  0.92151049  0.18828598  1  0  -0.627396  0  2.187176  0  0  -0.572057  0  2.405921  0  0  -0.587894  0  2.396545  0  0  -0.409039  -0.560228  0  2.411708  0
O  O60  1  0.86885544  0.07848789  0.81171468  1  0  -0.627399  0  2.187095  0  0  -0.572049  0  2.405845  0  0  -0.587887  0  2.396465  0  0  -0.40904  -0.560218  0  2.411638  0
O  O61  1  0.29127686  0.38404591  0.12323947  1  0  -0.866802  0  1.821812  0  0  -0.819197  0  1.996874  0  0  -0.835887  0  1.967718  0  0  -0.584627  -0.807146  0  2.017957  0
O  O62  1  0.70872330  0.61595353  0.87676107  1  0  -0.866797  0  1.821795  0  0  -0.819196  0  1.996858  0  0  -0.835887  0  1.967703  0  0  -0.584635  -0.807146  0  2.017937  0
O  O63  1  0.44875313  0.08839220  0.21741811  1  0  -0.871575  0  1.82719  0  0  -0.817078  0  2.002369  0  0  -0.833726  0  1.97225  0  0  -0.581509  -0.805358  0  2.024307  0
O  O64  1  0.55124676  0.91160832  0.78258223  1  0  -0.871569  0  1.8272  0  0  -0.817074  0  2.002388  0  0  -0.833723  0  1.972267  0  0  -0.581505  -0.805352  0  2.024328  0
