# generated using pymatgen
data_NaZnH17C23N2O9
_symmetry_space_group_name_H-M   'P 1'
_cell_length_a   8.98479160
_cell_length_b   10.42920333
_cell_length_c   12.49110000
_cell_angle_alpha   97.86703828
_cell_angle_beta   98.23072553
_cell_angle_gamma   96.69062944
_symmetry_Int_Tables_number   1
_chemical_formula_structural   NaZnH17C23N2O9
_chemical_formula_sum   'Na2 Zn2 H34 C46 N4 O18'
_cell_volume   1136.39828490
_cell_formula_units_Z   2
loop_
 _symmetry_equiv_pos_site_id
 _symmetry_equiv_pos_as_xyz
  1  'x, y, z'
loop_
 _atom_site_type_symbol
 _atom_site_label
 _atom_site_symmetry_multiplicity
 _atom_site_fract_x
 _atom_site_fract_y
 _atom_site_fract_z
 _atom_site_occupancy
 _atom_site_hle17_bader_spin_density
 _atom_site_hle17_ddec_charge
 _atom_site_hle17_ddec_spin_density
 _atom_site_hle17_ddec_sum_bond_order
 _atom_site_hle17_magmom
 _atom_site_hse06_10hf_bader_spin_density
 _atom_site_hse06_10hf_ddec_charge
 _atom_site_hse06_10hf_ddec_spin_density
 _atom_site_hse06_10hf_ddec_sum_bond_order
 _atom_site_hse06_10hf_magmom
 _atom_site_hse06_bader_spin_density
 _atom_site_hse06_ddec_charge
 _atom_site_hse06_ddec_spin_density
 _atom_site_hse06_ddec_sum_bond_order
 _atom_site_hse06_magmom
 _atom_site_pbe_bader_charge
 _atom_site_pbe_bader_spin_density
 _atom_site_pbe_cm5_charge
 _atom_site_pbe_ddec_charge
 _atom_site_pbe_ddec_spin_density
 _atom_site_pbe_ddec_sum_bond_order
 _atom_site_pbe_magmom
Na  Na0  1  0.64575319  0.08828161  0.97629496  1  0  0.909655  0  0.375604  0  0  0.861427  0  0.530689  0  0  0.872116  0  0.510618  0  0.886292  0  0.675956  0.853945  0  0.544561  0
Na  Na1  1  0.35425224  0.91171943  0.02370124  1  0  0.909646  0  0.375597  0  0  0.861419  0  0.530677  0  0  0.872115  0  0.510613  0  0.88631  0  0.675952  0.853932  0  0.544552  0
Zn  Zn2  1  0.69093826  0.29789827  0.20670992  1  0  1.045557  0  1.714371  0  0  0.852966  0  2.156726  0  0  0.908629  0  2.099188  0  1.286872  0  0.678129  0.813766  0  2.196171  0
Zn  Zn3  1  0.30906267  0.70210277  0.79328902  1  0  1.045583  0  1.714362  0  0  0.852998  0  2.156736  0  0  0.908665  0  2.099192  0  1.286741  0  0.678138  0.813796  0  2.196187  0
H  H4  1  0.48527571  0.07431232  0.30096077  1  0  0.095829  0  0.952015  0  0  0.104617  0  1.015146  0  0  0.106629  0  1.013839  0  0.130654  0  0.123671  0.103023  0  1.016254  0
H  H5  1  0.51472381  0.92567993  0.69904021  1  0  0.095806  0  0.951953  0  0  0.104498  0  1.01524  0  0  0.106509  0  1.013932  0  0.130904  0  0.123664  0.102908  0  1.016335  0
H  H6  1  0.37445943  0.06161171  0.47432592  1  0  0.101188  0  0.952627  0  0  0.115561  0  1.004515  0  0  0.117905  0  1.005092  0  0.08229  0  0.108505  0.113292  0  1.005558  0
H  H7  1  0.62553799  0.93838151  0.52567496  1  0  0.101242  0  0.952565  0  0  0.11554  0  1.004557  0  0  0.117888  0  1.005141  0  0.082433  0  0.108503  0.11327  0  1.005594  0
H  H8  1  0.45058752  0.24511169  0.63104276  1  0  0.110071  0  0.924453  0  0  0.122561  0  0.980427  0  0  0.125937  0  0.977618  0  0.087851  0  0.114466  0.120028  0  0.982861  0
H  H9  1  0.54940990  0.75488153  0.36895652  1  0  0.110126  0  0.924372  0  0  0.122607  0  0.980352  0  0  0.125989  0  0.977543  0  0.087873  0  0.114481  0.120073  0  0.982789  0
H  H10  1  0.59795635  0.47122721  0.70324722  1  0  0.113491  0  0.945627  0  0  0.123908  0  1.005689  0  0  0.127203  0  1.003684  0  0.129437  0  0.109759  0.121601  0  1.006875  0
H  H11  1  0.40204156  0.52876210  0.29675407  1  0  0.113517  0  0.945587  0  0  0.123955  0  1.005636  0  0  0.12725  0  1.003632  0  0.129458  0  0.109762  0.121643  0  1.00682  0
H  H12  1  0.79420165  0.64897605  0.68045882  1  0  0.120112  0  0.960951  0  0  0.129704  0  1.022406  0  0  0.133117  0  1.020528  0  0.152997  0  0.108171  0.127134  0  1.02402  0
H  H13  1  0.20579287  0.35102011  0.31954289  1  0  0.120075  0  0.96099  0  0  0.129624  0  1.0225  0  0  0.133021  0  1.020637  0  0.152954  0  0.108167  0.127055  0  1.024107  0
H  H14  1  0.96560239  0.74711104  0.56414825  1  0  0.11291  0  0.939872  0  0  0.12574  0  0.994823  0  0  0.128487  0  0.992929  0  0.109379  0  0.112531  0.123835  0  0.995902  0
H  H15  1  0.03438844  0.25288316  0.43585206  1  0  0.112917  0  0.939881  0  0  0.125768  0  0.994798  0  0  0.128513  0  0.992908  0  0.109907  0  0.11252  0.123861  0  0.995877  0
H  H16  1  0.04879568  0.73957415  0.37806051  1  0  0.106431  0  0.952218  0  0  0.117314  0  1.00894  0  0  0.119661  0  1.009932  0  0.110718  0  0.10558  0.115697  0  1.008225  0
H  H17  1  0.95119482  0.26042494  0.62194033  1  0  0.106489  0  0.952317  0  0  0.117365  0  1.009033  0  0  0.119714  0  1.010023  0  0.111073  0  0.105608  0.115751  0  1.008315  0
H  H18  1  0.08391579  0.54707017  0.10429641  1  0  0.091658  0  0.948066  0  0  0.102328  0  1.013688  0  0  0.103687  0  1.012869  0  0.090862  0  0.110208  0.101262  0  1.014682  0
H  H19  1  0.91608705  0.45293576  0.89571048  1  0  0.091705  0  0.948014  0  0  0.102345  0  1.013653  0  0  0.103699  0  1.012832  0  0.090837  0  0.110258  0.101278  0  1.014648  0
H  H20  1  0.27336065  0.51259850  0.13648231  1  0  0.105163  0  0.933951  0  0  0.115685  0  0.997535  0  0  0.118114  0  0.99516  0  0.07719  0  0.116586  0.113888  0  0.999687  0
H  H21  1  0.72664139  0.48740939  0.86351912  1  0  0.105114  0  0.933968  0  0  0.11564  0  0.997537  0  0  0.118064  0  0.995157  0  0.077108  0  0.116553  0.11384  0  0.99969  0
H  H22  1  0.31386947  0.91330676  0.31424516  1  0  0.109991  0  0.972002  0  0  0.118359  0  1.039861  0  0  0.121854  0  1.038227  0  0.074549  0  0.102243  0.116007  0  1.04116  0
H  H23  1  0.68613400  0.08670308  0.68575985  1  0  0.109962  0  0.972089  0  0  0.118363  0  1.0399  0  0  0.121858  0  1.038266  0  0.073493  0  0.102229  0.116011  0  1.041199  0
H  H24  1  0.16287579  0.10232128  0.31767768  1  0  0.086246  0  0.970496  0  0  0.095366  0  1.036844  0  0  0.098227  0  1.034826  0  0.083153  0  0.098666  0.093387  0  1.038216  0
H  H25  1  0.83712656  0.89768856  0.68231841  1  0  0.086238  0  0.970487  0  0  0.095346  0  1.036847  0  0  0.098207  0  1.034828  0  0.083243  0  0.098662  0.093367  0  1.03822  0
H  H26  1  0.99371375  0.70813737  0.03891299  1  0  0.132198  0  0.987366  0  0  0.140498  0  1.052367  0  0  0.144188  0  1.050418  0  0.111197  0  0.112296  0.137687  0  1.054236  0
H  H27  1  0.00628750  0.29186563  0.96109260  1  0  0.132204  0  0.987418  0  0  0.140506  0  1.052416  0  0  0.144195  0  1.050471  0  0.111077  0  0.112296  0.137694  0  1.054286  0
H  H28  1  0.76677085  0.68866910  0.99989094  1  0  0.105414  0  0.979632  0  0  0.114903  0  1.042134  0  0  0.117834  0  1.039725  0  0.161017  0  0.110599  0.112625  0  1.0441  0
H  H29  1  0.23323152  0.31133390  0.00011397  1  0  0.105445  0  0.979599  0  0  0.114918  0  1.042132  0  0  0.11786  0  1.03971  0  0.160991  0  0.110623  0.112656  0  1.04408  0
H  H30  1  0.84002513  0.76161107  0.89269528  1  0  0.103286  0  0.932075  0  0  0.11354  0  0.995966  0  0  0.115299  0  0.994906  0  0.106174  0  0.110863  0.112111  0  0.997049  0
H  H31  1  0.15998465  0.23838899  0.10731006  1  0  0.103353  0  0.931953  0  0  0.113604  0  0.995866  0  0  0.115368  0  0.994797  0  0.106539  0  0.11087  0.112173  0  0.99695  0
H  H32  1  0.92956250  0.55515637  0.22910724  1  0  0.093084  0  0.980454  0  0  0.099878  0  1.044605  0  0  0.102645  0  1.041829  0  0.151291  0  0.118289  0.097826  0  1.046427  0
H  H33  1  0.07043137  0.44484272  0.77089315  1  0  0.09315  0  0.980332  0  0  0.09984  0  1.04463  0  0  0.102605  0  1.041857  0  0.151232  0  0.11827  0.097789  0  1.046451  0
H  H34  1  0.36209782  0.03521940  0.82221641  1  0  0.41789  0  0.889096  0  0  0.38424  0  0.959115  0  0  0.395594  0  0.942184  0  0.620248  0  0.284962  0.376304  0  0.970898  0
H  H35  1  0.63791161  0.96478555  0.17778144  1  0  0.417893  0  0.889061  0  0  0.38427  0  0.959036  0  0  0.395623  0  0.942108  0  0.620128  0  0.284955  0.376337  0  0.970813  0
H  H36  1  0.40225972  0.18691802  0.83304953  1  0  0.41001  0  0.842124  0  0  0.400067  0  0.88904  0  0  0.407194  0  0.880567  0  0.594197  0  0.313942  0.395106  0  0.894806  0
H  H37  1  0.59774762  0.81308791  0.16695063  1  0  0.409973  0  0.842105  0  0  0.400026  0  0.889033  0  0  0.407155  0  0.880603  0  0.59421  0  0.31391  0.395063  0  0.894803  0
C  C38  1  0.51353281  0.15347655  0.37033036  1  0  0.145669  0  3.664345  0  0  0.114485  0  3.914422  0  0  0.122505  0  3.931549  0  0.516431  0  0.058559  0.109324  0  3.903108  0
C  C39  1  0.48646655  0.84651472  0.62966970  1  0  0.145702  0  3.664272  0  0  0.114584  0  3.914426  0  0  0.122606  0  3.931551  0  0.514195  0  0.05859  0.109422  0  3.903116  0
C  C40  1  0.45251493  0.14716241  0.46759335  1  0  -0.132148  0  3.752739  0  0  -0.144596  0  4.007428  0  0  -0.15209  0  4.029695  0  -0.020277  0  -0.085373  -0.140051  0  3.994936  0
C  C41  1  0.54748361  0.85283081  0.53240524  1  0  -0.13216  0  3.752587  0  0  -0.144539  0  4.007275  0  0  -0.152045  0  4.029557  0  -0.020984  0  -0.085358  -0.139991  0  3.994784  0
C  C42  1  0.49361982  0.24915137  0.55397247  1  0  -0.039333  0  3.682687  0  0  -0.066052  0  3.934817  0  0  -0.063038  0  3.951879  0  -0.041722  0  -0.059805  -0.069126  0  3.924994  0
C  C43  1  0.50637713  0.75083892  0.44602803  1  0  -0.039354  0  3.682646  0  0  -0.066054  0  3.934732  0  0  -0.063048  0  3.951806  0  -0.040861  0  -0.059809  -0.069132  0  3.924913  0
C  C44  1  0.59513105  0.35863422  0.54261126  1  0  0.025449  0  3.796666  0  0  0.03938  0  4.033933  0  0  0.037201  0  4.058257  0  -0.002618  0  -0.000782  0.041599  0  4.016845  0
C  C45  1  0.40486671  0.64135412  0.45738830  1  0  0.025458  0  3.796854  0  0  0.039361  0  4.03409  0  0  0.037184  0  4.058415  0  -0.002859  0  -0.000723  0.041583  0  4.016996  0
C  C46  1  0.64504903  0.46836826  0.62741661  1  0  -0.092167  0  3.725451  0  0  -0.119886  0  3.991108  0  0  -0.122795  0  4.013329  0  -0.061198  0  -0.082398  -0.118418  0  3.975477  0
C  C47  1  0.35494567  0.53162204  0.37258445  1  0  -0.092329  0  3.725537  0  0  -0.120072  0  3.991193  0  0  -0.12298  0  4.013407  0  -0.061011  0  -0.082497  -0.118596  0  3.975551  0
C  C48  1  0.75045619  0.56805735  0.61428379  1  0  -0.093528  0  3.706829  0  0  -0.117852  0  3.965022  0  0  -0.121466  0  3.988672  0  -0.068024  0  -0.082114  -0.115906  0  3.949887  0
C  C49  1  0.24953867  0.43193392  0.38571741  1  0  -0.093448  0  3.706926  0  0  -0.117757  0  3.965134  0  0  -0.121359  0  3.988768  0  -0.068624  0  -0.082077  -0.115819  0  3.950027  0
C  C50  1  0.80863187  0.56849132  0.51334380  1  0  0.026708  0  3.791715  0  0  0.042851  0  4.025228  0  0  0.039665  0  4.051129  0  -0.030493  0  -0.001122  0.044709  0  4.008694  0
C  C51  1  0.19136233  0.43150288  0.48665686  1  0  0.02685  0  3.791934  0  0  0.04305  0  4.025375  0  0  0.039871  0  4.051271  0  -0.030018  0  -0.001107  0.0449  0  4.008841  0
C  C52  1  0.91829111  0.66910114  0.49621402  1  0  -0.044249  0  3.675816  0  0  -0.070357  0  3.924612  0  0  -0.067266  0  3.942351  0  -0.013834  0  -0.061434  -0.071957  0  3.912159  0
C  C53  1  0.08170245  0.33089599  0.50378611  1  0  -0.044299  0  3.675796  0  0  -0.070423  0  3.924573  0  0  -0.067335  0  3.942312  0  -0.01467  0  -0.061418  -0.07202  0  3.912121  0
C  C54  1  0.96462567  0.66414953  0.39505799  1  0  -0.119795  0  3.732959  0  0  -0.131797  0  3.986684  0  0  -0.139487  0  4.008589  0  -0.022502  0  -0.083836  -0.126486  0  3.970683  0
C  C55  1  0.03536788  0.33584761  0.60494374  1  0  -0.119939  0  3.733062  0  0  -0.131911  0  3.986794  0  0  -0.139603  0  4.0087  0  -0.022707  0  -0.083886  -0.126601  0  3.970794  0
C  C56  1  0.75443053  0.46508217  0.42499666  1  0  0.123863  0  3.760627  0  0  0.116675  0  3.997041  0  0  0.12087  0  4.020243  0  0.465184  0  0.116386  0.114006  0  3.979987  0
C  C57  1  0.24556433  0.53490910  0.57500453  1  0  0.123782  0  3.760788  0  0  0.116523  0  3.997203  0  0  0.120712  0  4.020411  0  0.465783  0  0.116301  0.113858  0  3.980146  0
C  C58  1  0.65000251  0.35663344  0.44128654  1  0  0.129325  0  3.767681  0  0  0.124531  0  4.002019  0  0  0.128277  0  4.025015  0  0.512943  0  0.118556  0.122634  0  3.98409  0
C  C59  1  0.34999332  0.64335686  0.55871464  1  0  0.129296  0  3.767558  0  0  0.124638  0  4.001791  0  0  0.128384  0  4.024785  0  0.512659  0  0.118645  0.122739  0  3.983862  0
C  C60  1  0.22709193  0.58420336  0.98529561  1  0  0.674962  0  3.89267  0  0  0.628456  0  4.192993  0  0  0.661203  0  4.185502  0  1.607033  0  0.203722  0.606125  0  4.197557  0
C  C61  1  0.77290354  0.41579866  0.01470527  1  0  0.674857  0  3.892862  0  0  0.628467  0  4.192991  0  0  0.661208  0  4.1855  0  1.607217  0  0.203726  0.606133  0  4.197558  0
C  C62  1  0.20418309  0.58314286  0.10434913  1  0  -0.083077  0  3.61464  0  0  -0.140137  0  3.875719  0  0  -0.136687  0  3.87596  0  0.39345  0  -0.069043  -0.142797  0  3.875953  0
C  C63  1  0.79581670  0.41686503  0.89565447  1  0  -0.083028  0  3.614666  0  0  -0.140032  0  3.875674  0  0  -0.136553  0  3.875875  0  0.393743  0  -0.069038  -0.142687  0  3.875898  0
C  C64  1  0.16117863  0.79929064  0.17747838  1  0  0.284892  0  3.862318  0  0  0.274954  0  4.126236  0  0  0.290395  0  4.138331  0  0.397196  0  0.078377  0.264314  0  4.118094  0
C  C65  1  0.83882150  0.20071236  0.82252069  1  0  0.284927  0  3.862198  0  0  0.274987  0  4.126171  0  0  0.290429  0  4.138267  0  0.397435  0  0.078482  0.264343  0  4.118032  0
C  C66  1  0.20985832  0.91063449  0.25704763  1  0  -0.234526  0  3.804595  0  0  -0.262322  0  4.07303  0  0  -0.269146  0  4.089844  0  0.000851  0  -0.122757  -0.258245  0  4.062087  0
C  C67  1  0.79014693  0.08937241  0.74295162  1  0  -0.234526  0  3.804736  0  0  -0.262315  0  4.073128  0  0  -0.26914  0  4.089939  0  0.001691  0  -0.122789  -0.258239  0  4.062192  0
C  C68  1  0.12536012  0.01373765  0.25814109  1  0  -0.042667  0  3.81155  0  0  -0.0652  0  4.065009  0  0  -0.060387  0  4.083243  0  -0.052952  0  -0.09023  -0.068155  0  4.052716  0
C  C69  1  0.87464304  0.98627024  0.74185406  1  0  -0.042652  0  3.811532  0  0  -0.065187  0  4.064999  0  0  -0.060374  0  4.083232  0  -0.052939  0  -0.090284  -0.068144  0  4.052709  0
C  C70  1  0.99012909  0.01028442  0.18502089  1  0  -0.20082  0  3.74103  0  0  -0.19109  0  3.991252  0  0  -0.203031  0  4.011293  0  -0.003193  0  -0.043863  -0.183166  0  3.97752  0
C  C71  1  0.00987022  0.98972053  0.81497433  1  0  -0.20077  0  3.740816  0  0  -0.191011  0  3.991024  0  0  -0.202949  0  4.011056  0  -0.002715  0  -0.043787  -0.183088  0  3.977293  0
C  C72  1  0.94337033  0.89727413  0.10493735  1  0  0.304626  0  3.764852  0  0  0.287308  0  4.029085  0  0  0.302867  0  4.04256  0  0.459346  0  0.096284  0.276727  0  4.019561  0
C  C73  1  0.05663379  0.10273278  0.89506178  1  0  0.304669  0  3.764855  0  0  0.287359  0  4.029069  0  0  0.302941  0  4.042543  0  0.459276  0  0.09627  0.276775  0  4.019544  0
C  C74  1  0.02982792  0.79353657  0.10104516  1  0  -0.335862  0  3.745629  0  0  -0.364606  0  4.00278  0  0  -0.374221  0  4.019634  0  -0.016636  0  -0.126462  -0.35835  0  3.991786  0
C  C75  1  0.97017508  0.20647034  0.89895466  1  0  -0.335945  0  3.745672  0  0  -0.364661  0  4.002794  0  0  -0.374274  0  4.019644  0  -0.016754  0  -0.126495  -0.358404  0  3.991802  0
C  C76  1  0.90819889  0.12688191  0.19905397  1  0  0.660203  0  3.904724  0  0  0.608943  0  4.203188  0  0  0.644072  0  4.193927  0  1.603364  0  0.198311  0.584884  0  4.209149  0
C  C77  1  0.09180620  0.87312402  0.80094115  1  0  0.660103  0  3.904821  0  0  0.608773  0  4.203371  0  0  0.643901  0  4.194112  0  1.603238  0  0.198312  0.584715  0  4.209326  0
C  C78  1  0.76506694  0.77260901  0.95513684  1  0  -0.092194  0  3.594463  0  0  -0.146267  0  3.847924  0  0  -0.14415  0  3.848381  0  0.314387  0  -0.073436  -0.147684  0  3.847868  0
C  C79  1  0.23494009  0.22739496  0.04486706  1  0  -0.092311  0  3.594327  0  0  -0.146391  0  3.847878  0  0  -0.144261  0  3.84833  0  0.314069  0  -0.073489  -0.147822  0  3.847816  0
C  C80  1  0.60400888  0.77309870  0.89954177  1  0  0.683634  0  3.89203  0  0  0.638473  0  4.188501  0  0  0.671288  0  4.181141  0  1.592322  0  0.201914  0.616208  0  4.192806  0
C  C81  1  0.39599752  0.22690137  0.10045361  1  0  0.683552  0  3.891916  0  0  0.63833  0  4.188503  0  0  0.671146  0  4.181142  0  1.592407  0  0.201791  0.616075  0  4.192791  0
C  C82  1  0.90108623  0.55988513  0.31114184  1  0  0.160389  0  3.658955  0  0  0.124858  0  3.91496  0  0  0.13456  0  3.929817  0  0.494426  0  0.06042  0.119395  0  3.90358  0
C  C83  1  0.09890651  0.44011396  0.68885923  1  0  0.160371  0  3.659047  0  0  0.124848  0  3.915147  0  0  0.134552  0  3.930003  0  0.494393  0  0.060412  0.119384  0  3.903767  0
N  N84  1  0.60964080  0.25537559  0.35794555  1  0  -0.334579  0  3.252809  0  0  -0.265492  0  3.514015  0  0  -0.283577  0  3.530762  0  -1.250339  0  -0.308945  -0.252957  0  3.501481  0
N  N85  1  0.39035759  0.74461666  0.64205452  1  0  -0.334523  0  3.252747  0  0  -0.265528  0  3.513984  0  0  -0.283613  0  3.530726  0  -1.248429  0  -0.308995  -0.252995  0  3.501456  0
N  N86  1  0.79839641  0.46305695  0.32513200  1  0  -0.340489  0  3.250767  0  0  -0.266351  0  3.52288  0  0  -0.285629  0  3.536402  0  -1.230767  0  -0.306422  -0.25351  0  3.512946  0
N  N87  1  0.20160036  0.53693920  0.67486914  1  0  -0.340468  0  3.250868  0  0  -0.266278  0  3.522966  0  0  -0.285554  0  3.536488  0  -1.230782  0  -0.306397  -0.253438  0  3.513029  0
O  O88  1  0.76076968  0.11025501  0.17536854  1  0  -0.70169  0  2.116264  0  0  -0.62397  0  2.369841  0  0  -0.652974  0  2.355348  0  -1.212984  0  -0.352943  -0.603704  0  2.378942  0
O  O89  1  0.23923494  0.88974799  0.82463260  1  0  -0.7017  0  2.11631  0  0  -0.623931  0  2.369866  0  0  -0.652938  0  2.355383  0  -1.213107  0  -0.352983  -0.603661  0  2.378964  0
O  O90  1  0.53718830  0.66505755  0.84288569  1  0  -0.628961  0  1.947316  0  0  -0.569363  0  2.193256  0  0  -0.598456  0  2.182458  0  -1.177917  0  -0.323454  -0.548943  0  2.200063  0
O  O91  1  0.46281634  0.33493861  0.15711306  1  0  -0.629017  0  1.947305  0  0  -0.569355  0  2.193231  0  0  -0.598449  0  2.182433  0  -1.177956  0  -0.323461  -0.548938  0  2.200033  0
O  O92  1  0.54366964  0.87635244  0.91181628  1  0  -0.730863  0  2.011499  0  0  -0.6835  0  2.26646  0  0  -0.705862  0  2.253179  0  -1.225969  0  -0.454861  -0.668129  0  2.275293  0
O  O93  1  0.45633675  0.12364762  0.08817350  1  0  -0.730702  0  2.011363  0  0  -0.683333  0  2.266369  0  0  -0.705693  0  2.253089  0  -1.22609  0  -0.454776  -0.667981  0  2.275232  0
O  O94  1  0.81559519  0.89364301  0.03001717  1  0  -0.293772  0  2.369128  0  0  -0.223544  0  2.606999  0  0  -0.241114  0  2.609348  0  -1.085923  0  -0.185675  -0.210946  0  2.605056  0
O  O95  1  0.18441055  0.10635999  0.96998328  1  0  -0.293721  0  2.369134  0  0  -0.2235  0  2.606999  0  0  -0.241126  0  2.609387  0  -1.085774  0  -0.185643  -0.210892  0  2.605056  0
O  O96  1  0.98289206  0.23735293  0.23648635  1  0  -0.619717  0  1.922477  0  0  -0.574892  0  2.155327  0  0  -0.598251  0  2.145917  0  -1.190538  0  -0.320591  -0.558505  0  2.161289  0
O  O97  1  0.01710901  0.76265594  0.76350789  1  0  -0.61966  0  1.92257  0  0  -0.574789  0  2.155423  0  0  -0.598153  0  2.146019  0  -1.19068  0  -0.320544  -0.55841  0  2.161395  0
O  O98  1  0.25125618  0.70260517  0.17922164  1  0  -0.261122  0  2.345536  0  0  -0.19133  0  2.578511  0  0  -0.208475  0  2.579889  0  -1.078421  0  -0.179407  -0.178709  0  2.576915  0
O  O99  1  0.74874682  0.29740174  0.82077978  1  0  -0.261183  0  2.34539  0  0  -0.191479  0  2.578429  0  0  -0.208635  0  2.579798  0  -1.078584  0  -0.179506  -0.178854  0  2.576829  0
O  O100  1  0.27235951  0.69272247  0.95502256  1  0  -0.702302  0  2.102293  0  0  -0.632574  0  2.37012  0  0  -0.661651  0  2.356917  0  -1.193882  0  -0.38772  -0.612172  0  2.378482  0
O  O101  1  0.72763901  0.30727760  0.04497601  1  0  -0.702282  0  2.102418  0  0  -0.632584  0  2.370176  0  0  -0.66166  0  2.356976  0  -1.194037  0  -0.387699  -0.612183  0  2.378541  0
O  O102  1  0.19647664  0.47483487  0.92583551  1  0  -0.615748  0  1.957456  0  0  -0.569687  0  2.180516  0  0  -0.594063  0  2.172768  0  -1.19037  0  -0.321304  -0.552367  0  2.185562  0
O  O103  1  0.80351224  0.52516813  0.07416801  1  0  -0.615646  0  1.957392  0  0  -0.569686  0  2.180431  0  0  -0.59406  0  2.172677  0  -1.190536  0  -0.321319  -0.552363  0  2.185477  0
O  O104  1  0.44442679  0.10601691  0.81754905  1  0  -0.850326  0  1.77015  0  0  -0.818723  0  1.938177  0  0  -0.833416  0  1.911289  0  -1.232665  0  -0.623935  -0.808165  0  1.95641  0
O  O105  1  0.55557959  0.89399000  0.18244551  1  0  -0.850308  0  1.770119  0  0  -0.818725  0  1.938136  0  0  -0.833424  0  1.911299  0  -1.232576  0  -0.623904  -0.808164  0  1.956368  0
