# generated using pymatgen
data_CdNiH10C14(N3O)2
_symmetry_space_group_name_H-M   'P 1'
_cell_length_a   7.85432155
_cell_length_b   10.52718147
_cell_length_c   10.55031517
_cell_angle_alpha   89.99987872
_cell_angle_beta   101.05652406
_cell_angle_gamma   90.00017056
_symmetry_Int_Tables_number   1
_chemical_formula_structural   CdNiH10C14(N3O)2
_chemical_formula_sum   'Cd2 Ni2 H20 C28 N12 O4'
_cell_volume   856.14888528
_cell_formula_units_Z   2
loop_
 _symmetry_equiv_pos_site_id
 _symmetry_equiv_pos_as_xyz
  1  'x, y, z'
loop_
 _atom_site_type_symbol
 _atom_site_label
 _atom_site_symmetry_multiplicity
 _atom_site_fract_x
 _atom_site_fract_y
 _atom_site_fract_z
 _atom_site_occupancy
 _atom_site_pbe_bader_spin_density
 _atom_site_pbe_cm5_charge
 _atom_site_pbe_ddec_charge
 _atom_site_pbe_ddec_spin_density
 _atom_site_pbe_ddec_sum_bond_order
 _atom_site_pbe_magmom
Cd  Cd0  1  0.49999667  0.00000193  0.49999904  1  0  0.827935  0.96916  0  2.368577  0
Cd  Cd1  1  0.50000334  0.50000049  0.00000111  1  0  0.827938  0.969176  0  2.368558  0
Ni  Ni2  1  0.49999496  0.50000376  0.49999921  1  0  0.407856  0.139093  0  3.827413  0
Ni  Ni3  1  0.50000256  0.00000045  0.99999830  1  0  0.407951  0.139152  0  3.827354  0
H  H4  1  0.12801369  0.39610812  0.84649229  1  0  0.308363  0.267254  0  1.007441  0
H  H5  1  0.87198782  0.89610908  0.65350685  1  0  0.308353  0.267244  0  1.007476  0
H  H6  1  0.87198792  0.60388989  0.15350596  1  0  0.308342  0.267216  0  1.007503  0
H  H7  1  0.12800986  0.10388798  0.34649460  1  0  0.308351  0.267191  0  1.00754  0
H  H8  1  0.12276552  0.09621616  0.58143650  1  0  0.106288  0.133776  0  1.043582  0
H  H9  1  0.87723231  0.59621562  0.91856369  1  0  0.106279  0.133735  0  1.043622  0
H  H10  1  0.87722828  0.90378281  0.41856249  1  0  0.106301  0.13376  0  1.043626  0
H  H11  1  0.12277056  0.40378144  0.08143853  1  0  0.106267  0.133676  0  1.043693  0
H  H12  1  0.66387392  0.19452306  0.73332440  1  0  0.109092  0.137121  0  1.018721  0
H  H13  1  0.33612300  0.69451975  0.76667260  1  0  0.109105  0.137159  0  1.018692  0
H  H14  1  0.33612248  0.80547780  0.26667592  1  0  0.109105  0.13715  0  1.018682  0
H  H15  1  0.66387729  0.30548112  0.23332829  1  0  0.109129  0.137185  0  1.018641  0
H  H16  1  0.83884820  0.36526398  0.86220887  1  0  0.124373  0.104342  0  1.015668  0
H  H17  1  0.16115451  0.86526340  0.63778861  1  0  0.124387  0.10436  0  1.015746  0
H  H18  1  0.16115729  0.63473498  0.13779089  1  0  0.12436  0.104334  0  1.015645  0
H  H19  1  0.83884319  0.13473652  0.36221095  1  0  0.12438  0.104337  0  1.015763  0
H  H20  1  0.27856973  0.27287221  0.71622599  1  0  0.127049  0.105959  0  0.993534  0
H  H21  1  0.72143394  0.77287541  0.78377278  1  0  0.127044  0.105907  0  0.99358  0
H  H22  1  0.72143059  0.72712675  0.28377017  1  0  0.12704  0.105905  0  0.993612  0
H  H23  1  0.27856634  0.22712165  0.21622905  1  0  0.127073  0.10594  0  0.99355  0
C  C24  1  0.05608311  0.15446333  0.64196599  1  0  -0.107896  -0.273123  0  3.935619  0
C  C25  1  0.94391753  0.65446307  0.85803448  1  0  -0.107868  -0.27307  0  3.935593  0
C  C26  1  0.94391458  0.84553563  0.35803451  1  0  -0.107829  -0.27306  0  3.935596  0
C  C27  1  0.05608534  0.34553590  0.14196774  1  0  -0.107767  -0.272925  0  3.935513  0
C  C28  1  0.79883669  0.20869321  0.72662981  1  0  -0.103657  -0.265426  0  3.940297  0
C  C29  1  0.20116026  0.70869337  0.77336906  1  0  -0.103646  -0.265457  0  3.94026  0
C  C30  1  0.20115969  0.79130481  0.27337240  1  0  -0.103653  -0.265426  0  3.940248  0
C  C31  1  0.79884003  0.29130844  0.22663088  1  0  -0.103673  -0.265498  0  3.940263  0
C  C32  1  0.89330520  0.30264621  0.79814818  1  0  0.051146  0.103551  0  3.918838  0
C  C33  1  0.10669341  0.80264822  0.70184789  1  0  0.051087  0.103467  0  3.918951  0
C  C34  1  0.10669510  0.69735181  0.20185082  1  0  0.051148  0.103533  0  3.918836  0
C  C35  1  0.89330427  0.19735265  0.29815357  1  0  0.05114  0.103548  0  3.918897  0
C  C36  1  0.46449664  0.32736777  0.49290841  1  0  0.024976  0.055207  0  3.820493  0
C  C37  1  0.53549943  0.82737589  0.00708194  1  0  0.024974  0.055282  0  3.819831  0
C  C38  1  0.53548944  0.67262074  0.50708375  1  0  0.024944  0.05526  0  3.819532  0
C  C39  1  0.46450606  0.17262782  0.99291783  1  0  0.024931  0.055244  0  3.819998  0
C  C40  1  0.14314527  0.25040926  0.71522223  1  0  0.053299  0.110532  0  3.920454  0
C  C41  1  0.85685571  0.75040991  0.78477809  1  0  0.05332  0.110587  0  3.920398  0
C  C42  1  0.85685374  0.74958781  0.28477563  1  0  0.053277  0.110606  0  3.920415  0
C  C43  1  0.14314585  0.24958716  0.21522583  1  0  0.053204  0.110519  0  3.920439  0
C  C44  1  0.87808241  0.12925046  0.64486074  1  0  0.104372  0.392603  0  4.120716  0
C  C45  1  0.12191684  0.62925123  0.85513958  1  0  0.104354  0.39263  0  4.120757  0
C  C46  1  0.12191526  0.87074755  0.35514166  1  0  0.104338  0.392559  0  4.120814  0
C  C47  1  0.87808605  0.37074868  0.14486074  1  0  0.104304  0.392573  0  4.120743  0
C  C48  1  0.52540857  0.49442946  0.67645614  1  0  0.026706  0.056516  0  3.828595  0
C  C49  1  0.47458939  0.99443298  0.82354321  1  0  0.026713  0.056506  0  3.828415  0
C  C50  1  0.47458525  0.50557521  0.32354190  1  0  0.026708  0.056491  0  3.828917  0
C  C51  1  0.52541093  0.00556979  0.17645389  1  0  0.026684  0.056449  0  3.828459  0
N  N52  1  0.06193164  0.32251196  0.79186696  1  0  -0.366973  -0.172562  0  3.698021  0
N  N53  1  0.93807089  0.82251200  0.70813344  1  0  -0.366948  -0.172496  0  3.698117  0
N  N54  1  0.93806996  0.67748701  0.20813129  1  0  -0.366977  -0.17254  0  3.698071  0
N  N55  1  0.06192807  0.17748696  0.29187010  1  0  -0.36693  -0.172476  0  3.698142  0
N  N56  1  0.44196649  0.21723571  0.48938816  1  0  -0.368603  -0.376798  0  3.240457  0
N  N57  1  0.55803302  0.71722392  0.01060956  1  0  -0.368661  -0.376933  0  3.239784  0
N  N58  1  0.55803253  0.78278415  0.51060875  1  0  -0.368638  -0.376967  0  3.239322  0
N  N59  1  0.44197506  0.28277409  0.98939153  1  0  -0.368613  -0.376901  0  3.239973  0
N  N60  1  0.54102134  0.49121862  0.78911161  1  0  -0.368652  -0.379357  0  3.263988  0
N  N61  1  0.45897795  0.99121759  0.71088416  1  0  -0.368673  -0.379365  0  3.263839  0
N  N62  1  0.45897765  0.50878224  0.21088909  1  0  -0.368635  -0.379315  0  3.264299  0
N  N63  1  0.54101977  0.00878232  0.28911351  1  0  -0.368675  -0.379356  0  3.26383  0
O  O64  1  0.79708938  0.03645733  0.57696506  1  0  -0.337744  -0.553652  0  2.308113  0
O  O65  1  0.20291216  0.53645528  0.92303201  1  0  -0.337775  -0.553711  0  2.308198  0
O  O66  1  0.20290701  0.96354164  0.42303525  1  0  -0.337751  -0.553672  0  2.308306  0
O  O67  1  0.79709463  0.46354653  0.07696700  1  0  -0.33775  -0.553709  0  2.30815  0
