# generated using pymatgen
data_CdH10C5S2IN
_symmetry_space_group_name_H-M   'P 1'
_cell_length_a   7.39676170
_cell_length_b   9.09041200
_cell_length_c   15.51932666
_cell_angle_alpha   90.00012616
_cell_angle_beta   96.20663750
_cell_angle_gamma   89.99965839
_symmetry_Int_Tables_number   1
_chemical_formula_structural   CdH10C5S2IN
_chemical_formula_sum   'Cd4 H40 C20 S8 I4 N4'
_cell_volume   1037.39688208
_cell_formula_units_Z   4
loop_
 _symmetry_equiv_pos_site_id
 _symmetry_equiv_pos_as_xyz
  1  'x, y, z'
loop_
 _atom_site_type_symbol
 _atom_site_label
 _atom_site_symmetry_multiplicity
 _atom_site_fract_x
 _atom_site_fract_y
 _atom_site_fract_z
 _atom_site_occupancy
 _atom_site_hle17_bader_spin_density
 _atom_site_hle17_ddec_charge
 _atom_site_hle17_ddec_spin_density
 _atom_site_hle17_ddec_sum_bond_order
 _atom_site_hle17_magmom
 _atom_site_hse06_10hf_bader_spin_density
 _atom_site_hse06_10hf_ddec_charge
 _atom_site_hse06_10hf_ddec_spin_density
 _atom_site_hse06_10hf_ddec_sum_bond_order
 _atom_site_hse06_10hf_magmom
 _atom_site_hse06_bader_spin_density
 _atom_site_hse06_ddec_charge
 _atom_site_hse06_ddec_spin_density
 _atom_site_hse06_ddec_sum_bond_order
 _atom_site_hse06_magmom
 _atom_site_pbe_bader_spin_density
 _atom_site_pbe_cm5_charge
 _atom_site_pbe_ddec_charge
 _atom_site_pbe_ddec_spin_density
 _atom_site_pbe_ddec_sum_bond_order
 _atom_site_pbe_magmom
Cd  Cd0  1  0.25293932  0.96496118  0.02581371  1  0  0.620422  0  2.235525  0  0  0.483797  0  2.688877  0  0  0.523009  0  2.662646  0  0  0.428568  0.456897  0  2.706111  0
Cd  Cd1  1  0.74705987  0.46495929  0.47418808  1  0  0.620366  0  2.235578  0  0  0.48374  0  2.688926  0  0  0.522952  0  2.662695  0  0  0.428541  0.456838  0  2.706164  0
Cd  Cd2  1  0.74706330  0.03503696  0.97418711  1  0  0.620424  0  2.235486  0  0  0.483797  0  2.688847  0  0  0.523006  0  2.662615  0  0  0.42857  0.456897  0  2.70608  0
Cd  Cd3  1  0.25293870  0.53503996  0.52581384  1  0  0.620383  0  2.235539  0  0  0.483755  0  2.688893  0  0  0.52297  0  2.662658  0  0  0.428555  0.456854  0  2.70613  0
H  H4  1  0.79999752  0.66990990  0.29193729  1  0  0.057565  0  0.958607  0  0  0.072861  0  1.029504  0  0  0.073027  0  1.030083  0  0  0.091132  0.072559  0  1.029356  0
H  H5  1  0.20000226  0.16991410  0.20806096  1  0  0.057549  0  0.958495  0  0  0.07286  0  1.029402  0  0  0.073024  0  1.029986  0  0  0.091142  0.072557  0  1.029255  0
H  H6  1  0.20000236  0.33008714  0.70806276  1  0  0.057522  0  0.95857  0  0  0.072846  0  1.02947  0  0  0.073006  0  1.030049  0  0  0.091133  0.072543  0  1.029322  0
H  H7  1  0.79999081  0.83008514  0.79193814  1  0  0.057542  0  0.958626  0  0  0.072869  0  1.029477  0  0  0.073033  0  1.030058  0  0  0.091155  0.072567  0  1.029325  0
H  H8  1  0.02238595  0.73963255  0.28722822  1  0  0.068295  0  0.957789  0  0  0.08262  0  1.02639  0  0  0.083818  0  1.025541  0  0  0.09269  0.081625  0  1.027131  0
H  H9  1  0.97761745  0.23964277  0.21277091  1  0  0.068198  0  0.957749  0  0  0.082538  0  1.026355  0  0  0.083766  0  1.025476  0  0  0.092684  0.081536  0  1.027103  0
H  H10  1  0.97761530  0.26036339  0.71277189  1  0  0.068276  0  0.957837  0  0  0.082612  0  1.026436  0  0  0.08384  0  1.025558  0  0  0.092689  0.081627  0  1.027162  0
H  H11  1  0.02237562  0.76035977  0.78722818  1  0  0.068183  0  0.957783  0  0  0.082509  0  1.026411  0  0  0.083721  0  1.02555  0  0  0.092656  0.081509  0  1.027155  0
H  H12  1  0.84732915  0.90426566  0.37707929  1  0  0.109386  0  0.963443  0  0  0.131859  0  1.023724  0  0  0.133155  0  1.02373  0  0  0.080671  0.130851  0  1.02381  0
H  H13  1  0.15268269  0.40426977  0.12292236  1  0  0.109456  0  0.96338  0  0  0.131882  0  1.023714  0  0  0.13318  0  1.023714  0  0  0.080671  0.130874  0  1.023806  0
H  H14  1  0.15267619  0.09573248  0.62292165  1  0  0.109401  0  0.963421  0  0  0.131878  0  1.023705  0  0  0.133176  0  1.023708  0  0  0.080687  0.13087  0  1.023792  0
H  H15  1  0.84731854  0.59572728  0.87707711  1  0  0.109414  0  0.963414  0  0  0.131863  0  1.023728  0  0  0.133159  0  1.023733  0  0  0.080662  0.130854  0  1.023815  0
H  H16  1  0.67650818  0.93017894  0.28861951  1  0  0.097583  0  0.9692  0  0  0.116908  0  1.037019  0  0  0.118315  0  1.037061  0  0  0.07844  0.115829  0  1.037082  0
H  H17  1  0.32349941  0.43018033  0.21138262  1  0  0.097594  0  0.969258  0  0  0.116926  0  1.037045  0  0  0.118334  0  1.037086  0  0  0.078468  0.115849  0  1.037109  0
H  H18  1  0.32349442  0.06981921  0.71138066  1  0  0.097596  0  0.969265  0  0  0.11693  0  1.037066  0  0  0.11834  0  1.037105  0  0  0.078448  0.115851  0  1.037128  0
H  H19  1  0.67649909  0.56981782  0.78861673  1  0  0.09758  0  0.969221  0  0  0.116908  0  1.037022  0  0  0.118315  0  1.037063  0  0  0.078467  0.115831  0  1.037085  0
H  H20  1  0.89946743  0.99940515  0.28240052  1  0  0.104293  0  0.964744  0  0  0.120915  0  1.034675  0  0  0.121904  0  1.03584  0  0  0.07982  0.12015  0  1.033923  0
H  H21  1  0.10054233  0.49941098  0.21759921  1  0  0.104284  0  0.964799  0  0  0.120894  0  1.034742  0  0  0.121881  0  1.035908  0  0  0.07981  0.120131  0  1.03399  0
H  H22  1  0.10053787  0.00059079  0.71759913  1  0  0.10426  0  0.964804  0  0  0.120885  0  1.034742  0  0  0.121874  0  1.035907  0  0  0.079805  0.120118  0  1.03399  0
H  H23  1  0.89945748  0.50058936  0.78239826  1  0  0.104251  0  0.964809  0  0  0.120852  0  1.034765  0  0  0.12184  0  1.035931  0  0  0.079794  0.120088  0  1.034011  0
H  H24  1  0.56900895  0.74327218  0.18507612  1  0  0.065485  0  0.938603  0  0  0.082641  0  1.001807  0  0  0.083184  0  1.001771  0  0  0.097609  0.082165  0  1.001959  0
H  H25  1  0.43099161  0.24327124  0.31491967  1  0  0.065507  0  0.938597  0  0  0.082668  0  1.0018  0  0  0.083216  0  1.001767  0  0  0.097631  0.082188  0  1.001958  0
H  H26  1  0.43098952  0.25673036  0.81492193  1  0  0.065481  0  0.938561  0  0  0.082641  0  1.001779  0  0  0.083186  0  1.001742  0  0  0.097617  0.082162  0  1.001933  0
H  H27  1  0.56900276  0.75673350  0.68507755  1  0  0.065456  0  0.938576  0  0  0.082624  0  1.001775  0  0  0.08317  0  1.00174  0  0  0.097604  0.082149  0  1.001925  0
H  H28  1  0.62154560  0.78267489  0.07885646  1  0  0.034503  0  1.016179  0  0  0.045063  0  1.096415  0  0  0.044868  0  1.096987  0  0  0.076775  0.04505  0  1.096131  0
H  H29  1  0.37846015  0.28268124  0.42114026  1  0  0.034461  0  1.016146  0  0  0.045018  0  1.096419  0  0  0.044831  0  1.09699  0  0  0.076747  0.045002  0  1.096136  0
H  H30  1  0.37845697  0.21732325  0.92114242  1  0  0.034456  0  1.01614  0  0  0.044999  0  1.096409  0  0  0.044802  0  1.096986  0  0  0.076754  0.044986  0  1.096124  0
H  H31  1  0.62153696  0.71732681  0.57885774  1  0  0.03444  0  1.016167  0  0  0.044976  0  1.096442  0  0  0.044785  0  1.097014  0  0  0.07674  0.044961  0  1.096158  0
H  H32  1  0.50511328  0.52755365  0.08791315  1  0  0.108499  0  0.948206  0  0  0.134124  0  1.002868  0  0  0.134851  0  1.00394  0  0  0.089382  0.133559  0  1.002155  0
H  H33  1  0.49490119  0.02756378  0.41208946  1  0  0.108457  0  0.948186  0  0  0.134096  0  1.002838  0  0  0.134824  0  1.003906  0  0  0.089347  0.133528  0  1.002126  0
H  H34  1  0.49488806  0.47244339  0.91209019  1  0  0.108494  0  0.948203  0  0  0.134108  0  1.002877  0  0  0.134835  0  1.003947  0  0  0.089377  0.133542  0  1.002164  0
H  H35  1  0.50510549  0.97244867  0.58791090  1  0  0.108409  0  0.948229  0  0  0.134051  0  1.00289  0  0  0.134778  0  1.003958  0  0  0.089355  0.133484  0  1.002178  0
H  H36  1  0.68250610  0.48232440  0.17023941  1  0  0.09969  0  0.985932  0  0  0.114773  0  1.059397  0  0  0.116823  0  1.058654  0  0  0.071362  0.113235  0  1.060046  0
H  H37  1  0.31750934  0.98232387  0.32976442  1  0  0.099717  0  0.985869  0  0  0.114812  0  1.059317  0  0  0.116861  0  1.058574  0  0  0.071407  0.113274  0  1.059964  0
H  H38  1  0.31749527  0.51767814  0.82976522  1  0  0.099742  0  0.985856  0  0  0.114818  0  1.059317  0  0  0.116869  0  1.058569  0  0  0.071384  0.113278  0  1.059966  0
H  H39  1  0.68250144  0.01767978  0.67023677  1  0  0.099728  0  0.985909  0  0  0.11481  0  1.059374  0  0  0.116857  0  1.058628  0  0  0.071401  0.113272  0  1.060021  0
H  H40  1  0.73427811  0.52393493  0.06348705  1  0  0.106357  0  0.950294  0  0  0.124568  0  1.014909  0  0  0.126256  0  1.014561  0  0  0.081256  0.123283  0  1.01525  0
H  H41  1  0.26573638  0.02394080  0.43651555  1  0  0.10638  0  0.950328  0  0  0.124575  0  1.014962  0  0  0.126267  0  1.014607  0  0  0.081245  0.123289  0  1.015303  0
H  H42  1  0.26572322  0.47606101  0.93651629  1  0  0.10636  0  0.950348  0  0  0.124555  0  1.014968  0  0  0.126244  0  1.014619  0  0  0.081237  0.123272  0  1.015309  0
H  H43  1  0.73427300  0.97606284  0.56348428  1  0  0.106371  0  0.950295  0  0  0.124563  0  1.014931  0  0  0.126253  0  1.014578  0  0  0.081224  0.123277  0  1.015272  0
C  C44  1  0.97280367  0.80110011  0.12398906  1  0  0.256047  0  3.731593  0  0  0.226568  0  4.028626  0  0  0.250835  0  4.038628  0  0  0.131589  0.210379  0  4.021105  0
C  C45  1  0.02719660  0.30110254  0.37601065  1  0  0.255993  0  3.731712  0  0  0.226487  0  4.028724  0  0  0.250754  0  4.038723  0  0  0.131552  0.2103  0  4.021202  0
C  C46  1  0.02719621  0.19889693  0.87601099  1  0  0.255988  0  3.731665  0  0  0.226522  0  4.028674  0  0  0.25079  0  4.038672  0  0  0.131566  0.210334  0  4.021148  0
C  C47  1  0.97280057  0.69889671  0.62398928  1  0  0.256017  0  3.731609  0  0  0.226573  0  4.028659  0  0  0.250842  0  4.038652  0  0  0.131569  0.210384  0  4.021134  0
C  C48  1  0.87760382  0.76201770  0.26854616  1  0  0.044213  0  3.630362  0  0  -0.012593  0  3.887766  0  0  -0.008086  0  3.899843  0  0  -0.069307  -0.015416  0  3.879469  0
C  C49  1  0.12239668  0.26202238  0.23145222  1  0  0.044488  0  3.630206  0  0  -0.012368  0  3.887628  0  0  -0.00788  0  3.899699  0  0  -0.069223  -0.015188  0  3.879331  0
C  C50  1  0.12239468  0.23797935  0.73145318  1  0  0.044257  0  3.630296  0  0  -0.012617  0  3.887804  0  0  -0.008122  0  3.899867  0  0  -0.069305  -0.015445  0  3.879504  0
C  C51  1  0.87759908  0.73797907  0.76854635  1  0  0.044409  0  3.630279  0  0  -0.012371  0  3.88769  0  0  -0.007872  0  3.899764  0  0  -0.069257  -0.015193  0  3.879387  0
C  C52  1  0.82168855  0.90790459  0.30607770  1  0  -0.311972  0  3.691294  0  0  -0.388143  0  3.934543  0  0  -0.391346  0  3.944766  0  0  -0.254417  -0.385714  0  3.927518  0
C  C53  1  0.17831919  0.40790884  0.19392376  1  0  -0.312078  0  3.691317  0  0  -0.388209  0  3.934624  0  0  -0.391413  0  3.944856  0  0  -0.254441  -0.385781  0  3.927599  0
C  C54  1  0.17831408  0.09209135  0.69392312  1  0  -0.311947  0  3.691363  0  0  -0.388117  0  3.934647  0  0  -0.391324  0  3.944873  0  0  -0.254416  -0.385692  0  3.927626  0
C  C55  1  0.82167932  0.59208930  0.80607558  1  0  -0.311959  0  3.691231  0  0  -0.38812  0  3.93456  0  0  -0.391323  0  3.944792  0  0  -0.254414  -0.385692  0  3.927533  0
C  C56  1  0.66082869  0.71518072  0.13644137  1  0  0.044618  0  3.659304  0  0  -0.011011  0  3.913576  0  0  -0.006173  0  3.926406  0  0  -0.071964  -0.014126  0  3.904808  0
C  C57  1  0.33917212  0.21518153  0.36355633  1  0  0.044628  0  3.65933  0  0  -0.011019  0  3.913554  0  0  -0.006216  0  3.926431  0  0  -0.071961  -0.014128  0  3.904785  0
C  C58  1  0.33917253  0.28481962  0.86355810  1  0  0.044676  0  3.659244  0  0  -0.010939  0  3.9135  0  0  -0.006114  0  3.926357  0  0  -0.071943  -0.014053  0  3.904727  0
C  C59  1  0.66082635  0.78482101  0.63644172  1  0  0.044698  0  3.6592  0  0  -0.010863  0  3.913442  0  0  -0.006047  0  3.926301  0  0  -0.071929  -0.013982  0  3.904673  0
C  C60  1  0.64601945  0.55249392  0.11348335  1  0  -0.315373  0  3.700805  0  0  -0.389647  0  3.942035  0  0  -0.39285  0  3.95157  0  0  -0.254883  -0.38717  0  3.935471  0
C  C61  1  0.35399344  0.05249804  0.38651793  1  0  -0.315381  0  3.700739  0  0  -0.389672  0  3.941995  0  0  -0.392866  0  3.951532  0  0  -0.254883  -0.387192  0  3.935418  0
C  C62  1  0.35398184  0.44750533  0.88651870  1  0  -0.315438  0  3.700866  0  0  -0.389673  0  3.942099  0  0  -0.392872  0  3.95163  0  0  -0.254883  -0.387195  0  3.935531  0
C  C63  1  0.64601458  0.94750780  0.61348185  1  0  -0.315356  0  3.700748  0  0  -0.389624  0  3.941981  0  0  -0.39283  0  3.951544  0  0  -0.254864  -0.387136  0  3.935378  0
S  S64  1  0.93137270  0.79467894  0.01093757  1  0  -0.381689  0  2.218282  0  0  -0.326995  0  2.56451  0  0  -0.346606  0  2.558273  0  0  -0.186203  -0.313234  0  2.568075  0
S  S65  1  0.06863302  0.29468160  0.48906110  1  0  -0.38162  0  2.218327  0  0  -0.326937  0  2.564557  0  0  -0.346565  0  2.558355  0  0  -0.186161  -0.313175  0  2.568127  0
S  S66  1  0.06862987  0.20531810  0.98906132  1  0  -0.381661  0  2.218371  0  0  -0.326969  0  2.564578  0  0  -0.346597  0  2.558375  0  0  -0.186171  -0.31321  0  2.568149  0
S  S67  1  0.93136412  0.70531874  0.51093819  1  0  -0.381646  0  2.218326  0  0  -0.326943  0  2.56451  0  0  -0.346583  0  2.558334  0  0  -0.186161  -0.313187  0  2.568087  0
S  S68  1  0.18407573  0.85611179  0.16990208  1  0  -0.344099  0  2.136121  0  0  -0.307171  0  2.47935  0  0  -0.325893  0  2.474497  0  0  -0.163603  -0.294458  0  2.482306  0
S  S69  1  0.81592554  0.35611228  0.33009839  1  0  -0.344038  0  2.136159  0  0  -0.307104  0  2.479367  0  0  -0.325825  0  2.474519  0  0  -0.163577  -0.294388  0  2.482321  0
S  S70  1  0.81592686  0.14388306  0.83009745  1  0  -0.344092  0  2.136138  0  0  -0.307166  0  2.479346  0  0  -0.325888  0  2.474495  0  0  -0.163614  -0.294457  0  2.482302  0
S  S71  1  0.18406890  0.64388697  0.66990142  1  0  -0.344028  0  2.136238  0  0  -0.307085  0  2.479432  0  0  -0.325803  0  2.474577  0  0  -0.163557  -0.294371  0  2.482386  0
I  I72  1  0.42459706  0.85879894  0.88738646  1  0  -0.34906  0  1.2359  0  0  -0.28692  0  1.573446  0  0  -0.306374  0  1.554569  0  0  -0.149217  -0.273405  0  1.586142  0
I  I73  1  0.57540405  0.35879868  0.61261419  1  0  -0.34903  0  1.235915  0  0  -0.286897  0  1.573483  0  0  -0.306347  0  1.55461  0  0  -0.149212  -0.273382  0  1.586183  0
I  I74  1  0.57540689  0.14120030  0.11261313  1  0  -0.349058  0  1.235885  0  0  -0.286926  0  1.573448  0  0  -0.306378  0  1.554573  0  0  -0.149221  -0.273411  0  1.586145  0
I  I75  1  0.42459315  0.64120166  0.38738703  1  0  -0.349033  0  1.235884  0  0  -0.286903  0  1.573451  0  0  -0.306353  0  1.554573  0  0  -0.149217  -0.273386  0  1.58615  0
N  N76  1  0.84486167  0.75969866  0.17313140  1  0  -0.114773  0  3.392734  0  0  -0.01423  0  3.609738  0  0  -0.03272  0  3.633806  0  0  -0.249708  -0.002069  0  3.59333  0
N  N77  1  0.15514019  0.25970026  0.32686640  1  0  -0.114936  0  3.392945  0  0  -0.014294  0  3.609878  0  0  -0.032775  0  3.633957  0  0  -0.249789  -0.002134  0  3.593468  0
N  N78  1  0.15513821  0.24030058  0.82686865  1  0  -0.114742  0  3.39265  0  0  -0.014176  0  3.609668  0  0  -0.032665  0  3.633741  0  0  -0.249709  -0.002015  0  3.593258  0
N  N79  1  0.84485425  0.74030119  0.67313341  1  0  -0.114843  0  3.392756  0  0  -0.014437  0  3.609952  0  0  -0.03292  0  3.634021  0  0  -0.24978  -0.002275  0  3.59354  0
