# generated using pymatgen
data_CdH32C38(SN7)2
_symmetry_space_group_name_H-M   'P 1'
_cell_length_a   9.23606510
_cell_length_b   9.38653545
_cell_length_c   13.86689541
_cell_angle_alpha   90.06039111
_cell_angle_beta   90.13668978
_cell_angle_gamma   60.52983419
_symmetry_Int_Tables_number   1
_chemical_formula_structural   CdH32C38(SN7)2
_chemical_formula_sum   'Cd1 H32 C38 S2 N14'
_cell_volume   1046.63427221
_cell_formula_units_Z   1
loop_
 _symmetry_equiv_pos_site_id
 _symmetry_equiv_pos_as_xyz
  1  'x, y, z'
loop_
 _atom_site_type_symbol
 _atom_site_label
 _atom_site_symmetry_multiplicity
 _atom_site_fract_x
 _atom_site_fract_y
 _atom_site_fract_z
 _atom_site_occupancy
 _atom_site_hle17_bader_spin_density
 _atom_site_hle17_ddec_charge
 _atom_site_hle17_ddec_spin_density
 _atom_site_hle17_ddec_sum_bond_order
 _atom_site_hle17_magmom
 _atom_site_hse06_10hf_bader_spin_density
 _atom_site_hse06_10hf_ddec_charge
 _atom_site_hse06_10hf_ddec_spin_density
 _atom_site_hse06_10hf_ddec_sum_bond_order
 _atom_site_hse06_10hf_magmom
 _atom_site_hse06_bader_spin_density
 _atom_site_hse06_ddec_charge
 _atom_site_hse06_ddec_spin_density
 _atom_site_hse06_ddec_sum_bond_order
 _atom_site_hse06_magmom
 _atom_site_pbe_bader_spin_density
 _atom_site_pbe_cm5_charge
 _atom_site_pbe_ddec_charge
 _atom_site_pbe_ddec_spin_density
 _atom_site_pbe_ddec_sum_bond_order
 _atom_site_pbe_magmom
Cd  Cd0  1  0.00000407  0.99999843  0.00000626  1  0  1.047756  0  1.93579  0  0  0.85309  0  2.405416  0  0  0.89972  0  2.365499  0  0  0.801784  0.820426  0  2.432442  0
H  H1  1  0.74879824  0.78926004  0.01649638  1  0  0.085479  0  0.952312  0  0  0.092547  0  1.020214  0  0  0.094139  0  1.018373  0  0  0.1233  0.091322  0  1.021566  0
H  H2  1  0.46179769  0.78933897  0.98350618  1  0  0.085312  0  0.952112  0  0  0.092384  0  1.020058  0  0  0.093978  0  1.018211  0  0  0.123304  0.091158  0  1.021409  0
H  H3  1  0.25120150  0.21073643  0.98350614  1  0  0.08546  0  0.952312  0  0  0.092541  0  1.020206  0  0  0.094135  0  1.01836  0  0  0.1233  0.091316  0  1.021558  0
H  H4  1  0.53820043  0.21065628  0.01649494  1  0  0.085284  0  0.95218  0  0  0.092379  0  1.020103  0  0  0.093974  0  1.018255  0  0  0.123302  0.091157  0  1.021455  0
H  H5  1  0.19751648  0.67828806  0.15499623  1  0  0.105121  0  0.958383  0  0  0.108695  0  1.035451  0  0  0.111516  0  1.03155  0  0  0.136352  0.106628  0  1.038088  0
H  H6  1  0.12421568  0.67813056  0.84499309  1  0  0.10529  0  0.958294  0  0  0.108818  0  1.035379  0  0  0.111676  0  1.031447  0  0  0.136348  0.106741  0  1.03804  0
H  H7  1  0.80249550  0.32168761  0.84499976  1  0  0.105228  0  0.958466  0  0  0.108758  0  1.035518  0  0  0.111607  0  1.031633  0  0  0.136416  0.106699  0  1.038138  0
H  H8  1  0.87576849  0.32188182  0.15500886  1  0  0.105208  0  0.958243  0  0  0.108734  0  1.035358  0  0  0.111591  0  1.031423  0  0  0.136297  0.10666  0  1.038007  0
H  H9  1  0.24866913  0.42471861  0.24140371  1  0  0.095293  0  0.940044  0  0  0.106635  0  1.011167  0  0  0.107009  0  1.012254  0  0  0.115622  0.106332  0  1.010475  0
H  H10  1  0.32657427  0.42481495  0.75860156  1  0  0.09531  0  0.939961  0  0  0.106725  0  1.01104  0  0  0.107092  0  1.01213  0  0  0.115697  0.106425  0  1.010345  0
H  H11  1  0.75133990  0.57526684  0.75858791  1  0  0.095272  0  0.939987  0  0  0.106648  0  1.011142  0  0  0.107022  0  1.012228  0  0  0.115618  0.106343  0  1.010457  0
H  H12  1  0.67341461  0.57518152  0.24140046  1  0  0.095315  0  0.939896  0  0  0.106738  0  1.010946  0  0  0.107105  0  1.012036  0  0  0.11573  0.106433  0  1.010258  0
H  H13  1  0.18283769  0.30783800  0.17383916  1  0  0.088872  0  0.953747  0  0  0.100786  0  1.023675  0  0  0.100963  0  1.02383  0  0  0.107281  0.100613  0  1.023544  0
H  H14  1  0.50929604  0.30777817  0.82617327  1  0  0.089122  0  0.953591  0  0  0.101109  0  1.023442  0  0  0.101321  0  1.023553  0  0  0.107511  0.100922  0  1.023319  0
H  H15  1  0.81715811  0.69214868  0.82615993  1  0  0.088796  0  0.953836  0  0  0.10081  0  1.023695  0  0  0.100986  0  1.023848  0  0  0.107283  0.100646  0  1.023554  0
H  H16  1  0.49069754  0.69222809  0.17382567  1  0  0.08904  0  0.953666  0  0  0.101081  0  1.023441  0  0  0.101294  0  1.023555  0  0  0.107494  0.100888  0  1.023328  0
H  H17  1  0.92720126  0.68022913  0.32942273  1  0  0.093033  0  0.942255  0  0  0.105617  0  0.998582  0  0  0.108308  0  0.997702  0  0  0.10213  0.103735  0  0.999207  0
H  H18  1  0.39251219  0.68019398  0.67059226  1  0  0.093204  0  0.942118  0  0  0.105861  0  0.99843  0  0  0.108554  0  0.997545  0  0  0.102209  0.103979  0  0.999054  0
H  H19  1  0.07280927  0.31976856  0.67056945  1  0  0.093031  0  0.942193  0  0  0.105722  0  0.998488  0  0  0.108412  0  0.997606  0  0  0.102164  0.103839  0  0.999117  0
H  H20  1  0.60747057  0.31980738  0.32940117  1  0  0.093144  0  0.94216  0  0  0.105877  0  0.99838  0  0  0.10854  0  0.997533  0  0  0.102208  0.10399  0  0.999017  0
H  H21  1  0.76471652  0.67908092  0.46910514  1  0  0.090534  0  0.948279  0  0  0.104168  0  1.002913  0  0  0.107019  0  1.001755  0  0  0.102399  0.102142  0  1.003798  0
H  H22  1  0.55624663  0.67917014  0.53097726  1  0  0.090342  0  0.948191  0  0  0.104004  0  1.002824  0  0  0.10685  0  1.001674  0  0  0.102338  0.101977  0  1.003709  0
H  H23  1  0.23528674  0.32094002  0.53088767  1  0  0.090482  0  0.948209  0  0  0.104093  0  1.002868  0  0  0.106943  0  1.00171  0  0  0.102368  0.102067  0  1.003752  0
H  H24  1  0.44375373  0.32083122  0.46902158  1  0  0.090304  0  0.948105  0  0  0.103951  0  1.002766  0  0  0.106807  0  1.001603  0  0  0.102304  0.101923  0  1.003653  0
H  H25  1  0.93910623  0.16531490  0.42431055  1  0  0.081689  0  0.960759  0  0  0.094714  0  1.019193  0  0  0.097538  0  1.017607  0  0  0.096378  0.092692  0  1.020385  0
H  H26  1  0.89547613  0.16525398  0.57564075  1  0  0.081598  0  0.960174  0  0  0.09461  0  1.018703  0  0  0.097435  0  1.017118  0  0  0.096405  0.092587  0  1.019893  0
H  H27  1  0.06087954  0.83470360  0.57569780  1  0  0.081627  0  0.960641  0  0  0.094664  0  1.01907  0  0  0.097488  0  1.017485  0  0  0.096375  0.092643  0  1.020262  0
H  H28  1  0.10452596  0.83475105  0.42436452  1  0  0.081637  0  0.960169  0  0  0.094629  0  1.01871  0  0  0.097454  0  1.017126  0  0  0.096409  0.092606  0  1.019901  0
H  H29  1  0.10856937  0.16554935  0.28745425  1  0  0.098392  0  0.977964  0  0  0.108941  0  1.03864  0  0  0.111027  0  1.038461  0  0  0.097793  0.107419  0  1.038853  0
H  H30  1  0.72577663  0.16546924  0.71251723  1  0  0.098083  0  0.977763  0  0  0.108673  0  1.038521  0  0  0.110755  0  1.038349  0  0  0.097758  0.107158  0  1.038726  0
H  H31  1  0.89142107  0.83445079  0.71255059  1  0  0.098313  0  0.977962  0  0  0.108922  0  1.03865  0  0  0.11101  0  1.03847  0  0  0.097774  0.1074  0  1.038867  0
H  H32  1  0.27421273  0.83453456  0.28748109  1  0  0.098128  0  0.977723  0  0  0.108688  0  1.038493  0  0  0.110771  0  1.038321  0  0  0.097725  0.107167  0  1.038703  0
C  C33  1  0.86065196  0.72857897  0.06023818  1  0  0.210851  0  3.712071  0  0  0.15954  0  4.001784  0  0  0.171713  0  4.014301  0  0  0.139005  0.151693  0  3.99293  0
C  C34  1  0.41072201  0.72853370  0.93979593  1  0  0.21087  0  3.712316  0  0  0.159542  0  4.002078  0  0  0.171716  0  4.014589  0  0  0.138904  0.151701  0  3.993214  0
C  C35  1  0.13934575  0.27141505  0.93976440  1  0  0.210886  0  3.712161  0  0  0.159568  0  4.001854  0  0  0.171741  0  4.014367  0  0  0.139013  0.151722  0  3.992995  0
C  C36  1  0.58927362  0.27146399  0.06020161  1  0  0.210817  0  3.712397  0  0  0.159456  0  4.002154  0  0  0.171632  0  4.014662  0  0  0.138876  0.151605  0  3.993308  0
C  C37  1  0.08659026  0.67759884  0.13025166  1  0  0.175634  0  3.655866  0  0  0.095957  0  3.922273  0  0  0.111442  0  3.932644  0  0  0.160331  0.086315  0  3.914768  0
C  C38  1  0.23579043  0.67754102  0.86976927  1  0  0.175691  0  3.655658  0  0  0.095877  0  3.921936  0  0  0.111328  0  3.932297  0  0  0.160318  0.086247  0  3.914411  0
C  C39  1  0.91341301  0.32239029  0.86974798  1  0  0.175367  0  3.656408  0  0  0.095734  0  3.922786  0  0  0.111168  0  3.933121  0  0  0.160183  0.086092  0  3.915283  0
C  C40  1  0.76419774  0.32246523  0.13022978  1  0  0.175913  0  3.655573  0  0  0.096088  0  3.921855  0  0  0.111543  0  3.932211  0  0  0.160445  0.08644  0  3.914351  0
C  C41  1  0.13779933  0.42051255  0.21626661  1  0  -0.059142  0  3.653675  0  0  -0.139328  0  3.899319  0  0  -0.134927  0  3.909557  0  0  -0.0435  -0.141968  0  3.892228  0
C  C42  1  0.44170870  0.42046622  0.78374504  1  0  -0.058794  0  3.653548  0  0  -0.139703  0  3.899339  0  0  -0.135295  0  3.909492  0  0  -0.043795  -0.142331  0  3.892262  0
C  C43  1  0.86220527  0.57947780  0.78372866  1  0  -0.05866  0  3.653666  0  0  -0.139213  0  3.899343  0  0  -0.134813  0  3.909575  0  0  -0.043421  -0.141865  0  3.892264  0
C  C44  1  0.55827727  0.57954004  0.21625333  1  0  -0.058872  0  3.653534  0  0  -0.139724  0  3.899234  0  0  -0.135317  0  3.909392  0  0  -0.043913  -0.142369  0  3.89218  0
C  C45  1  0.03215147  0.42219562  0.29964885  1  0  0.070966  0  3.746671  0  0  0.08955  0  3.991455  0  0  0.088889  0  4.015108  0  0  -0.012762  0.090071  0  3.975275  0
C  C46  1  0.54564767  0.42218621  0.70038807  1  0  0.07014  0  3.747243  0  0  0.089811  0  3.991488  0  0  0.089139  0  4.015138  0  0  -0.012754  0.090336  0  3.975302  0
C  C47  1  0.96786533  0.57779717  0.70035480  1  0  0.070223  0  3.746769  0  0  0.089535  0  3.991526  0  0  0.088875  0  4.01518  0  0  -0.012787  0.090054  0  3.975345  0
C  C48  1  0.45434101  0.57781882  0.29960881  1  0  0.07024  0  3.747196  0  0  0.089796  0  3.991575  0  0  0.089126  0  4.015222  0  0  -0.012737  0.090317  0  3.975394  0
C  C49  1  0.93090777  0.56650179  0.35053464  1  0  -0.108587  0  3.756058  0  0  -0.131882  0  4.011055  0  0  -0.133449  0  4.031305  0  0  -0.091065  -0.130698  0  3.997156  0
C  C50  1  0.50259937  0.56651148  0.64950926  1  0  -0.108693  0  3.755763  0  0  -0.132602  0  4.010911  0  0  -0.134167  0  4.031157  0  0  -0.091407  -0.131414  0  3.997006  0
C  C51  1  0.06910464  0.43349712  0.64946399  1  0  -0.108175  0  3.755818  0  0  -0.131986  0  4.011032  0  0  -0.133551  0  4.031285  0  0  -0.091066  -0.1308  0  3.997134  0
C  C52  1  0.49738771  0.43349233  0.35048695  1  0  -0.10863  0  3.755927  0  0  -0.132585  0  4.011126  0  0  -0.13413  0  4.031387  0  0  -0.091421  -0.131402  0  3.997231  0
C  C53  1  0.83688761  0.56621175  0.42862076  1  0  -0.098608  0  3.739707  0  0  -0.117367  0  3.988546  0  0  -0.119962  0  4.009524  0  0  -0.086167  -0.115575  0  3.974313  0
C  C54  1  0.59691786  0.56621416  0.57140791  1  0  -0.098322  0  3.738952  0  0  -0.116997  0  3.987927  0  0  -0.119586  0  4.008912  0  0  -0.085939  -0.115204  0  3.973687  0
C  C55  1  0.16311810  0.43380062  0.57137859  1  0  -0.098581  0  3.739608  0  0  -0.117194  0  3.988569  0  0  -0.119788  0  4.009551  0  0  -0.086109  -0.1154  0  3.974333  0
C  C56  1  0.40307904  0.43379210  0.42859240  1  0  -0.098278  0  3.738927  0  0  -0.116934  0  3.987898  0  0  -0.119529  0  4.008875  0  0  -0.085885  -0.115141  0  3.973658  0
C  C57  1  0.83864212  0.42203921  0.45830612  1  0  0.046113  0  3.792392  0  0  0.058832  0  4.027772  0  0  0.058716  0  4.053048  0  0  -0.009271  0.058904  0  4.01064  0
C  C58  1  0.73933253  0.42205076  0.54172540  1  0  0.046289  0  3.791424  0  0  0.058906  0  4.026918  0  0  0.058794  0  4.052191  0  0  -0.009168  0.05898  0  4.009792  0
C  C59  1  0.16136741  0.57796827  0.54169897  1  0  0.046077  0  3.792408  0  0  0.058679  0  4.027931  0  0  0.058563  0  4.053207  0  0  -0.009326  0.058753  0  4.010802  0
C  C60  1  0.26067102  0.57795794  0.45828052  1  0  0.046353  0  3.791549  0  0  0.059033  0  4.027039  0  0  0.058924  0  4.052308  0  0  -0.009099  0.059105  0  4.009907  0
C  C61  1  0.93862664  0.27847905  0.40578798  1  0  -0.111951  0  3.762716  0  0  -0.131235  0  4.009946  0  0  -0.134393  0  4.032015  0  0  -0.093812  -0.129001  0  3.994911  0
C  C62  1  0.78283449  0.27844850  0.59423388  1  0  -0.11208  0  3.761156  0  0  -0.131272  0  4.008625  0  0  -0.134432  0  4.030692  0  0  -0.093915  -0.129037  0  3.993589  0
C  C63  1  0.06137308  0.72153088  0.59421873  1  0  -0.11196  0  3.762177  0  0  -0.131107  0  4.009537  0  0  -0.134264  0  4.031604  0  0  -0.093831  -0.128874  0  3.994499  0
C  C64  1  0.21716295  0.72155898  0.40576784  1  0  -0.112243  0  3.761145  0  0  -0.131423  0  4.008596  0  0  -0.134584  0  4.030665  0  0  -0.094039  -0.129188  0  3.99356  0
C  C65  1  0.03457753  0.27803668  0.32815271  1  0  -0.127593  0  3.766996  0  0  -0.143479  0  4.007787  0  0  -0.146461  0  4.030645  0  0  -0.096637  -0.141394  0  3.992232  0
C  C66  1  0.68730265  0.27801044  0.67184845  1  0  -0.12648  0  3.766041  0  0  -0.142921  0  4.006885  0  0  -0.145908  0  4.029764  0  0  -0.096437  -0.140837  0  3.991335  0
C  C67  1  0.96541911  0.72196590  0.67184908  1  0  -0.12713  0  3.766688  0  0  -0.143522  0  4.007746  0  0  -0.146504  0  4.030605  0  0  -0.096599  -0.141439  0  3.992201  0
C  C68  1  0.31269141  0.72199704  0.32815046  1  0  -0.126488  0  3.765899  0  0  -0.142866  0  4.006756  0  0  -0.145855  0  4.029634  0  0  -0.096328  -0.140779  0  3.991197  0
C  C69  1  0.29118024  0.00014110  0.13828263  1  0  0.267607  0  4.107253  0  0  0.251799  0  4.411788  0  0  0.274413  0  4.424727  0  0  0.124502  0.236511  0  4.40264  0
C  C70  1  0.70885235  0.99984802  0.86171856  1  0  0.267707  0  4.107691  0  0  0.251893  0  4.412212  0  0  0.274506  0  4.425158  0  0  0.124614  0.236604  0  4.403061  0
S  S71  1  0.46458203  0.00010490  0.15431547  1  0  -0.374513  0  1.988891  0  0  -0.359142  0  2.260337  0  0  -0.373446  0  2.256366  0  0  -0.180193  -0.349061  0  2.262768  0
S  S72  1  0.53545406  0.99988790  0.84568416  1  0  -0.374523  0  1.988978  0  0  -0.35914  0  2.26041  0  0  -0.373443  0  2.256439  0  0  -0.18019  -0.349054  0  2.262842  0
N  N73  1  0.96966940  0.78628882  0.07160472  1  0  -0.410799  0  3.181027  0  0  -0.339181  0  3.467639  0  0  -0.361429  0  3.482173  0  0  -0.348304  -0.324065  0  3.457066  0
N  N74  1  0.24401111  0.78621745  0.92842687  1  0  -0.410719  0  3.181432  0  0  -0.339078  0  3.468059  0  0  -0.361326  0  3.4826  0  0  -0.348241  -0.323961  0  3.457476  0
N  N75  1  0.03033062  0.21370275  0.92839785  1  0  -0.410638  0  3.181036  0  0  -0.339032  0  3.467625  0  0  -0.361277  0  3.48217  0  0  -0.348245  -0.323916  0  3.45705  0
N  N76  1  0.75598434  0.21378513  0.07157278  1  0  -0.41069  0  3.181412  0  0  -0.339047  0  3.468047  0  0  -0.361294  0  3.482582  0  0  -0.34823  -0.323935  0  3.457484  0
N  N77  1  0.90359113  0.59149698  0.10886353  1  0  -0.282474  0  2.847174  0  0  -0.284154  0  3.11702  0  0  -0.292636  0  3.13105  0  0  -0.22582  -0.278143  0  3.107485  0
N  N78  1  0.50489600  0.59147818  0.89116763  1  0  -0.282671  0  2.847392  0  0  -0.284548  0  3.117178  0  0  -0.293028  0  3.13121  0  0  -0.22598  -0.278526  0  3.107643  0
N  N79  1  0.09640705  0.40849582  0.89113617  1  0  -0.282536  0  2.847451  0  0  -0.284231  0  3.117284  0  0  -0.292713  0  3.131313  0  0  -0.225844  -0.278216  0  3.107744  0
N  N80  1  0.49509458  0.40852074  0.10882784  1  0  -0.282471  0  2.847332  0  0  -0.284313  0  3.117114  0  0  -0.292796  0  3.131142  0  0  -0.225883  -0.278307  0  3.107578  0
N  N81  1  0.04834891  0.56098803  0.15283993  1  0  0.042757  0  3.574741  0  0  0.16744  0  3.756633  0  0  0.156124  0  3.781185  0  0  -0.134433  0.173554  0  3.742285  0
N  N82  1  0.39065669  0.56093071  0.84719579  1  0  0.042159  0  3.574444  0  0  0.167462  0  3.75575  0  0  0.156128  0  3.780318  0  0  -0.134336  0.173525  0  3.741496  0
N  N83  1  0.95165090  0.43900354  0.84715831  1  0  0.042648  0  3.575008  0  0  0.167445  0  3.756852  0  0  0.156132  0  3.781407  0  0  -0.134434  0.17356  0  3.742501  0
N  N84  1  0.60932791  0.43907800  0.15279970  1  0  0.041935  0  3.574473  0  0  0.167186  0  3.755889  0  0  0.155852  0  3.780461  0  0  -0.134413  0.173339  0  3.741471  0
N  N85  1  0.16254583  0.00016094  0.12876446  1  0  -0.588256  0  2.820536  0  0  -0.532719  0  3.094581  0  0  -0.553053  0  3.098488  0  0  -0.422855  -0.518732  0  3.091736  0
N  N86  1  0.83748532  0.99982696  0.87123894  1  0  -0.588386  0  2.821045  0  0  -0.532817  0  3.095035  0  0  -0.553142  0  3.098931  0  0  -0.422976  -0.518828  0  3.092186  0
