# generated using pymatgen
data_CdH11C6N(ClO)2
_symmetry_space_group_name_H-M   'P 1'
_cell_length_a   6.86727140
_cell_length_b   9.78966628
_cell_length_c   13.49781601
_cell_angle_alpha   89.99989981
_cell_angle_beta   90.00004519
_cell_angle_gamma   89.99986448
_symmetry_Int_Tables_number   1
_chemical_formula_structural   CdH11C6N(ClO)2
_chemical_formula_sum   'Cd4 H44 C24 N4 Cl8 O8'
_cell_volume   907.43515987
_cell_formula_units_Z   4
loop_
 _symmetry_equiv_pos_site_id
 _symmetry_equiv_pos_as_xyz
  1  'x, y, z'
loop_
 _atom_site_type_symbol
 _atom_site_label
 _atom_site_symmetry_multiplicity
 _atom_site_fract_x
 _atom_site_fract_y
 _atom_site_fract_z
 _atom_site_occupancy
 _atom_site_hle17_bader_spin_density
 _atom_site_hle17_ddec_charge
 _atom_site_hle17_ddec_spin_density
 _atom_site_hle17_ddec_sum_bond_order
 _atom_site_hle17_magmom
 _atom_site_hse06_10hf_bader_spin_density
 _atom_site_hse06_10hf_ddec_charge
 _atom_site_hse06_10hf_ddec_spin_density
 _atom_site_hse06_10hf_ddec_sum_bond_order
 _atom_site_hse06_10hf_magmom
 _atom_site_hse06_bader_spin_density
 _atom_site_hse06_ddec_charge
 _atom_site_hse06_ddec_spin_density
 _atom_site_hse06_ddec_sum_bond_order
 _atom_site_hse06_magmom
 _atom_site_pbe_bader_spin_density
 _atom_site_pbe_cm5_charge
 _atom_site_pbe_ddec_charge
 _atom_site_pbe_ddec_spin_density
 _atom_site_pbe_ddec_sum_bond_order
 _atom_site_pbe_magmom
Cd  Cd0  1  0.16085244  0.23838896  0.02371113  1  0  1.028521  0  1.890067  0  0  0.880442  0  2.338316  0  0  0.930964  0  2.289619  0  0  0.590052  0.844605  0  2.3715  0
Cd  Cd1  1  0.66085086  0.26161086  0.97628680  1  0  1.0285  0  1.890095  0  0  0.880412  0  2.338347  0  0  0.930934  0  2.289651  0  0  0.590026  0.844573  0  2.371535  0
Cd  Cd2  1  0.83914611  0.73838855  0.47628712  1  0  1.028538  0  1.890039  0  0  0.880432  0  2.33832  0  0  0.930951  0  2.289625  0  0  0.590043  0.844591  0  2.371503  0
Cd  Cd3  1  0.33914839  0.76161136  0.52371246  1  0  1.028509  0  1.8901  0  0  0.880429  0  2.338334  0  0  0.930949  0  2.289637  0  0  0.590038  0.844585  0  2.371528  0
H  H4  1  0.97885746  0.12871318  0.24722307  1  0  0.309801  0  0.857488  0  0  0.291152  0  0.918895  0  0  0.29917  0  0.912441  0  0  0.312736  0.28534  0  0.923671  0
H  H5  1  0.47885828  0.37128611  0.75277720  1  0  0.309787  0  0.857499  0  0  0.29114  0  0.9189  0  0  0.299158  0  0.912446  0  0  0.312724  0.285327  0  0.923676  0
H  H6  1  0.02114146  0.62871365  0.25277754  1  0  0.309778  0  0.857525  0  0  0.291133  0  0.918919  0  0  0.29915  0  0.912465  0  0  0.312716  0.28532  0  0.923696  0
H  H7  1  0.52114352  0.87128781  0.74722266  1  0  0.309792  0  0.857527  0  0  0.291149  0  0.918915  0  0  0.299167  0  0.91246  0  0  0.312742  0.285337  0  0.923692  0
H  H8  1  0.79349107  0.21920064  0.20083992  1  0  0.292876  0  0.891909  0  0  0.272306  0  0.958479  0  0  0.280032  0  0.952775  0  0  0.298636  0.266692  0  0.962764  0
H  H9  1  0.29349081  0.28079998  0.79916028  1  0  0.292831  0  0.891907  0  0  0.272264  0  0.958482  0  0  0.27999  0  0.952776  0  0  0.298619  0.26665  0  0.962763  0
H  H10  1  0.20651045  0.71919967  0.29916058  1  0  0.292835  0  0.891895  0  0  0.272265  0  0.958471  0  0  0.27999  0  0.952768  0  0  0.298616  0.266652  0  0.962752  0
H  H11  1  0.70650983  0.78080046  0.70083970  1  0  0.292849  0  0.891902  0  0  0.272276  0  0.958487  0  0  0.280001  0  0.952783  0  0  0.298625  0.266662  0  0.962768  0
H  H12  1  0.39390772  0.04720926  0.32869322  1  0  0.098399  0  0.942233  0  0  0.105039  0  1.007935  0  0  0.107623  0  1.006815  0  0  0.095312  0.103103  0  1.008937  0
H  H13  1  0.89390793  0.45279120  0.67130775  1  0  0.098384  0  0.942234  0  0  0.105031  0  1.007938  0  0  0.107614  0  1.006819  0  0  0.095306  0.103092  0  1.008943  0
H  H14  1  0.60609001  0.54720895  0.17130601  1  0  0.098397  0  0.942203  0  0  0.10501  0  1.00794  0  0  0.10759  0  1.006824  0  0  0.095303  0.10308  0  1.008937  0
H  H15  1  0.10609213  0.95278930  0.82869274  1  0  0.098401  0  0.942248  0  0  0.105048  0  1.007933  0  0  0.107631  0  1.006814  0  0  0.095317  0.10311  0  1.008937  0
H  H16  1  0.53402000  0.18514730  0.45340297  1  0  0.077047  0  0.960791  0  0  0.094807  0  1.023716  0  0  0.095962  0  1.024053  0  0  0.084557  0.093866  0  1.023623  0
H  H17  1  0.03402069  0.31485172  0.54659787  1  0  0.077044  0  0.960859  0  0  0.094817  0  1.023768  0  0  0.095978  0  1.0241  0  0  0.084562  0.093875  0  1.023674  0
H  H18  1  0.46597872  0.68514957  0.04659757  1  0  0.076993  0  0.96087  0  0  0.09476  0  1.023805  0  0  0.095911  0  1.024149  0  0  0.084554  0.093819  0  1.023712  0
H  H19  1  0.96597984  0.81485115  0.95340207  1  0  0.077042  0  0.960827  0  0  0.094801  0  1.02377  0  0  0.09596  0  1.024103  0  0  0.08455  0.093859  0  1.023676  0
H  H20  1  0.36559626  0.29139833  0.39066902  1  0  0.076475  0  0.931943  0  0  0.093115  0  0.994536  0  0  0.094303  0  0.994476  0  0  0.088289  0.091928  0  0.995104  0
H  H21  1  0.86559719  0.20860320  0.60933269  1  0  0.076427  0  0.931937  0  0  0.09307  0  0.994555  0  0  0.094259  0  0.994495  0  0  0.088271  0.091882  0  0.995122  0
H  H22  1  0.63440211  0.79139710  0.10933139  1  0  0.076371  0  0.931956  0  0  0.09304  0  0.994557  0  0  0.094228  0  0.994497  0  0  0.088254  0.091852  0  0.995126  0
H  H23  1  0.13440369  0.70860110  0.89066811  1  0  0.076477  0  0.931887  0  0  0.093122  0  0.994499  0  0  0.094309  0  0.994441  0  0  0.088303  0.091934  0  0.995065  0
H  H24  1  0.68434568  0.41171060  0.42634515  1  0  0.08802  0  0.957556  0  0  0.10179  0  1.023373  0  0  0.102759  0  1.023918  0  0  0.085215  0.100972  0  1.023137  0
H  H25  1  0.18434571  0.08829021  0.57365501  1  0  0.088014  0  0.957572  0  0  0.10178  0  1.023396  0  0  0.10275  0  1.02394  0  0  0.085217  0.100963  0  1.02316  0
H  H26  1  0.31565228  0.91171203  0.07365511  1  0  0.088013  0  0.957548  0  0  0.101785  0  1.023369  0  0  0.102754  0  1.023913  0  0  0.085218  0.100968  0  1.023133  0
H  H27  1  0.81565412  0.58828893  0.92634595  1  0  0.088007  0  0.957551  0  0  0.101771  0  1.023377  0  0  0.10274  0  1.023923  0  0  0.085212  0.100954  0  1.023143  0
H  H28  1  0.63693521  0.40327128  0.29802142  1  0  0.074886  0  0.959085  0  0  0.09155  0  1.022868  0  0  0.092024  0  1.023942  0  0  0.090207  0.091315  0  1.022065  0
H  H29  1  0.13693687  0.09672756  0.70197872  1  0  0.074869  0  0.959103  0  0  0.09154  0  1.022873  0  0  0.092014  0  1.023946  0  0  0.090202  0.091305  0  1.022069  0
H  H30  1  0.36306424  0.90327335  0.20197810  1  0  0.074868  0  0.959096  0  0  0.091549  0  1.022862  0  0  0.092023  0  1.023934  0  0  0.090206  0.091314  0  1.022058  0
H  H31  1  0.86306439  0.59672652  0.79802149  1  0  0.07486  0  0.959109  0  0  0.09154  0  1.022867  0  0  0.092015  0  1.023938  0  0  0.090201  0.091306  0  1.022063  0
H  H32  1  0.97832711  0.34171422  0.32560154  1  0  0.078642  0  0.924192  0  0  0.091117  0  0.991006  0  0  0.092524  0  0.990034  0  0  0.10412  0.089895  0  0.992012  0
H  H33  1  0.47832852  0.15828610  0.67439873  1  0  0.078607  0  0.924205  0  0  0.091103  0  0.991009  0  0  0.092517  0  0.990041  0  0  0.104118  0.089884  0  0.992017  0
H  H34  1  0.02167254  0.84171488  0.17439954  1  0  0.078608  0  0.924221  0  0  0.091094  0  0.991021  0  0  0.092507  0  0.990053  0  0  0.1041  0.089875  0  0.992029  0
H  H35  1  0.52167253  0.65828658  0.82560140  1  0  0.078606  0  0.924226  0  0  0.091104  0  0.991025  0  0  0.092519  0  0.990057  0  0  0.104117  0.089887  0  0.992033  0
H  H36  1  0.91104740  0.21183844  0.41183779  1  0  0.075601  0  0.927059  0  0  0.090912  0  0.990028  0  0  0.091502  0  0.990347  0  0  0.108084  0.090381  0  0.989846  0
H  H37  1  0.41104533  0.28816198  0.58816246  1  0  0.075621  0  0.927098  0  0  0.090963  0  0.990037  0  0  0.091561  0  0.990358  0  0  0.108105  0.090434  0  0.989856  0
H  H38  1  0.08895269  0.71183920  0.08816272  1  0  0.075619  0  0.927094  0  0  0.090924  0  0.99007  0  0  0.091519  0  0.990396  0  0  0.108094  0.090396  0  0.98989  0
H  H39  1  0.58895529  0.78816112  0.91183751  1  0  0.07562  0  0.927105  0  0  0.090957  0  0.990057  0  0  0.091555  0  0.990379  0  0  0.108107  0.09043  0  0.989878  0
H  H40  1  0.73979191  0.00779595  0.35336027  1  0  0.082363  0  0.962878  0  0  0.092597  0  1.034968  0  0  0.093844  0  1.03453  0  0  0.095323  0.091529  0  1.035528  0
H  H41  1  0.23979361  0.49220578  0.64663990  1  0  0.08241  0  0.962811  0  0  0.092647  0  1.034924  0  0  0.093894  0  1.034488  0  0  0.095344  0.091579  0  1.035484  0
H  H42  1  0.26020450  0.50779526  0.14663901  1  0  0.082429  0  0.962896  0  0  0.092673  0  1.034969  0  0  0.093922  0  1.034534  0  0  0.09536  0.091606  0  1.035531  0
H  H43  1  0.76020778  0.99220478  0.85335980  1  0  0.082429  0  0.962909  0  0  0.092675  0  1.034981  0  0  0.093924  0  1.034544  0  0  0.095359  0.091607  0  1.035541  0
H  H44  1  0.69390294  0.99109524  0.22330305  1  0  0.081627  0  0.928035  0  0  0.095  0  0.993688  0  0  0.09592  0  0.993507  0  0  0.106142  0.094232  0  0.994007  0
H  H45  1  0.19390501  0.50890593  0.77669648  1  0  0.081633  0  0.928035  0  0  0.095021  0  0.993691  0  0  0.095941  0  0.993511  0  0  0.106137  0.094252  0  0.994012  0
H  H46  1  0.30609768  0.49109378  0.27669637  1  0  0.081635  0  0.928043  0  0  0.095016  0  0.99369  0  0  0.095937  0  0.993511  0  0  0.106148  0.094249  0  0.994009  0
H  H47  1  0.80609509  0.00890580  0.72330384  1  0  0.081627  0  0.92804  0  0  0.095012  0  0.993682  0  0  0.095931  0  0.993503  0  0  0.106147  0.094243  0  0.994003  0
C  C48  1  0.41331102  0.18461653  0.20499906  1  0  0.68275  0  3.811774  0  0  0.634216  0  4.108659  0  0  0.668519  0  4.101942  0  0  0.208717  0.610875  0  4.112602  0
C  C49  1  0.91331335  0.31538390  0.79500119  1  0  0.682784  0  3.811693  0  0  0.634262  0  4.10857  0  0  0.668565  0  4.101851  0  0  0.208759  0.610922  0  4.112507  0
C  C50  1  0.58668916  0.68461391  0.29499926  1  0  0.682749  0  3.811724  0  0  0.634228  0  4.108566  0  0  0.668529  0  4.101851  0  0  0.208742  0.610887  0  4.112508  0
C  C51  1  0.08669155  0.81538437  0.70499948  1  0  0.682722  0  3.811775  0  0  0.634196  0  4.108643  0  0  0.668498  0  4.101926  0  0  0.208682  0.610855  0  4.112582  0
C  C52  1  0.49331386  0.12726199  0.30219113  1  0  -0.155745  0  3.621132  0  0  -0.155337  0  3.859354  0  0  -0.162254  0  3.872815  0  0  -0.092869  -0.150648  0  3.850186  0
C  C53  1  0.99331293  0.37273830  0.69780693  1  0  -0.155641  0  3.620939  0  0  -0.15526  0  3.859255  0  0  -0.162177  0  3.872721  0  0  -0.092833  -0.150569  0  3.850082  0
C  C54  1  0.50668506  0.62726178  0.19780578  1  0  -0.155719  0  3.621005  0  0  -0.155259  0  3.859187  0  0  -0.16217  0  3.872647  0  0  -0.092879  -0.150576  0  3.850022  0
C  C55  1  0.00668741  0.87273766  0.80219293  1  0  -0.155729  0  3.621039  0  0  -0.15532  0  3.859297  0  0  -0.162237  0  3.872763  0  0  -0.092845  -0.15063  0  3.850127  0
C  C56  1  0.50622862  0.23854453  0.38308711  1  0  -0.112011  0  3.63877  0  0  -0.155844  0  3.893305  0  0  -0.156386  0  3.90636  0  0  -0.1646  -0.155334  0  3.884267  0
C  C57  1  0.00622959  0.26145862  0.61691223  1  0  -0.11194  0  3.638757  0  0  -0.155803  0  3.893341  0  0  -0.156341  0  3.906375  0  0  -0.164601  -0.155289  0  3.884296  0
C  C58  1  0.49376848  0.73854250  0.11691188  1  0  -0.111784  0  3.638763  0  0  -0.155682  0  3.893372  0  0  -0.156217  0  3.906412  0  0  -0.164549  -0.155167  0  3.884327  0
C  C59  1  0.99376966  0.76145715  0.88308777  1  0  -0.11196  0  3.638715  0  0  -0.155843  0  3.89333  0  0  -0.156383  0  3.906368  0  0  -0.164602  -0.155328  0  3.884287  0
C  C60  1  0.66965287  0.34106170  0.36362689  1  0  -0.13799  0  3.668071  0  0  -0.176263  0  3.922396  0  0  -0.177865  0  3.936275  0  0  -0.173369  -0.174899  0  3.912561  0
C  C61  1  0.16965276  0.15893811  0.63637325  1  0  -0.137992  0  3.668021  0  0  -0.176245  0  3.922348  0  0  -0.177839  0  3.936239  0  0  -0.173363  -0.174881  0  3.912521  0
C  C62  1  0.33034679  0.84106296  0.13637345  1  0  -0.138007  0  3.667999  0  0  -0.176285  0  3.92235  0  0  -0.177878  0  3.936235  0  0  -0.173386  -0.174921  0  3.912522  0
C  C63  1  0.83034829  0.65893696  0.86362687  1  0  -0.137981  0  3.667962  0  0  -0.176227  0  3.922289  0  0  -0.177818  0  3.936177  0  0  -0.173367  -0.174863  0  3.912469  0
C  C64  1  0.86325971  0.26980172  0.34660496  1  0  0.043462  0  3.537918  0  0  -0.017082  0  3.800327  0  0  -0.012801  0  3.809869  0  0  -0.062757  -0.019748  0  3.7935  0
C  C65  1  0.36326085  0.23019878  0.65339526  1  0  0.043498  0  3.537867  0  0  -0.017095  0  3.800305  0  0  -0.012852  0  3.809895  0  0  -0.062766  -0.019773  0  3.793497  0
C  C66  1  0.13673873  0.76980224  0.15339547  1  0  0.043464  0  3.537923  0  0  -0.017075  0  3.800318  0  0  -0.012824  0  3.809894  0  0  -0.062732  -0.019754  0  3.793512  0
C  C67  1  0.63673851  0.73019902  0.84660478  1  0  0.043494  0  3.537881  0  0  -0.017099  0  3.800312  0  0  -0.012859  0  3.809903  0  0  -0.062771  -0.019779  0  3.793504  0
C  C68  1  0.69376329  0.06181119  0.28627234  1  0  0.023691  0  3.516501  0  0  -0.042685  0  3.773035  0  0  -0.038177  0  3.783106  0  0  -0.066714  -0.045487  0  3.766226  0
C  C69  1  0.19376383  0.43818960  0.71372782  1  0  0.02356  0  3.516398  0  0  -0.042883  0  3.773057  0  0  -0.03837  0  3.783113  0  0  -0.066771  -0.045686  0  3.766248  0
C  C70  1  0.30623585  0.56181026  0.21372688  1  0  0.023554  0  3.516531  0  0  -0.042875  0  3.773155  0  0  -0.038357  0  3.783193  0  0  -0.066775  -0.045679  0  3.766352  0
C  C71  1  0.80623629  0.93818970  0.78627270  1  0  0.023591  0  3.51649  0  0  -0.042828  0  3.77309  0  0  -0.03831  0  3.783135  0  0  -0.066774  -0.045629  0  3.766283  0
N  N72  1  0.84302762  0.16888624  0.26411538  1  0  -0.289012  0  3.336372  0  0  -0.222432  0  3.549541  0  0  -0.236092  0  3.557302  0  0  -0.487668  -0.213105  0  3.544392  0
N  N73  1  0.34302855  0.33111430  0.73588409  1  0  -0.288964  0  3.336358  0  0  -0.22236  0  3.549544  0  0  -0.236009  0  3.557319  0  0  -0.487631  -0.213027  0  3.544393  0
N  N74  1  0.15697262  0.66888551  0.23588444  1  0  -0.288931  0  3.33635  0  0  -0.22235  0  3.54953  0  0  -0.236  0  3.557306  0  0  -0.48762  -0.213016  0  3.54438  0
N  N75  1  0.65697193  0.83111470  0.76411508  1  0  -0.288993  0  3.336291  0  0  -0.222414  0  3.549491  0  0  -0.236062  0  3.557263  0  0  -0.487672  -0.213082  0  3.544351  0
Cl  Cl76  1  0.38109751  0.44428741  0.96287705  1  0  -0.55779  0  1.010929  0  0  -0.497496  0  1.29124  0  0  -0.517328  0  1.270581  0  0  -0.277761  -0.483038  0  1.305433  0
Cl  Cl77  1  0.88109952  0.05571511  0.03712318  1  0  -0.557775  0  1.010918  0  0  -0.49747  0  1.291227  0  0  -0.517302  0  1.270568  0  0  -0.277743  -0.483011  0  1.305421  0
Cl  Cl78  1  0.61890258  0.94428536  0.53712198  1  0  -0.557802  0  1.010938  0  0  -0.497494  0  1.29124  0  0  -0.517324  0  1.27058  0  0  -0.277759  -0.483033  0  1.305431  0
Cl  Cl79  1  0.11890109  0.55571389  0.46287752  1  0  -0.557806  0  1.010939  0  0  -0.497492  0  1.291232  0  0  -0.517323  0  1.270574  0  0  -0.277755  -0.483031  0  1.305422  0
Cl  Cl80  1  0.39981877  0.07919328  0.92131278  1  0  -0.548144  0  0.976153  0  0  -0.482416  0  1.244671  0  0  -0.500912  0  1.222782  0  0  -0.279257  -0.468976  0  1.259662  0
Cl  Cl81  1  0.89981526  0.42080512  0.07868672  1  0  -0.548141  0  0.97615  0  0  -0.482408  0  1.24467  0  0  -0.500902  0  1.222776  0  0  -0.279246  -0.468966  0  1.25966  0
Cl  Cl82  1  0.60018255  0.57919423  0.57868745  1  0  -0.548156  0  0.97616  0  0  -0.482428  0  1.24469  0  0  -0.500919  0  1.222793  0  0  -0.279257  -0.468987  0  1.25968  0
Cl  Cl83  1  0.10018414  0.92080505  0.42131204  1  0  -0.548125  0  0.976115  0  0  -0.482413  0  1.244659  0  0  -0.500907  0  1.222767  0  0  -0.279249  -0.468972  0  1.259649  0
O  O84  1  0.23016113  0.17657250  0.18783477  1  0  -0.646734  0  2.012267  0  0  -0.583618  0  2.265307  0  0  -0.613133  0  2.255896  0  0  -0.328844  -0.563083  0  2.271215  0
O  O85  1  0.73016346  0.32342823  0.81216541  1  0  -0.646745  0  2.012322  0  0  -0.583607  0  2.265338  0  0  -0.613126  0  2.255936  0  0  -0.328823  -0.563074  0  2.271244  0
O  O86  1  0.76983762  0.67656954  0.31216430  1  0  -0.646716  0  2.012346  0  0  -0.583563  0  2.265325  0  0  -0.61308  0  2.255926  0  0  -0.328809  -0.563031  0  2.271233  0
O  O87  1  0.26983704  0.82342946  0.68783377  1  0  -0.646694  0  2.012382  0  0  -0.583565  0  2.265405  0  0  -0.613077  0  2.255991  0  0  -0.328804  -0.563031  0  2.271311  0
O  O88  1  0.53386386  0.23931193  0.14600432  1  0  -0.666742  0  2.09199  0  0  -0.60088  0  2.338653  0  0  -0.630216  0  2.331651  0  0  -0.333564  -0.580426  0  2.342898  0
O  O89  1  0.03386812  0.26068811  0.85399652  1  0  -0.666752  0  2.091911  0  0  -0.600906  0  2.338593  0  0  -0.630245  0  2.33159  0  0  -0.333599  -0.580453  0  2.342835  0
O  O90  1  0.46613468  0.73931039  0.35399615  1  0  -0.666747  0  2.091932  0  0  -0.600901  0  2.338611  0  0  -0.630238  0  2.331611  0  0  -0.333583  -0.580444  0  2.342853  0
O  O91  1  0.96613405  0.76068624  0.64600348  1  0  -0.666739  0  2.091836  0  0  -0.600877  0  2.338494  0  0  -0.630216  0  2.331492  0  0  -0.333566  -0.580421  0  2.342736  0
