# generated using pymatgen
data_Zn3H10C10(NO)8
_symmetry_space_group_name_H-M   'P 1'
_cell_length_a   10.38738472
_cell_length_b   10.38655844
_cell_length_c   10.98532875
_cell_angle_alpha   116.79376710
_cell_angle_beta   117.19564648
_cell_angle_gamma   92.29665288
_symmetry_Int_Tables_number   1
_chemical_formula_structural   Zn3H10C10(NO)8
_chemical_formula_sum   'Zn6 H20 C20 N16 O16'
_cell_volume   894.64990455
_cell_formula_units_Z   2
loop_
 _symmetry_equiv_pos_site_id
 _symmetry_equiv_pos_as_xyz
  1  'x, y, z'
loop_
 _atom_site_type_symbol
 _atom_site_label
 _atom_site_symmetry_multiplicity
 _atom_site_fract_x
 _atom_site_fract_y
 _atom_site_fract_z
 _atom_site_occupancy
 _atom_site_hle17_bader_spin_density
 _atom_site_hle17_ddec_charge
 _atom_site_hle17_ddec_spin_density
 _atom_site_hle17_ddec_sum_bond_order
 _atom_site_hle17_magmom
 _atom_site_hse06_10hf_bader_spin_density
 _atom_site_hse06_10hf_ddec_charge
 _atom_site_hse06_10hf_ddec_spin_density
 _atom_site_hse06_10hf_ddec_sum_bond_order
 _atom_site_hse06_10hf_magmom
 _atom_site_hse06_bader_spin_density
 _atom_site_hse06_ddec_charge
 _atom_site_hse06_ddec_spin_density
 _atom_site_hse06_ddec_sum_bond_order
 _atom_site_hse06_magmom
 _atom_site_pbe_bader_spin_density
 _atom_site_pbe_cm5_charge
 _atom_site_pbe_ddec_charge
 _atom_site_pbe_ddec_spin_density
 _atom_site_pbe_ddec_sum_bond_order
 _atom_site_pbe_magmom
Zn  Zn0  1  0.65431879  0.79756088  0.28854065  1  0  1.034241  0  1.837847  0  0  0.834814  0  2.325969  0  0  0.880734  0  2.272227  0  0  0.714416  0.801753  0  2.363703  0
Zn  Zn1  1  0.00914620  0.36588451  0.21144677  1  0  1.034013  0  1.837718  0  0  0.834848  0  2.325749  0  0  0.880828  0  2.271866  0  0  0.714451  0.801722  0  2.363587  0
Zn  Zn2  1  0.34568246  0.20243930  0.71146208  1  0  1.034203  0  1.837935  0  0  0.83478  0  2.326068  0  0  0.880696  0  2.272329  0  0  0.71442  0.801717  0  2.363807  0
Zn  Zn3  1  0.99085473  0.63411796  0.78855407  1  0  1.034032  0  1.837647  0  0  0.834885  0  2.325683  0  0  0.880865  0  2.271798  0  0  0.714474  0.801761  0  2.363523  0
Zn  Zn4  1  0.95483893  0.70493232  0.25027233  1  0  1.035661  0  1.925078  0  0  0.868164  0  2.374566  0  0  0.91146  0  2.325107  0  0  0.694897  0.83793  0  2.407594  0
Zn  Zn5  1  0.04516272  0.29506901  0.74972834  1  0  1.035689  0  1.925064  0  0  0.868197  0  2.374572  0  0  0.911482  0  2.325108  0  0  0.694915  0.83795  0  2.407599  0
H  H6  1  0.11252016  0.67935235  0.57762842  1  0  0.097565  0  0.917397  0  0  0.109766  0  0.974574  0  0  0.11196  0  0.971992  0  0  0.138547  0.108163  0  0.976264  0
H  H7  1  0.60187373  0.53522628  0.92286906  1  0  0.097773  0  0.917322  0  0  0.11013  0  0.974168  0  0  0.11223  0  0.971713  0  0  0.138648  0.108563  0  0.975832  0
H  H8  1  0.88748111  0.32064784  0.42237251  1  0  0.097571  0  0.917398  0  0  0.10978  0  0.974565  0  0  0.111972  0  0.971984  0  0  0.13855  0.108176  0  0.976256  0
H  H9  1  0.39812429  0.46477051  0.07712989  1  0  0.097776  0  0.917323  0  0  0.110132  0  0.974173  0  0  0.112231  0  0.97172  0  0  0.138659  0.108564  0  0.975837  0
H  H10  1  0.89878179  0.02442239  0.09030695  1  0  0.144267  0  0.950946  0  0  0.151577  0  1.014683  0  0  0.155592  0  1.012218  0  0  0.107097  0.148694  0  1.016636  0
H  H11  1  0.43426419  0.80851913  0.40973637  1  0  0.145117  0  0.948772  0  0  0.152125  0  1.013299  0  0  0.156236  0  1.010727  0  0  0.10717  0.149211  0  1.015295  0
H  H12  1  0.10121515  0.97557783  0.90969299  1  0  0.144266  0  0.950928  0  0  0.151571  0  1.014671  0  0  0.155586  0  1.012208  0  0  0.107091  0.148686  0  1.016627  0
H  H13  1  0.56573957  0.19148216  0.59026886  1  0  0.145154  0  0.948722  0  0  0.152174  0  1.013233  0  0  0.156285  0  1.010664  0  0  0.107192  0.149261  0  1.015228  0
H  H14  1  0.02540651  0.01502499  0.26078565  1  0  0.161482  0  0.911925  0  0  0.175372  0  0.963091  0  0  0.178251  0  0.962899  0  0  0.120478  0.173282  0  0.963391  0
H  H15  1  0.25430311  0.76466034  0.23929235  1  0  0.161347  0  0.911798  0  0  0.175658  0  0.96294  0  0  0.178611  0  0.962685  0  0  0.120543  0.17351  0  0.963294  0
H  H16  1  0.97459079  0.98497295  0.73921348  1  0  0.161474  0  0.911953  0  0  0.175368  0  0.96311  0  0  0.178247  0  0.962917  0  0  0.120478  0.173277  0  0.96341  0
H  H17  1  0.74570793  0.23534661  0.76071303  1  0  0.161378  0  0.911782  0  0  0.175637  0  0.962972  0  0  0.178607  0  0.962698  0  0  0.120523  0.173491  0  0.963327  0
H  H18  1  0.55244925  0.62753891  0.44850666  1  0  0.334194  0  0.928561  0  0  0.31623  0  0.994698  0  0  0.324275  0  0.987625  0  0  0.292759  0.310825  0  0.999189  0
H  H19  1  0.67905737  0.10401526  0.05158164  1  0  0.334876  0  0.928322  0  0  0.316206  0  0.995364  0  0  0.324302  0  0.988257  0  0  0.292689  0.310772  0  0.999871  0
H  H20  1  0.44754988  0.37246130  0.55149242  1  0  0.334188  0  0.928565  0  0  0.316229  0  0.994696  0  0  0.324274  0  0.98762  0  0  0.292762  0.310824  0  0.999187  0
H  H21  1  0.32093957  0.89598155  0.94841684  1  0  0.334886  0  0.928326  0  0  0.316222  0  0.995357  0  0  0.324318  0  0.988251  0  0  0.292701  0.310788  0  0.999866  0
H  H22  1  0.67488206  0.61007077  0.60602241  1  0  0.33601  0  0.916113  0  0  0.317925  0  0.983262  0  0  0.326126  0  0.975557  0  0  0.295625  0.312352  0  0.9883  0
H  H23  1  0.50414410  0.06891923  0.89395723  1  0  0.335266  0  0.918546  0  0  0.318131  0  0.983972  0  0  0.326241  0  0.976453  0  0  0.295948  0.312599  0  0.988942  0
H  H24  1  0.32511850  0.38993056  0.39397869  1  0  0.336039  0  0.916073  0  0  0.317934  0  0.983246  0  0  0.326134  0  0.975543  0  0  0.295628  0.312361  0  0.988284  0
H  H25  1  0.49585648  0.93108212  0.10604206  1  0  0.335311  0  0.918516  0  0  0.318182  0  0.983927  0  0  0.32629  0  0.976409  0  0  0.295976  0.31265  0  0.988897  0
C  C26  1  0.77701848  0.66950160  0.51251037  1  0  0.602973  0  3.839098  0  0  0.556233  0  4.112405  0  0  0.581472  0  4.12198  0  0  0.326068  0.539385  0  4.10581  0
C  C27  1  0.65712999  0.26466154  0.98769267  1  0  0.606628  0  3.833318  0  0  0.558262  0  4.108629  0  0  0.583475  0  4.118174  0  0  0.326493  0.54144  0  4.102042  0
C  C28  1  0.22298280  0.33049859  0.48748966  1  0  0.603005  0  3.839023  0  0  0.556241  0  4.112353  0  0  0.58148  0  4.121928  0  0  0.32608  0.539393  0  4.10576  0
C  C29  1  0.34287019  0.73533865  0.01230869  1  0  0.60659  0  3.833378  0  0  0.558225  0  4.108703  0  0  0.58344  0  4.118248  0  0  0.326478  0.541404  0  4.102116  0
C  C30  1  0.99618989  0.68101079  0.53707689  1  0  0.226346  0  3.758442  0  0  0.163593  0  4.046802  0  0  0.179244  0  4.058044  0  0  0.141371  0.153291  0  4.038786  0
C  C31  1  0.64407952  0.45940738  0.96337093  1  0  0.226456  0  3.757955  0  0  0.163763  0  4.046273  0  0  0.179459  0  4.057522  0  0  0.140939  0.153438  0  4.038242  0
C  C32  1  0.00381139  0.31898600  0.46292168  1  0  0.226352  0  3.758504  0  0  0.163585  0  4.046864  0  0  0.179238  0  4.058107  0  0  0.141394  0.153284  0  4.038845  0
C  C33  1  0.35591922  0.54059169  0.03662931  1  0  0.226466  0  3.75793  0  0  0.163773  0  4.046241  0  0  0.179469  0  4.05749  0  0  0.140945  0.153449  0  4.038208  0
C  C34  1  0.94442955  0.81285643  0.03766399  1  0  0.744221  0  3.800125  0  0  0.694967  0  4.08983  0  0  0.730174  0  4.081582  0  0  0.22017  0.670895  0  4.094895  0
C  C35  1  0.27552118  0.90697610  0.46252540  1  0  0.744846  0  3.797621  0  0  0.695787  0  4.087323  0  0  0.731014  0  4.079037  0  0  0.220316  0.671715  0  4.092409  0
C  C36  1  0.05556811  0.18714264  0.96233578  1  0  0.744242  0  3.80013  0  0  0.69501  0  4.089814  0  0  0.730214  0  4.081563  0  0  0.2202  0.670935  0  4.094877  0
C  C37  1  0.72448332  0.09302747  0.53747931  1  0  0.744927  0  3.79757  0  0  0.695878  0  4.087244  0  0  0.731101  0  4.078967  0  0  0.220395  0.671805  0  4.092332  0
C  C38  1  0.91843983  0.95313798  0.14158731  1  0  -0.442686  0  3.63474  0  0  -0.472413  0  3.86659  0  0  -0.483884  0  3.868163  0  0  -0.166652  -0.464562  0  3.865284  0
C  C39  1  0.31171795  0.77697431  0.35853688  1  0  -0.44244  0  3.632088  0  0  -0.473325  0  3.866089  0  0  -0.484984  0  3.867715  0  0  -0.166398  -0.465402  0  3.864827  0
C  C40  1  0.08155639  0.04685998  0.85841134  1  0  -0.442714  0  3.634727  0  0  -0.472428  0  3.866552  0  0  -0.483897  0  3.868119  0  0  -0.166671  -0.464572  0  3.865245  0
C  C41  1  0.68828621  0.22302813  0.64146628  1  0  -0.442502  0  3.632071  0  0  -0.47336  0  3.866099  0  0  -0.485029  0  3.867711  0  0  -0.166423  -0.465443  0  3.864841  0
C  C42  1  0.79420770  0.92753358  0.17275653  1  0  0.752794  0  3.788276  0  0  0.698659  0  4.087557  0  0  0.733039  0  4.079685  0  0  0.226448  0.67561  0  4.091816  0
C  C43  1  0.25493979  0.62165038  0.32749935  1  0  0.752936  0  3.786269  0  0  0.698647  0  4.08629  0  0  0.733063  0  4.078402  0  0  0.2261  0.675587  0  4.090561  0
C  C44  1  0.20578924  0.07246664  0.82724341  1  0  0.752784  0  3.788333  0  0  0.698651  0  4.087599  0  0  0.73303  0  4.079724  0  0  0.22645  0.6756  0  4.091858  0
C  C45  1  0.74506116  0.37834869  0.67249823  1  0  0.7528  0  3.786069  0  0  0.698509  0  4.086102  0  0  0.732928  0  4.078222  0  0  0.226001  0.675449  0  4.090372  0
N  N46  1  0.91654799  0.70882688  0.42330948  1  0  -0.275403  0  3.241882  0  0  -0.22101  0  3.538999  0  0  -0.235326  0  3.554157  0  0  -0.264063  -0.211434  0  3.528074  0
N  N47  1  0.78565003  0.49353795  0.07716966  1  0  -0.275272  0  3.239897  0  0  -0.221317  0  3.53754  0  0  -0.235619  0  3.552665  0  0  -0.264049  -0.21175  0  3.526632  0
N  N48  1  0.08345292  0.29117217  0.57669081  1  0  -0.275453  0  3.24184  0  0  -0.221071  0  3.538979  0  0  -0.235387  0  3.554136  0  0  -0.264104  -0.211493  0  3.528051  0
N  N49  1  0.21434799  0.50646226  0.92283076  1  0  -0.275331  0  3.239866  0  0  -0.221366  0  3.537529  0  0  -0.235667  0  3.552649  0  0  -0.264076  -0.211797  0  3.52662  0
N  N50  1  0.77468788  0.70206628  0.40555690  1  0  -0.440223  0  3.131855  0  0  -0.367287  0  3.436553  0  0  -0.389426  0  3.446275  0  0  -0.289302  -0.351941  0  3.429946  0
N  N51  1  0.79664063  0.36932190  0.09472546  1  0  -0.441276  0  3.12961  0  0  -0.367616  0  3.43479  0  0  -0.389737  0  3.444486  0  0  -0.289412  -0.352286  0  3.428208  0
N  N52  1  0.22531339  0.29793391  0.59444403  1  0  -0.440176  0  3.131783  0  0  -0.367221  0  3.436475  0  0  -0.389358  0  3.446198  0  0  -0.289292  -0.351876  0  3.429867  0
N  N53  1  0.20335852  0.63067832  0.90527182  1  0  -0.441209  0  3.129543  0  0  -0.367588  0  3.434764  0  0  -0.389709  0  3.44446  0  0  -0.2894  -0.352258  0  3.428183  0
N  N54  1  0.91589970  0.65539687  0.59741778  1  0  -0.555216  0  3.190188  0  0  -0.470586  0  3.498268  0  0  -0.49636  0  3.502645  0  0  -0.378694  -0.453197  0  3.49545  0
N  N55  1  0.55811088  0.31868543  0.90283619  1  0  -0.55771  0  3.190038  0  0  -0.472459  0  3.498601  0  0  -0.49818  0  3.502839  0  0  -0.378624  -0.455105  0  3.495861  0
N  N56  1  0.08409870  0.34460106  0.40258092  1  0  -0.555227  0  3.190236  0  0  -0.470566  0  3.498291  0  0  -0.496341  0  3.502666  0  0  -0.378694  -0.453179  0  3.495473  0
N  N57  1  0.44188788  0.68131364  0.09716314  1  0  -0.557684  0  3.190013  0  0  -0.472422  0  3.49857  0  0  -0.498143  0  3.502803  0  0  -0.378611  -0.455069  0  3.495829  0
N  N58  1  0.66335801  0.65621427  0.53785404  1  0  -0.697935  0  3.064024  0  0  -0.666169  0  3.292002  0  0  -0.686071  0  3.285078  0  0  -0.587026  -0.652489  0  3.295991  0
N  N59  1  0.61846063  0.12561180  0.96225119  1  0  -0.698922  0  3.06434  0  0  -0.66676  0  3.29308  0  0  -0.686654  0  3.286159  0  0  -0.587572  -0.653082  0  3.297058  0
N  N60  1  0.33664256  0.34378365  0.46214470  1  0  -0.697981  0  3.063996  0  0  -0.666197  0  3.292005  0  0  -0.686097  0  3.285081  0  0  -0.587034  -0.652517  0  3.295996  0
N  N61  1  0.38153956  0.87438840  0.03774926  1  0  -0.698959  0  3.064345  0  0  -0.666803  0  3.293093  0  0  -0.686696  0  3.286172  0  0  -0.587594  -0.653124  0  3.297072  0
O  O62  1  0.97224061  0.71221450  0.07193637  1  0  -0.631036  0  2.059395  0  0  -0.570931  0  2.322471  0  0  -0.597735  0  2.310734  0  0  -0.31156  -0.552074  0  2.329709  0
O  O63  1  0.14059651  0.90071188  0.42817287  1  0  -0.63173  0  2.058211  0  0  -0.571313  0  2.321124  0  0  -0.598179  0  2.309493  0  0  -0.311913  -0.552447  0  2.328356  0
O  O64  1  0.02775778  0.28778344  0.92806233  1  0  -0.631032  0  2.059448  0  0  -0.570947  0  2.322516  0  0  -0.597749  0  2.31078  0  0  -0.311562  -0.55209  0  2.329761  0
O  O65  1  0.85940550  0.09929058  0.57182844  1  0  -0.631804  0  2.05824  0  0  -0.571375  0  2.321132  0  0  -0.598241  0  2.3095  0  0  -0.311968  -0.552507  0  2.328364  0
O  O66  1  0.94124775  0.80632966  0.91706888  1  0  -0.625585  0  2.035812  0  0  -0.547438  0  2.301668  0  0  -0.576367  0  2.287026  0  0  -0.316999  -0.527643  0  2.31169  0
O  O67  1  0.38965814  0.02432966  0.58324333  1  0  -0.626364  0  2.035641  0  0  -0.547983  0  2.301258  0  0  -0.5769  0  2.286594  0  0  -0.316845  -0.528187  0  2.311259  0
O  O68  1  0.05874667  0.19366944  0.08292947  1  0  -0.625597  0  2.035798  0  0  -0.547469  0  2.301672  0  0  -0.576396  0  2.287029  0  0  -0.317032  -0.527674  0  2.311693  0
O  O69  1  0.61034564  0.97567164  0.41676009  1  0  -0.626399  0  2.035599  0  0  -0.548017  0  2.301217  0  0  -0.576932  0  2.28655  0  0  -0.316877  -0.528221  0  2.311216  0
O  O70  1  0.78910220  0.82615084  0.21055218  1  0  -0.676189  0  2.168614  0  0  -0.583948  0  2.466216  0  0  -0.614624  0  2.447463  0  0  -0.317727  -0.562687  0  2.478023  0
O  O71  1  0.11579665  0.57884451  0.28984265  1  0  -0.676747  0  2.165206  0  0  -0.584717  0  2.463687  0  0  -0.615376  0  2.444824  0  0  -0.317823  -0.563372  0  2.475389  0
O  O72  1  0.21089693  0.17384937  0.78944690  1  0  -0.676136  0  2.168629  0  0  -0.583908  0  2.466255  0  0  -0.61458  0  2.4475  0  0  -0.31772  -0.562642  0  2.478057  0
O  O73  1  0.88420430  0.42115798  0.71015638  1  0  -0.676724  0  2.165285  0  0  -0.584694  0  2.463763  0  0  -0.615333  0  2.444844  0  0  -0.31776  -0.563344  0  2.47546  0
O  O74  1  0.70539582  0.00524560  0.16541144  1  0  -0.607287  0  1.935235  0  0  -0.553171  0  2.148358  0  0  -0.576545  0  2.13925  0  0  -0.298441  -0.536918  0  2.153606  0
O  O75  1  0.33988747  0.54007787  0.33475763  1  0  -0.606994  0  1.935186  0  0  -0.55242  0  2.148277  0  0  -0.575829  0  2.139099  0  0  -0.298079  -0.536164  0  2.153565  0
O  O76  1  0.29460075  0.99475348  0.83458875  1  0  -0.607293  0  1.935264  0  0  -0.553177  0  2.148383  0  0  -0.576553  0  2.139273  0  0  -0.29843  -0.536924  0  2.153632  0
O  O77  1  0.66011130  0.45992462  0.66524227  1  0  -0.606914  0  1.934856  0  0  -0.552351  0  2.147966  0  0  -0.575766  0  2.138789  0  0  -0.298053  -0.536094  0  2.153252  0
