# generated using pymatgen
data_CaP2H16C8O9
_symmetry_space_group_name_H-M   'P 1'
_cell_length_a   7.06267515
_cell_length_b   9.06664329
_cell_length_c   11.80979196
_cell_angle_alpha   103.67264867
_cell_angle_beta   107.42012826
_cell_angle_gamma   90.00168999
_symmetry_Int_Tables_number   1
_chemical_formula_structural   CaP2H16C8O9
_chemical_formula_sum   'Ca2 P4 H32 C16 O18'
_cell_volume   699.05811513
_cell_formula_units_Z   2
loop_
 _symmetry_equiv_pos_site_id
 _symmetry_equiv_pos_as_xyz
  1  'x, y, z'
loop_
 _atom_site_type_symbol
 _atom_site_label
 _atom_site_symmetry_multiplicity
 _atom_site_fract_x
 _atom_site_fract_y
 _atom_site_fract_z
 _atom_site_occupancy
 _atom_site_hle17_bader_spin_density
 _atom_site_hle17_ddec_charge
 _atom_site_hle17_ddec_spin_density
 _atom_site_hle17_ddec_sum_bond_order
 _atom_site_hle17_magmom
 _atom_site_hse06_10hf_bader_spin_density
 _atom_site_hse06_10hf_ddec_charge
 _atom_site_hse06_10hf_ddec_spin_density
 _atom_site_hse06_10hf_ddec_sum_bond_order
 _atom_site_hse06_10hf_magmom
 _atom_site_hse06_bader_spin_density
 _atom_site_hse06_ddec_charge
 _atom_site_hse06_ddec_spin_density
 _atom_site_hse06_ddec_sum_bond_order
 _atom_site_hse06_magmom
 _atom_site_pbe_bader_spin_density
 _atom_site_pbe_cm5_charge
 _atom_site_pbe_ddec_charge
 _atom_site_pbe_ddec_spin_density
 _atom_site_pbe_ddec_sum_bond_order
 _atom_site_pbe_magmom
Ca  Ca0  1  0.21693041  0.24996515  0.99998456  1  0  1.620646  0  1.007215  0  0  1.492229  0  1.348462  0  0  1.530104  0  1.306588  0  0  0.867946  1.463409  0  1.378937  0
Ca  Ca1  1  0.78306962  0.75003487  0.00001525  1  0  1.620652  0  1.00723  0  0  1.49222  0  1.348499  0  0  1.530093  0  1.306621  0  0  0.86794  1.463392  0  1.378978  0
P  P2  1  0.48497023  0.40472760  0.81200988  1  0  1.535738  0  4.713437  0  0  1.377399  0  5.210294  0  0  1.426182  0  5.171995  0  0  0.382471  1.343636  0  5.235729  0
P  P3  1  0.67338001  0.09531504  0.18787985  1  0  1.535902  0  4.71386  0  0  1.377835  0  5.210629  0  0  1.426732  0  5.172324  0  0  0.382201  1.343968  0  5.236004  0
P  P4  1  0.51502832  0.59527242  0.18799050  1  0  1.535641  0  4.713455  0  0  1.377316  0  5.210298  0  0  1.426097  0  5.172008  0  0  0.382481  1.343554  0  5.23573  0
P  P5  1  0.32662173  0.90468725  0.81211981  1  0  1.535884  0  4.713944  0  0  1.377786  0  5.210715  0  0  1.426683  0  5.17241  0  0  0.382218  1.343918  0  5.236089  0
H  H6  1  0.61766958  0.23467335  0.67639249  1  0  0.14594  0  0.931235  0  0  0.161343  0  0.984814  0  0  0.163633  0  0.984024  0  0  0.115632  0.1597  0  0.985558  0
H  H7  1  0.94210050  0.26526795  0.32353115  1  0  0.145933  0  0.932006  0  0  0.161469  0  0.985212  0  0  0.16383  0  0.984387  0  0  0.11571  0.159746  0  0.985987  0
H  H8  1  0.38232566  0.76532326  0.32360755  1  0  0.14592  0  0.931245  0  0  0.161331  0  0.984826  0  0  0.163641  0  0.984013  0  0  0.115611  0.159688  0  0.985568  0
H  H9  1  0.05790124  0.73473434  0.67646852  1  0  0.145861  0  0.932049  0  0  0.161416  0  0.985217  0  0  0.163777  0  0.98439  0  0  0.115696  0.159693  0  0.985992  0
H  H10  1  0.35366126  0.22291401  0.62153599  1  0  0.142166  0  0.95312  0  0  0.154217  0  1.012466  0  0  0.156038  0  1.013461  0  0  0.10968  0.152846  0  1.011841  0
H  H11  1  0.73283919  0.27722341  0.37825047  1  0  0.142385  0  0.953175  0  0  0.154316  0  1.012446  0  0  0.156162  0  1.013464  0  0  0.109779  0.1529  0  1.011813  0
H  H12  1  0.64633569  0.77708488  0.37846476  1  0  0.142205  0  0.953084  0  0  0.154253  0  1.012445  0  0  0.156074  0  1.013444  0  0  0.109711  0.15288  0  1.01182  0
H  H13  1  0.26716095  0.72277775  0.62174956  1  0  0.142396  0  0.953175  0  0  0.154312  0  1.012447  0  0  0.156156  0  1.013466  0  0  0.109786  0.152895  0  1.011815  0
H  H14  1  0.17766855  0.38395753  0.49309041  1  0  0.091571  0  0.961349  0  0  0.106001  0  1.017791  0  0  0.108143  0  1.017745  0  0  0.10023  0.104437  0  1.01807  0
H  H15  1  0.68478181  0.11642316  0.50665747  1  0  0.091351  0  0.960551  0  0  0.105694  0  1.017171  0  0  0.107829  0  1.017155  0  0  0.099809  0.10411  0  1.017455  0
H  H16  1  0.82233127  0.61604023  0.50691149  1  0  0.091552  0  0.961348  0  0  0.105981  0  1.017802  0  0  0.108123  0  1.017754  0  0  0.100231  0.104416  0  1.018081  0
H  H17  1  0.31521811  0.88357571  0.49334041  1  0  0.091372  0  0.960565  0  0  0.105708  0  1.017186  0  0  0.107845  0  1.017172  0  0  0.09982  0.104124  0  1.017471  0
H  H18  1  0.18492529  0.55279174  0.35649052  1  0  0.096206  0  0.956765  0  0  0.109099  0  1.015666  0  0  0.112392  0  1.013784  0  0  0.102121  0.106644  0  1.01734  0
H  H19  1  0.82815802  0.94773296  0.64346558  1  0  0.095578  0  0.956306  0  0  0.109021  0  1.014585  0  0  0.112253  0  1.012787  0  0  0.102516  0.106557  0  1.01628  0
H  H20  1  0.81507463  0.44720715  0.64351076  1  0  0.096198  0  0.95677  0  0  0.109097  0  1.015655  0  0  0.112393  0  1.013771  0  0  0.102118  0.10664  0  1.017335  0
H  H21  1  0.17184350  0.05226706  0.35653364  1  0  0.095571  0  0.956322  0  0  0.109016  0  1.014596  0  0  0.112248  0  1.012798  0  0  0.10252  0.106552  0  1.016291  0
H  H22  1  0.36283129  0.63257026  0.82550375  1  0  0.437818  0  0.877091  0  0  0.399711  0  0.952091  0  0  0.411816  0  0.935009  0  0  0.313517  0.391399  0  0.963693  0
H  H23  1  0.53776878  0.86750141  0.17458053  1  0  0.438331  0  0.876172  0  0  0.400706  0  0.95052  0  0  0.412798  0  0.933445  0  0  0.313566  0.392396  0  0.962122  0
H  H24  1  0.63716874  0.36742976  0.17449521  1  0  0.437824  0  0.877083  0  0  0.399715  0  0.95209  0  0  0.411819  0  0.935009  0  0  0.313522  0.391402  0  0.963692  0
H  H25  1  0.46223273  0.13249861  0.82541954  1  0  0.438287  0  0.876233  0  0  0.400654  0  0.950594  0  0  0.412746  0  0.93352  0  0  0.313547  0.392343  0  0.962196  0
H  H26  1  0.78085281  0.32297169  0.97419748  1  0  0.42847  0  0.857607  0  0  0.398302  0  0.929484  0  0  0.408214  0  0.914687  0  0  0.3147  0.391033  0  0.940363  0
H  H27  1  0.80671921  0.17699269  0.02573895  1  0  0.428313  0  0.859025  0  0  0.398373  0  0.929545  0  0  0.408294  0  0.914736  0  0  0.314614  0.391108  0  0.940405  0
H  H28  1  0.21914722  0.67702833  0.02580233  1  0  0.428452  0  0.857622  0  0  0.398285  0  0.929508  0  0  0.408197  0  0.914712  0  0  0.314688  0.391016  0  0.940388  0
H  H29  1  0.19328083  0.82300734  0.97426171  1  0  0.428257  0  0.859083  0  0  0.398316  0  0.929617  0  0  0.408236  0  0.914809  0  0  0.314594  0.391051  0  0.940477  0
H  H30  1  0.28287809  0.06248948  0.17718415  1  0  0.421379  0  0.881948  0  0  0.391671  0  0.943791  0  0  0.401974  0  0.928463  0  0  0.299783  0.384361  0  0.954677  0
H  H31  1  0.10544440  0.43735050  0.82266410  1  0  0.4221  0  0.881  0  0  0.391752  0  0.943699  0  0  0.402096  0  0.928335  0  0  0.299823  0.384415  0  0.954601  0
H  H32  1  0.71712353  0.93751168  0.82281530  1  0  0.421397  0  0.881906  0  0  0.391647  0  0.943809  0  0  0.401951  0  0.928481  0  0  0.299784  0.384337  0  0.954695  0
H  H33  1  0.89455574  0.56265066  0.17733593  1  0  0.422108  0  0.880984  0  0  0.391762  0  0.943679  0  0  0.402105  0  0.928317  0  0  0.299824  0.384427  0  0.954579  0
H  H34  1  0.04848374  0.07701808  0.14514469  1  0  0.42498  0  0.879569  0  0  0.396548  0  0.939641  0  0  0.406447  0  0.925167  0  0  0.3003  0.389549  0  0.949867  0
H  H35  1  0.90315052  0.42278638  0.85467992  1  0  0.424098  0  0.880684  0  0  0.395648  0  0.940723  0  0  0.405525  0  0.926292  0  0  0.300199  0.388659  0  0.950925  0
H  H36  1  0.95151800  0.92298422  0.85485583  1  0  0.424973  0  0.879578  0  0  0.39655  0  0.939633  0  0  0.406449  0  0.92516  0  0  0.300316  0.389552  0  0.949859  0
H  H37  1  0.09684792  0.57721250  0.14531940  1  0  0.424088  0  0.880689  0  0  0.395657  0  0.940694  0  0  0.405532  0  0.926267  0  0  0.300224  0.388668  0  0.950895  0
C  C38  1  0.48745415  0.30248706  0.66066022  1  0  -0.504543  0  3.715668  0  0  -0.52565  0  3.955064  0  0  -0.534466  0  3.962046  0  0  -0.164435  -0.519307  0  3.950025  0
C  C39  1  0.82744610  0.19756889  0.33918602  1  0  -0.504775  0  3.716936  0  0  -0.52575  0  3.955962  0  0  -0.534828  0  3.963235  0  0  -0.164514  -0.519122  0  3.950599  0
C  C40  1  0.51254269  0.69751069  0.33934030  1  0  -0.504528  0  3.715665  0  0  -0.525633  0  3.955027  0  0  -0.534468  0  3.962009  0  0  -0.164442  -0.519289  0  3.949984  0
C  C41  1  0.17255553  0.80243226  0.66081342  1  0  -0.504735  0  3.716995  0  0  -0.525638  0  3.95585  0  0  -0.534714  0  3.963126  0  0  -0.164515  -0.51901  0  3.950489  0
C  C42  1  0.49553419  0.40326311  0.57747853  1  0  0.136868  0  3.784822  0  0  0.152106  0  4.026327  0  0  0.153015  0  4.051545  0  0  -0.012564  0.151303  0  4.009236  0
C  C43  1  0.91833412  0.09672526  0.42240808  1  0  0.136702  0  3.784636  0  0  0.151647  0  4.026504  0  0  0.152639  0  4.051663  0  0  -0.012049  0.150719  0  4.009463  0
C  C44  1  0.50446551  0.59673351  0.42252230  1  0  0.136948  0  3.784755  0  0  0.152168  0  4.026293  0  0  0.153076  0  4.051517  0  0  -0.012483  0.151366  0  4.0092  0
C  C45  1  0.08166613  0.90327704  0.57759133  1  0  0.136649  0  3.784689  0  0  0.151583  0  4.026527  0  0  0.152571  0  4.05169  0  0  -0.012096  0.150654  0  4.009486  0
C  C46  1  0.31954229  0.43467963  0.49595240  1  0  -0.120378  0  3.746728  0  0  -0.141071  0  3.997561  0  0  -0.14326  0  4.018563  0  0  -0.094424  -0.139484  0  3.983427  0
C  C47  1  0.82371231  0.06553825  0.50388671  1  0  -0.119558  0  3.744995  0  0  -0.140132  0  3.99596  0  0  -0.142352  0  4.016953  0  0  -0.094103  -0.138517  0  3.981747  0
C  C48  1  0.68045912  0.56531927  0.50404999  1  0  -0.120363  0  3.746726  0  0  -0.141058  0  3.997575  0  0  -0.143247  0  4.018576  0  0  -0.094463  -0.139471  0  3.983439  0
C  C49  1  0.17628783  0.93446290  0.49611247  1  0  -0.119516  0  3.745027  0  0  -0.14009  0  3.99598  0  0  -0.142312  0  4.016978  0  0  -0.094039  -0.138474  0  3.981767  0
C  C50  1  0.32343995  0.52965785  0.41933221  1  0  -0.122339  0  3.741358  0  0  -0.142124  0  3.99164  0  0  -0.144638  0  4.012059  0  0  -0.091471  -0.140118  0  3.977777  0
C  C51  1  0.90397989  0.97060932  0.58063966  1  0  -0.121843  0  3.741849  0  0  -0.141927  0  3.992293  0  0  -0.144409  0  4.012647  0  0  -0.091848  -0.139875  0  3.978372  0
C  C52  1  0.67655838  0.47033991  0.58066943  1  0  -0.122268  0  3.741365  0  0  -0.142057  0  3.991621  0  0  -0.144572  0  4.012039  0  0  -0.091423  -0.14005  0  3.977762  0
C  C53  1  0.09602025  0.02939183  0.41935952  1  0  -0.121865  0  3.741887  0  0  -0.141941  0  3.99233  0  0  -0.144423  0  4.012681  0  0  -0.091903  -0.139889  0  3.978407  0
O  O54  1  0.43059455  0.28718655  0.87398540  1  0  -0.894478  0  1.986031  0  0  -0.809431  0  2.243452  0  0  -0.836372  0  2.223903  0  0  -0.390514  -0.789869  0  2.255912  0
O  O55  1  0.55699541  0.21283250  0.12586226  1  0  -0.894108  0  1.986221  0  0  -0.80888  0  2.243552  0  0  -0.835777  0  2.223939  0  0  -0.3904  -0.789417  0  2.256105  0
O  O56  1  0.56940708  0.71281461  0.12601574  1  0  -0.894461  0  1.985941  0  0  -0.809463  0  2.243435  0  0  -0.836397  0  2.223871  0  0  -0.39056  -0.7899  0  2.255894  0
O  O57  1  0.44300610  0.78716751  0.87413527  1  0  -0.894122  0  1.9862  0  0  -0.808871  0  2.243524  0  0  -0.835768  0  2.223909  0  0  -0.390391  -0.789406  0  2.256078  0
O  O58  1  0.31147542  0.51604975  0.79297934  1  0  -0.773826  0  2.030351  0  0  -0.68923  0  2.25307  0  0  -0.712548  0  2.228831  0  0  -0.370588  -0.673403  0  2.269791  0
O  O59  1  0.51895456  0.98402788  0.20696418  1  0  -0.774147  0  2.030258  0  0  -0.690327  0  2.252644  0  0  -0.713621  0  2.228414  0  0  -0.370418  -0.674495  0  2.269355  0
O  O60  1  0.68852016  0.48395027  0.20702051  1  0  -0.773849  0  2.030407  0  0  -0.68921  0  2.253073  0  0  -0.71253  0  2.228838  0  0  -0.370603  -0.673384  0  2.269794  0
O  O61  1  0.48104558  0.01597327  0.79303500  1  0  -0.7741  0  2.030326  0  0  -0.690274  0  2.252727  0  0  -0.713567  0  2.228494  0  0  -0.370416  -0.67444  0  2.269438  0
O  O62  1  0.68473988  0.49546328  0.88331368  1  0  -0.932051  0  1.929749  0  0  -0.840361  0  2.180268  0  0  -0.8677  0  2.160367  0  0  -0.409863  -0.820851  0  2.193835  0
O  O63  1  0.80182434  0.00452579  0.11666071  1  0  -0.931995  0  1.930303  0  0  -0.840758  0  2.181119  0  0  -0.868225  0  2.16131  0  0  -0.409974  -0.821085  0  2.194561  0
O  O64  1  0.31525888  0.50453900  0.11668461  1  0  -0.931987  0  1.929721  0  0  -0.84034  0  2.180277  0  0  -0.867668  0  2.160361  0  0  -0.409864  -0.820833  0  2.193844  0
O  O65  1  0.19817717  0.99547423  0.88333936  1  0  -0.931959  0  1.930297  0  0  -0.840752  0  2.181138  0  0  -0.868221  0  2.161333  0  0  -0.409994  -0.821078  0  2.194582  0
O  O66  1  0.87639769  0.25001879  0.99999154  1  0  -0.865705  0  1.824073  0  0  -0.805558  0  2.016974  0  0  -0.824534  0  1.985618  0  0  -0.617388  -0.791942  0  2.039644  0
O  O67  1  0.12360223  0.74998010  0.00000804  1  0  -0.865639  0  1.824131  0  0  -0.805483  0  2.017041  0  0  -0.824459  0  1.985687  0  0  -0.617364  -0.791867  0  2.039707  0
O  O68  1  0.17671879  0.13089326  0.15568725  1  0  -0.891523  0  1.804328  0  0  -0.842385  0  1.982851  0  0  -0.862121  0  1.952726  0  0  -0.63012  -0.828176  0  2.004196  0
O  O69  1  0.02076397  0.36888445  0.84409295  1  0  -0.891254  0  1.803824  0  0  -0.841547  0  1.983423  0  0  -0.861314  0  1.953127  0  0  -0.629923  -0.827276  0  2.004727  0
O  O70  1  0.82328432  0.86910790  0.84431331  1  0  -0.891534  0  1.804292  0  0  -0.842353  0  1.982856  0  0  -0.862089  0  1.952729  0  0  -0.630129  -0.828142  0  2.004198  0
O  O71  1  0.97923447  0.63111443  0.15590637  1  0  -0.891258  0  1.803833  0  0  -0.841562  0  1.983437  0  0  -0.861326  0  1.953145  0  0  -0.629946  -0.827291  0  2.00474  0
