# generated using pymatgen
data_AgH4C8N4O2F3
_symmetry_space_group_name_H-M   'P 1'
_cell_length_a   7.36361954
_cell_length_b   11.25156887
_cell_length_c   12.52803363
_cell_angle_alpha   90.00032932
_cell_angle_beta   89.99999141
_cell_angle_gamma   90.00000716
_symmetry_Int_Tables_number   1
_chemical_formula_structural   AgH4C8N4O2F3
_chemical_formula_sum   'Ag4 H16 C32 N16 O8 F12'
_cell_volume   1037.97605434
_cell_formula_units_Z   4
loop_
 _symmetry_equiv_pos_site_id
 _symmetry_equiv_pos_as_xyz
  1  'x, y, z'
loop_
 _atom_site_type_symbol
 _atom_site_label
 _atom_site_symmetry_multiplicity
 _atom_site_fract_x
 _atom_site_fract_y
 _atom_site_fract_z
 _atom_site_occupancy
 _atom_site_hle17_bader_spin_density
 _atom_site_hle17_ddec_charge
 _atom_site_hle17_ddec_spin_density
 _atom_site_hle17_ddec_sum_bond_order
 _atom_site_hle17_magmom
 _atom_site_hse06_10hf_bader_spin_density
 _atom_site_hse06_10hf_ddec_charge
 _atom_site_hse06_10hf_ddec_spin_density
 _atom_site_hse06_10hf_ddec_sum_bond_order
 _atom_site_hse06_10hf_magmom
 _atom_site_hse06_bader_spin_density
 _atom_site_hse06_ddec_charge
 _atom_site_hse06_ddec_spin_density
 _atom_site_hse06_ddec_sum_bond_order
 _atom_site_hse06_magmom
 _atom_site_pbe_bader_spin_density
 _atom_site_pbe_cm5_charge
 _atom_site_pbe_ddec_charge
 _atom_site_pbe_ddec_spin_density
 _atom_site_pbe_ddec_sum_bond_order
 _atom_site_pbe_magmom
Ag  Ag0  1  0.95190950  0.17950097  0.74999921  1  0  0.486187  0  1.361999  0  0  0.32026  0  1.814255  0  0  0.351417  0  1.766471  0  0  0.451896  0.30136  0  1.846834  0
Ag  Ag1  1  0.54808919  0.67950073  0.24999866  1  0  0.486153  0  1.362054  0  0  0.320228  0  1.814314  0  0  0.351387  0  1.76653  0  0  0.45188  0.301327  0  1.846892  0
Ag  Ag2  1  0.04808917  0.82049971  0.25000144  1  0  0.486142  0  1.362068  0  0  0.320211  0  1.81433  0  0  0.351368  0  1.766546  0  0  0.451871  0.301308  0  1.846909  0
Ag  Ag3  1  0.45190948  0.32049995  0.75000199  1  0  0.486148  0  1.362053  0  0  0.320228  0  1.814287  0  0  0.351387  0  1.766502  0  0  0.451887  0.301328  0  1.846867  0
H  H4  1  0.85358703  0.97989812  0.57810039  1  0  0.121339  0  0.935432  0  0  0.129458  0  0.994802  0  0  0.132671  0  0.992113  0  0  0.129801  0.126947  0  0.997057  0
H  H5  1  0.64640900  0.47989623  0.42189982  1  0  0.121263  0  0.935449  0  0  0.12939  0  0.994812  0  0  0.132604  0  0.992123  0  0  0.129782  0.12688  0  0.997066  0
H  H6  1  0.14641440  0.02010323  0.07810009  1  0  0.12131  0  0.935461  0  0  0.129438  0  0.994804  0  0  0.132651  0  0.992117  0  0  0.129802  0.126926  0  0.99706  0
H  H7  1  0.35358827  0.52010199  0.92190019  1  0  0.121328  0  0.935414  0  0  0.129447  0  0.994782  0  0  0.132659  0  0.992093  0  0  0.129803  0.126937  0  0.997036  0
H  H8  1  0.14641028  0.02010255  0.42190025  1  0  0.121313  0  0.935409  0  0  0.129438  0  0.994776  0  0  0.13265  0  0.992086  0  0  0.129791  0.126927  0  0.99703  0
H  H9  1  0.35358967  0.52010356  0.57810083  1  0  0.121299  0  0.93543  0  0  0.129419  0  0.994798  0  0  0.132632  0  0.99211  0  0  0.129776  0.126907  0  0.997056  0
H  H10  1  0.85359378  0.97989745  0.92189816  1  0  0.121293  0  0.935394  0  0  0.129416  0  0.994758  0  0  0.132627  0  0.992071  0  0  0.129776  0.126903  0  0.997018  0
H  H11  1  0.64641040  0.47989780  0.07810046  1  0  0.121298  0  0.935424  0  0  0.129419  0  0.99479  0  0  0.132631  0  0.992102  0  0  0.129799  0.126908  0  0.997046  0
H  H12  1  0.27184995  0.18564968  0.55692586  1  0  0.102327  0  0.950379  0  0  0.106106  0  1.019862  0  0  0.10895  0  1.017253  0  0  0.127402  0.103931  0  1.022086  0
H  H13  1  0.22814732  0.68565070  0.44307768  1  0  0.102369  0  0.95042  0  0  0.106147  0  1.019881  0  0  0.108995  0  1.017266  0  0  0.127405  0.103971  0  1.022105  0
H  H14  1  0.72815013  0.81434798  0.05692241  1  0  0.102369  0  0.95038  0  0  0.106109  0  1.019874  0  0  0.108954  0  1.017264  0  0  0.127392  0.103932  0  1.022097  0
H  H15  1  0.77184994  0.31435033  0.94307455  1  0  0.10242  0  0.950364  0  0  0.106165  0  1.019875  0  0  0.109011  0  1.017262  0  0  0.127405  0.103988  0  1.022099  0
H  H16  1  0.72814736  0.81435100  0.44307479  1  0  0.102267  0  0.9504  0  0  0.106106  0  1.019818  0  0  0.108955  0  1.017199  0  0  0.127385  0.103929  0  1.022042  0
H  H17  1  0.77185135  0.31434909  0.55692217  1  0  0.102402  0  0.950366  0  0  0.106145  0  1.019874  0  0  0.10899  0  1.017264  0  0  0.127403  0.10397  0  1.022098  0
H  H18  1  0.27185397  0.18564914  0.94307903  1  0  0.1024  0  0.950413  0  0  0.106186  0  1.019862  0  0  0.109033  0  1.017249  0  0  0.127424  0.104011  0  1.022085  0
H  H19  1  0.22814737  0.68564946  0.05692530  1  0  0.102259  0  0.950421  0  0  0.106096  0  1.019844  0  0  0.108946  0  1.017223  0  0  0.127385  0.103919  0  1.022068  0
C  C20  1  0.71959170  0.02026569  0.56887621  1  0  0.110047  0  3.598565  0  0  0.071933  0  3.855631  0  0  0.077604  0  3.867967  0  0  0.082656  0.067828  0  3.848328  0
C  C21  1  0.78040696  0.52026575  0.43112323  1  0  0.110278  0  3.598676  0  0  0.07216  0  3.855746  0  0  0.077831  0  3.868082  0  0  0.082767  0.068053  0  3.848446  0
C  C22  1  0.28040974  0.97973471  0.06887685  1  0  0.11015  0  3.59863  0  0  0.07206  0  3.855691  0  0  0.077729  0  3.868027  0  0  0.082707  0.067954  0  3.848385  0
C  C23  1  0.21959166  0.47973431  0.93112501  1  0  0.110043  0  3.59854  0  0  0.071936  0  3.855617  0  0  0.077606  0  3.867952  0  0  0.082655  0.067832  0  3.848315  0
C  C24  1  0.28040697  0.97973499  0.43112444  1  0  0.110053  0  3.598557  0  0  0.071924  0  3.855635  0  0  0.077597  0  3.86797  0  0  0.082643  0.067817  0  3.84833  0
C  C25  1  0.21959035  0.47973404  0.56887662  1  0  0.110182  0  3.598734  0  0  0.072077  0  3.855804  0  0  0.077748  0  3.868139  0  0  0.082761  0.067974  0  3.848501  0
C  C26  1  0.71959301  0.02026596  0.93112380  1  0  0.110123  0  3.598644  0  0  0.07201  0  3.855709  0  0  0.077682  0  3.868044  0  0  0.082704  0.067903  0  3.848403  0
C  C27  1  0.78040701  0.52026459  0.06887564  1  0  0.110078  0  3.598523  0  0  0.071992  0  3.855575  0  0  0.077663  0  3.86791  0  0  0.082684  0.067887  0  3.848275  0
C  C28  1  0.58311543  0.97003703  0.50328098  1  0  0.032799  0  3.760603  0  0  0.04036  0  3.999547  0  0  0.040231  0  4.017583  0  0  0.020912  0.040008  0  3.988188  0
C  C29  1  0.91688331  0.47003652  0.49671919  1  0  0.032752  0  3.760724  0  0  0.040327  0  3.999645  0  0  0.040199  0  4.017676  0  0  0.02092  0.039981  0  3.988284  0
C  C30  1  0.41689009  0.02996296  0.00328070  1  0  0.032944  0  3.760422  0  0  0.040457  0  3.999397  0  0  0.040331  0  4.017427  0  0  0.020936  0.040102  0  3.988039  0
C  C31  1  0.08311530  0.52996129  0.99671963  1  0  0.032898  0  3.760352  0  0  0.040455  0  3.99932  0  0  0.040326  0  4.017354  0  0  0.020954  0.040101  0  3.987972  0
C  C32  1  0.41688324  0.02996276  0.49671967  1  0  0.032852  0  3.760591  0  0  0.040448  0  3.999518  0  0  0.04032  0  4.017548  0  0  0.020969  0.040101  0  3.988151  0
C  C33  1  0.08311400  0.52996327  0.50328066  1  0  0.032958  0  3.760493  0  0  0.040475  0  3.999451  0  0  0.040346  0  4.017484  0  0  0.020928  0.040119  0  3.988103  0
C  C34  1  0.58311944  0.97003683  0.99671995  1  0  0.032796  0  3.760706  0  0  0.040354  0  3.999631  0  0  0.040225  0  4.017663  0  0  0.020928  0.040008  0  3.988262  0
C  C35  1  0.91688337  0.47003672  0.00328181  1  0  0.032994  0  3.760306  0  0  0.04052  0  3.999253  0  0  0.040392  0  4.017284  0  0  0.020982  0.040162  0  3.987912  0
C  C36  1  0.39806233  0.13530027  0.55700235  1  0  0.108403  0  3.63055  0  0  0.068438  0  3.88913  0  0  0.074502  0  3.902962  0  0  0.078356  0.064004  0  3.880833  0
C  C37  1  0.10194036  0.63530038  0.44300013  1  0  0.108217  0  3.630474  0  0  0.068328  0  3.888962  0  0  0.074392  0  3.902791  0  0  0.078321  0.063896  0  3.880669  0
C  C38  1  0.60194046  0.86470006  0.05699997  1  0  0.108338  0  3.63059  0  0  0.068486  0  3.889066  0  0  0.07455  0  3.902899  0  0  0.078405  0.064052  0  3.880765  0
C  C39  1  0.89806233  0.36469887  0.94299885  1  0  0.108174  0  3.630489  0  0  0.068292  0  3.889006  0  0  0.074353  0  3.902836  0  0  0.078324  0.063863  0  3.880711  0
C  C40  1  0.60193498  0.86470041  0.44299910  1  0  0.10841  0  3.630572  0  0  0.068426  0  3.889132  0  0  0.074489  0  3.902967  0  0  0.078352  0.063995  0  3.880833  0
C  C41  1  0.89806103  0.36470030  0.55699893  1  0  0.108303  0  3.630508  0  0  0.068406  0  3.889027  0  0  0.07447  0  3.902857  0  0  0.078367  0.063974  0  3.880731  0
C  C42  1  0.39806228  0.13530061  0.94299988  1  0  0.108204  0  3.630454  0  0  0.068305  0  3.888955  0  0  0.074367  0  3.902786  0  0  0.078322  0.063873  0  3.880661  0
C  C43  1  0.10193634  0.63530004  0.05700260  1  0  0.108335  0  3.630353  0  0  0.068362  0  3.888909  0  0  0.074423  0  3.902741  0  0  0.078307  0.063932  0  3.880611  0
C  C44  1  0.15322084  0.95379651  0.75000842  1  0  0.478667  0  4.065629  0  0  0.430236  0  4.360987  0  0  0.460103  0  4.357185  0  0  0.174771  0.410033  0  4.362493  0
C  C45  1  0.34677784  0.45379620  0.24999091  1  0  0.478532  0  4.065544  0  0  0.430074  0  4.360911  0  0  0.459946  0  4.357096  0  0  0.17471  0.409872  0  4.362419  0
C  C46  1  0.84677647  0.04620328  0.25000500  1  0  0.47869  0  4.065403  0  0  0.430231  0  4.360782  0  0  0.460102  0  4.35697  0  0  0.17474  0.410024  0  4.362288  0
C  C47  1  0.65322083  0.54620448  0.75000096  1  0  0.478684  0  4.065484  0  0  0.43016  0  4.360949  0  0  0.460039  0  4.35712  0  0  0.1747  0.40996  0  4.362451  0
C  C48  1  0.28816398  0.84676877  0.74999936  1  0  0.677819  0  3.621193  0  0  0.607344  0  3.969168  0  0  0.634824  0  3.941492  0  0  0.289054  0.58761  0  3.988973  0
C  C49  1  0.21183604  0.34676934  0.24999942  1  0  0.677971  0  3.620972  0  0  0.607605  0  3.968787  0  0  0.635099  0  3.94108  0  0  0.289137  0.587869  0  3.988594  0
C  C50  1  0.71183605  0.15323013  0.24999969  1  0  0.677858  0  3.621062  0  0  0.607473  0  3.968905  0  0  0.634957  0  3.941217  0  0  0.289119  0.58774  0  3.988709  0
C  C51  1  0.78816535  0.65323223  0.74999964  1  0  0.677851  0  3.621091  0  0  0.607494  0  3.968913  0  0  0.634986  0  3.941202  0  0  0.289089  0.587757  0  3.98872  0
N  N52  1  0.69381905  0.11960934  0.62266384  1  0  -0.162239  0  3.089118  0  0  -0.118023  0  3.379149  0  0  -0.127631  0  3.393613  0  0  -0.195847  -0.112073  0  3.370373  0
N  N53  1  0.80617827  0.61960639  0.37733851  1  0  -0.162328  0  3.089165  0  0  -0.118144  0  3.379251  0  0  -0.127753  0  3.393715  0  0  -0.195906  -0.112192  0  3.370475  0
N  N54  1  0.30618237  0.88039230  0.12266237  1  0  -0.162355  0  3.089284  0  0  -0.118164  0  3.379356  0  0  -0.127773  0  3.393821  0  0  -0.195886  -0.112215  0  3.370576  0
N  N55  1  0.19381765  0.38039066  0.87733578  1  0  -0.162237  0  3.089106  0  0  -0.118037  0  3.379165  0  0  -0.127646  0  3.393629  0  0  -0.195845  -0.112087  0  3.370389  0
N  N56  1  0.30617962  0.88039134  0.37733681  1  0  -0.162251  0  3.089106  0  0  -0.118042  0  3.379162  0  0  -0.127651  0  3.393627  0  0  -0.195849  -0.112091  0  3.370383  0
N  N57  1  0.19382040  0.38039251  0.62266214  1  0  -0.162346  0  3.089282  0  0  -0.118141  0  3.379337  0  0  -0.127749  0  3.3938  0  0  -0.195907  -0.112189  0  3.37056  0
N  N58  1  0.69382173  0.11960660  0.87733748  1  0  -0.162322  0  3.089184  0  0  -0.118124  0  3.379245  0  0  -0.127733  0  3.393709  0  0  -0.195912  -0.112175  0  3.370469  0
N  N59  1  0.80617966  0.61960824  0.12266407  1  0  -0.162292  0  3.089144  0  0  -0.118091  0  3.379191  0  0  -0.127699  0  3.393655  0  0  -0.195883  -0.11214  0  3.370413  0
N  N60  1  0.53060584  0.17775854  0.61688815  1  0  -0.16654  0  3.152036  0  0  -0.111599  0  3.448575  0  0  -0.122523  0  3.462335  0  0  -0.206399  -0.104786  0  3.440231  0
N  N61  1  0.96939149  0.67775831  0.38311370  1  0  -0.166514  0  3.151883  0  0  -0.111599  0  3.448418  0  0  -0.122523  0  3.462178  0  0  -0.206403  -0.104783  0  3.440069  0
N  N62  1  0.46939422  0.82224128  0.11688636  1  0  -0.166468  0  3.151991  0  0  -0.111571  0  3.448514  0  0  -0.122497  0  3.462276  0  0  -0.206408  -0.104758  0  3.440164  0
N  N63  1  0.03060579  0.32224234  0.88311228  1  0  -0.166522  0  3.152117  0  0  -0.111602  0  3.448645  0  0  -0.122525  0  3.462406  0  0  -0.206401  -0.104789  0  3.440298  0
N  N64  1  0.46939283  0.82224214  0.38311250  1  0  -0.166462  0  3.152026  0  0  -0.111534  0  3.44858  0  0  -0.122458  0  3.462343  0  0  -0.206356  -0.10472  0  3.44023  0
N  N65  1  0.03060854  0.32224237  0.61688615  1  0  -0.166503  0  3.151824  0  0  -0.111589  0  3.448351  0  0  -0.122513  0  3.462109  0  0  -0.206399  -0.104775  0  3.440006  0
N  N66  1  0.53060988  0.17775762  0.88311428  1  0  -0.166466  0  3.151905  0  0  -0.111549  0  3.448432  0  0  -0.122471  0  3.462191  0  0  -0.206376  -0.104737  0  3.440086  0
N  N67  1  0.96939288  0.67775745  0.11688836  1  0  -0.166451  0  3.151984  0  0  -0.111523  0  3.44853  0  0  -0.122446  0  3.462291  0  0  -0.206337  -0.104708  0  3.440179  0
O  O68  1  0.11057606  0.99325827  0.65940452  1  0  -0.577933  0  2.023299  0  0  -0.534897  0  2.263979  0  0  -0.561198  0  2.257154  0  0  -0.322585  -0.515659  0  2.267641  0
O  O69  1  0.38941719  0.49326032  0.34059341  1  0  -0.577843  0  2.023351  0  0  -0.534799  0  2.264016  0  0  -0.561106  0  2.257195  0  0  -0.322527  -0.515564  0  2.267677  0
O  O70  1  0.88941448  0.00674005  0.15940329  1  0  -0.577893  0  2.023279  0  0  -0.534859  0  2.263968  0  0  -0.561162  0  2.257142  0  0  -0.322577  -0.515624  0  2.267628  0
O  O71  1  0.61058010  0.50674449  0.84058970  1  0  -0.577845  0  2.023695  0  0  -0.534783  0  2.264393  0  0  -0.561081  0  2.257561  0  0  -0.322516  -0.515553  0  2.268053  0
O  O72  1  0.88941717  0.00674419  0.34059134  1  0  -0.57783  0  2.023742  0  0  -0.534783  0  2.264436  0  0  -0.561075  0  2.257605  0  0  -0.322522  -0.515556  0  2.2681  0
O  O73  1  0.61058691  0.50674391  0.65940245  1  0  -0.577851  0  2.023452  0  0  -0.534782  0  2.264154  0  0  -0.561085  0  2.257326  0  0  -0.322529  -0.51555  0  2.267816  0
O  O74  1  0.11058962  0.99325441  0.84059018  1  0  -0.577757  0  2.023975  0  0  -0.534717  0  2.264631  0  0  -0.561003  0  2.257806  0  0  -0.322517  -0.515489  0  2.268295  0
O  O75  1  0.38941721  0.49325352  0.15940616  1  0  -0.577741  0  2.023835  0  0  -0.534705  0  2.26453  0  0  -0.560998  0  2.257701  0  0  -0.322518  -0.515478  0  2.268195  0
F  F76  1  0.46297882  0.89052090  0.75000106  1  0  -0.270184  0  1.153623  0  0  -0.228497  0  1.315829  0  0  -0.240074  0  1.303245  0  0  -0.116688  -0.220067  0  1.324608  0
F  F77  1  0.03702256  0.39052234  0.24999794  1  0  -0.270234  0  1.153613  0  0  -0.228576  0  1.315793  0  0  -0.240154  0  1.3032  0  0  -0.116714  -0.220139  0  1.324565  0
F  F78  1  0.53702120  0.10947800  0.25000198  1  0  -0.270182  0  1.153592  0  0  -0.228523  0  1.315779  0  0  -0.240102  0  1.303193  0  0  -0.116694  -0.220091  0  1.324551  0
F  F79  1  0.96297747  0.60947923  0.74999952  1  0  -0.270258  0  1.153698  0  0  -0.228549  0  1.315832  0  0  -0.240127  0  1.30324  0  0  -0.116697  -0.220119  0  1.324611  0
F  F80  1  0.27291061  0.77538111  0.66247307  1  0  -0.254536  0  1.157085  0  0  -0.216555  0  1.319  0  0  -0.225857  0  1.303408  0  0  -0.113851  -0.209771  0  1.329884  0
F  F81  1  0.22708939  0.27538313  0.33752614  1  0  -0.254588  0  1.156956  0  0  -0.216634  0  1.318836  0  0  -0.225938  0  1.303238  0  0  -0.113922  -0.209851  0  1.329721  0
F  F82  1  0.72708672  0.22461811  0.16247377  1  0  -0.254573  0  1.156998  0  0  -0.216612  0  1.318878  0  0  -0.225915  0  1.303284  0  0  -0.113916  -0.20983  0  1.329762  0
F  F83  1  0.77291062  0.72461900  0.83752752  1  0  -0.254521  0  1.157  0  0  -0.216571  0  1.318876  0  0  -0.225877  0  1.303277  0  0  -0.113857  -0.209785  0  1.329759  0
F  F84  1  0.72709213  0.22461868  0.33752758  1  0  -0.254535  0  1.156969  0  0  -0.216571  0  1.31885  0  0  -0.225874  0  1.303257  0  0  -0.113855  -0.209787  0  1.329735  0
F  F85  1  0.77291064  0.72462110  0.66247372  1  0  -0.254555  0  1.156985  0  0  -0.21662  0  1.318875  0  0  -0.225925  0  1.303274  0  0  -0.113895  -0.209834  0  1.329758  0
F  F86  1  0.27291195  0.77538079  0.83752688  1  0  -0.254561  0  1.157013  0  0  -0.216576  0  1.318923  0  0  -0.22588  0  1.303332  0  0  -0.113889  -0.209791  0  1.329806  0
F  F87  1  0.22708941  0.27537990  0.16247233  1  0  -0.254573  0  1.156965  0  0  -0.216619  0  1.318848  0  0  -0.225925  0  1.303251  0  0  -0.113863  -0.209835  0  1.329732  0
