# generated using pymatgen
data_ZnH9(CN)7
_symmetry_space_group_name_H-M   'P 1'
_cell_length_a   6.01885840
_cell_length_b   10.95834631
_cell_length_c   16.53814102
_cell_angle_alpha   90.00051569
_cell_angle_beta   89.99953516
_cell_angle_gamma   105.12996506
_symmetry_Int_Tables_number   1
_chemical_formula_structural   ZnH9(CN)7
_chemical_formula_sum   'Zn4 H36 C28 N28'
_cell_volume   1052.99050728
_cell_formula_units_Z   4
loop_
 _symmetry_equiv_pos_site_id
 _symmetry_equiv_pos_as_xyz
  1  'x, y, z'
loop_
 _atom_site_type_symbol
 _atom_site_label
 _atom_site_symmetry_multiplicity
 _atom_site_fract_x
 _atom_site_fract_y
 _atom_site_fract_z
 _atom_site_occupancy
 _atom_site_hle17_bader_spin_density
 _atom_site_hle17_ddec_charge
 _atom_site_hle17_ddec_spin_density
 _atom_site_hle17_ddec_sum_bond_order
 _atom_site_hle17_magmom
 _atom_site_hse06_10hf_bader_spin_density
 _atom_site_hse06_10hf_ddec_charge
 _atom_site_hse06_10hf_ddec_spin_density
 _atom_site_hse06_10hf_ddec_sum_bond_order
 _atom_site_hse06_10hf_magmom
 _atom_site_hse06_bader_spin_density
 _atom_site_hse06_ddec_charge
 _atom_site_hse06_ddec_spin_density
 _atom_site_hse06_ddec_sum_bond_order
 _atom_site_hse06_magmom
 _atom_site_pbe_bader_spin_density
 _atom_site_pbe_cm5_charge
 _atom_site_pbe_ddec_charge
 _atom_site_pbe_ddec_spin_density
 _atom_site_pbe_ddec_sum_bond_order
 _atom_site_pbe_magmom
Zn  Zn0  1  0.23822385  0.26060113  0.21078287  1  0  0.935621  0  2.034628  0  0  0.767988  0  2.509894  0  0  0.803295  0  2.471077  0  0  0.720554  0.744221  0  2.535826  0
Zn  Zn1  1  0.26177817  0.73939719  0.71078063  1  0  0.93563  0  2.03455  0  0  0.768006  0  2.509826  0  0  0.803315  0  2.471004  0  0  0.720532  0.744238  0  2.53576  0
Zn  Zn2  1  0.76177936  0.73939704  0.78921732  1  0  0.935627  0  2.034584  0  0  0.768011  0  2.509851  0  0  0.803315  0  2.471034  0  0  0.720556  0.744245  0  2.535787  0
Zn  Zn3  1  0.73822514  0.26060476  0.28921775  1  0  0.935579  0  2.034605  0  0  0.767971  0  2.509876  0  0  0.80328  0  2.471057  0  0  0.720535  0.744203  0  2.535816  0
H  H4  1  0.53645600  0.35066987  0.06434119  1  0  0.077352  0  0.974507  0  0  0.083654  0  1.046104  0  0  0.085857  0  1.044422  0  0  0.110615  0.082025  0  1.04739  0
H  H5  1  0.96354285  0.64932751  0.56433959  1  0  0.077346  0  0.974536  0  0  0.083643  0  1.046135  0  0  0.085845  0  1.044455  0  0  0.110607  0.082016  0  1.047418  0
H  H6  1  0.46353557  0.64932826  0.93566203  1  0  0.077338  0  0.974587  0  0  0.083614  0  1.046201  0  0  0.085814  0  1.044524  0  0  0.110605  0.081988  0  1.047487  0
H  H7  1  0.03646247  0.35067161  0.43566122  1  0  0.077324  0  0.974596  0  0  0.083621  0  1.046194  0  0  0.085824  0  1.044508  0  0  0.110599  0.081994  0  1.047478  0
H  H8  1  0.79517241  0.10737688  0.95508587  1  0  0.111583  0  0.968374  0  0  0.118435  0  1.03254  0  0  0.121506  0  1.031866  0  0  0.105112  0.116261  0  1.033151  0
H  H9  1  0.70481721  0.89261823  0.45508056  1  0  0.111567  0  0.968369  0  0  0.118422  0  1.03254  0  0  0.121498  0  1.03186  0  0  0.105107  0.116254  0  1.033149  0
H  H10  1  0.20484105  0.89261472  0.04491553  1  0  0.111508  0  0.968406  0  0  0.118432  0  1.032504  0  0  0.12151  0  1.031821  0  0  0.105112  0.116259  0  1.033116  0
H  H11  1  0.29517517  0.10739595  0.54491722  1  0  0.111584  0  0.968426  0  0  0.118476  0  1.032554  0  0  0.121547  0  1.031879  0  0  0.105127  0.116304  0  1.033169  0
H  H12  1  0.86884795  0.13115013  0.10297676  1  0  0.070293  0  0.974707  0  0  0.075131  0  1.048192  0  0  0.077112  0  1.04655  0  0  0.110868  0.073766  0  1.049281  0
H  H13  1  0.63115230  0.86884486  0.60297087  1  0  0.070357  0  0.974758  0  0  0.075204  0  1.048227  0  0  0.077164  0  1.046603  0  0  0.110909  0.073843  0  1.04932  0
H  H14  1  0.13115578  0.86883483  0.89702525  1  0  0.070275  0  0.974797  0  0  0.075116  0  1.048275  0  0  0.077064  0  1.046666  0  0  0.11087  0.073748  0  1.049377  0
H  H15  1  0.36884718  0.13117029  0.39702752  1  0  0.070247  0  0.974761  0  0  0.075018  0  1.04831  0  0  0.077021  0  1.04665  0  0  0.11086  0.073648  0  1.049415  0
H  H16  1  0.69937613  0.39863750  0.93600314  1  0  0.1123  0  0.963731  0  0  0.12942  0  1.030273  0  0  0.130601  0  1.030694  0  0  0.090706  0.128504  0  1.03008  0
H  H17  1  0.80061335  0.60135645  0.43600000  1  0  0.11232  0  0.963701  0  0  0.129416  0  1.030278  0  0  0.130597  0  1.030697  0  0  0.090721  0.1285  0  1.030085  0
H  H18  1  0.30062831  0.60135973  0.06399887  1  0  0.112326  0  0.963778  0  0  0.129455  0  1.030299  0  0  0.130636  0  1.030719  0  0  0.090713  0.12854  0  1.030108  0
H  H19  1  0.19938654  0.39864170  0.56399959  1  0  0.11236  0  0.963755  0  0  0.129465  0  1.030308  0  0  0.130646  0  1.030729  0  0  0.090733  0.128548  0  1.030116  0
H  H20  1  0.59832428  0.27993422  0.86157559  1  0  0.11629  0  0.953334  0  0  0.138194  0  1.013948  0  0  0.138631  0  1.01479  0  0  0.093815  0.137838  0  1.013341  0
H  H21  1  0.90166261  0.72005795  0.36157164  1  0  0.116256  0  0.953325  0  0  0.138157  0  1.013949  0  0  0.138591  0  1.014794  0  0  0.093789  0.137808  0  1.01333  0
H  H22  1  0.40167640  0.72006205  0.13842703  1  0  0.116312  0  0.95329  0  0  0.138198  0  1.01393  0  0  0.138638  0  1.014768  0  0  0.093806  0.13784  0  1.013323  0
H  H23  1  0.09833097  0.27993736  0.63842795  1  0  0.116237  0  0.953346  0  0  0.138144  0  1.013964  0  0  0.138576  0  1.014813  0  0  0.093778  0.137788  0  1.013356  0
H  H24  1  0.50035559  0.41896133  0.86038558  1  0  0.109967  0  0.954707  0  0  0.127198  0  1.023806  0  0  0.128032  0  1.024329  0  0  0.088634  0.126553  0  1.023449  0
H  H25  1  0.99963552  0.58103273  0.36038351  1  0  0.109892  0  0.954704  0  0  0.127124  0  1.023811  0  0  0.127957  0  1.024335  0  0  0.088607  0.126478  0  1.023449  0
H  H26  1  0.49964464  0.58103400  0.13961582  1  0  0.109918  0  0.954731  0  0  0.127147  0  1.02383  0  0  0.127986  0  1.024349  0  0  0.088618  0.126502  0  1.023473  0
H  H27  1  0.00035850  0.41896353  0.63961669  1  0  0.109916  0  0.954728  0  0  0.127145  0  1.023832  0  0  0.127985  0  1.02435  0  0  0.08864  0.126503  0  1.023467  0
H  H28  1  0.92185679  0.15149288  0.81943997  1  0  0.108355  0  0.968908  0  0  0.125593  0  1.034773  0  0  0.126874  0  1.034927  0  0  0.089111  0.124606  0  1.034748  0
H  H29  1  0.57813418  0.84850261  0.31943358  1  0  0.108348  0  0.968738  0  0  0.125579  0  1.034624  0  0  0.126865  0  1.03477  0  0  0.089064  0.124595  0  1.034599  0
H  H30  1  0.07814398  0.84850717  0.18056083  1  0  0.108395  0  0.968816  0  0  0.125603  0  1.034719  0  0  0.126885  0  1.034872  0  0  0.089127  0.124619  0  1.034694  0
H  H31  1  0.42185959  0.15150025  0.68056359  1  0  0.108382  0  0.968797  0  0  0.125583  0  1.034692  0  0  0.126865  0  1.034844  0  0  0.08908  0.124598  0  1.034667  0
H  H32  1  0.21848915  0.15590710  0.80619050  1  0  0.114037  0  0.968643  0  0  0.130713  0  1.038693  0  0  0.131601  0  1.039224  0  0  0.092687  0.130115  0  1.038211  0
H  H33  1  0.28149253  0.84408749  0.30618526  1  0  0.114093  0  0.968566  0  0  0.13077  0  1.038624  0  0  0.131659  0  1.039153  0  0  0.09273  0.130171  0  1.038141  0
H  H34  1  0.78151705  0.84409391  0.19381393  1  0  0.114024  0  0.968714  0  0  0.130688  0  1.038784  0  0  0.131575  0  1.039315  0  0  0.092686  0.130087  0  1.038305  0
H  H35  1  0.71849992  0.15591253  0.69381554  1  0  0.114045  0  0.968586  0  0  0.130679  0  1.038694  0  0  0.131569  0  1.039223  0  0  0.092658  0.130082  0  1.038211  0
H  H36  1  0.13200429  0.29826078  0.80482755  1  0  0.120746  0  0.939007  0  0  0.142176  0  0.99769  0  0  0.143442  0  0.997837  0  0  0.096922  0.141311  0  0.997521  0
H  H37  1  0.36798188  0.70172909  0.30482299  1  0  0.120743  0  0.939025  0  0  0.142154  0  0.997725  0  0  0.143423  0  0.99787  0  0  0.096883  0.14129  0  0.997551  0
H  H38  1  0.86799736  0.70174116  0.19517325  1  0  0.120718  0  0.939109  0  0  0.142153  0  0.997779  0  0  0.143421  0  0.997924  0  0  0.096905  0.141289  0  0.997608  0
H  H39  1  0.63201268  0.29827188  0.69517720  1  0  0.120725  0  0.938987  0  0  0.142133  0  0.997696  0  0  0.143401  0  0.997842  0  0  0.096889  0.141269  0  0.997524  0
C  C40  1  0.37473142  0.29658357  0.03771253  1  0  0.070179  0  3.664026  0  0  0.034025  0  3.905938  0  0  0.039837  0  3.924732  0  0  0.040867  0.0303  0  3.893306  0
C  C41  1  0.12526553  0.70341751  0.53770808  1  0  0.070077  0  3.664346  0  0  0.034  0  3.906281  0  0  0.039807  0  3.925082  0  0  0.040833  0.030281  0  3.893635  0
C  C42  1  0.62526479  0.70341740  0.96228887  1  0  0.070097  0  3.664119  0  0  0.034015  0  3.906067  0  0  0.039827  0  3.924862  0  0  0.040818  0.030286  0  3.893433  0
C  C43  1  0.87474067  0.29658350  0.46229091  1  0  0.070153  0  3.664254  0  0  0.034062  0  3.906174  0  0  0.039871  0  3.924972  0  0  0.040845  0.030335  0  3.89354  0
C  C44  1  0.35117731  0.28676326  0.95401262  1  0  0.06006  0  3.702058  0  0  0.086149  0  3.934429  0  0  0.080738  0  3.960574  0  0  0.005122  0.089442  0  3.916949  0
C  C45  1  0.14880748  0.71323393  0.45401184  1  0  0.060209  0  3.701813  0  0  0.086178  0  3.93444  0  0  0.080766  0  3.960586  0  0  0.005169  0.089472  0  3.916952  0
C  C46  1  0.64881505  0.71323298  0.04598878  1  0  0.060123  0  3.701859  0  0  0.08613  0  3.934394  0  0  0.080714  0  3.960545  0  0  0.005173  0.089424  0  3.916906  0
C  C47  1  0.85119040  0.28676705  0.54598775  1  0  0.060122  0  3.70213  0  0  0.086177  0  3.934561  0  0  0.080765  0  3.960712  0  0  0.005168  0.08947  0  3.917079  0
C  C48  1  0.13722003  0.21754697  0.92243544  1  0  0.163583  0  3.681436  0  0  0.175719  0  3.918263  0  0  0.18058  0  3.940574  0  0  0.022551  0.172765  0  3.902683  0
C  C49  1  0.36278033  0.78245370  0.42243199  1  0  0.163558  0  3.681103  0  0  0.175587  0  3.918197  0  0  0.180448  0  3.940506  0  0  0.022524  0.172639  0  3.902612  0
C  C50  1  0.86277864  0.78245213  0.07756778  1  0  0.163725  0  3.681105  0  0  0.175798  0  3.918088  0  0  0.180661  0  3.9404  0  0  0.022518  0.172844  0  3.902505  0
C  C51  1  0.63722395  0.21755391  0.57756579  1  0  0.16353  0  3.681338  0  0  0.175647  0  3.918207  0  0  0.180507  0  3.940519  0  0  0.022497  0.172695  0  3.902629  0
C  C52  1  0.96265191  0.16169091  0.97698546  1  0  -0.169954  0  3.713419  0  0  -0.184751  0  3.95796  0  0  -0.193825  0  3.981111  0  0  -0.084  -0.178748  0  3.942267  0
C  C53  1  0.53733825  0.83830634  0.47698034  1  0  -0.16984  0  3.71377  0  0  -0.184602  0  3.958341  0  0  -0.193674  0  3.981483  0  0  -0.084019  -0.178595  0  3.942645  0
C  C54  1  0.03734324  0.83830063  0.02301474  1  0  -0.169995  0  3.713658  0  0  -0.184832  0  3.958217  0  0  -0.19391  0  3.981362  0  0  -0.084048  -0.178827  0  3.942523  0
C  C55  1  0.46265361  0.16170312  0.52301865  1  0  -0.169957  0  3.713717  0  0  -0.184797  0  3.958252  0  0  -0.193872  0  3.981406  0  0  -0.084042  -0.178799  0  3.942567  0
C  C56  1  0.00110199  0.17553176  0.05948122  1  0  0.122688  0  3.729266  0  0  0.088152  0  3.98436  0  0  0.09559  0  4.003001  0  0  0.034031  0.082968  0  3.972401  0
C  C57  1  0.49889996  0.82446675  0.55947330  1  0  0.12242  0  3.729556  0  0  0.087895  0  3.984631  0  0  0.095353  0  4.003277  0  0  0.03396  0.082676  0  3.972732  0
C  C58  1  0.99889981  0.82445980  0.94052140  1  0  0.122599  0  3.72942  0  0  0.08808  0  3.984551  0  0  0.095545  0  4.003203  0  0  0.033994  0.082876  0  3.972616  0
C  C59  1  0.50110197  0.17554652  0.44052508  1  0  0.1226  0  3.729328  0  0  0.088181  0  3.984434  0  0  0.095601  0  4.003061  0  0  0.034027  0.083011  0  3.972452  0
C  C60  1  0.54853895  0.34978605  0.90047747  1  0  -0.336482  0  3.728201  0  0  -0.416397  0  3.958523  0  0  -0.418681  0  3.971279  0  0  -0.241899  -0.414508  0  3.949838  0
C  C61  1  0.95145197  0.65020940  0.40047415  1  0  -0.336511  0  3.728095  0  0  -0.416334  0  3.958422  0  0  -0.418607  0  3.971177  0  0  -0.241926  -0.41446  0  3.949753  0
C  C62  1  0.45146173  0.65021022  0.09952515  1  0  -0.336558  0  3.728262  0  0  -0.416421  0  3.958588  0  0  -0.418715  0  3.971345  0  0  -0.24192  -0.414532  0  3.949903  0
C  C63  1  0.04854670  0.34978970  0.59952544  1  0  -0.336508  0  3.728273  0  0  -0.416388  0  3.958597  0  0  -0.41867  0  3.971343  0  0  -0.241945  -0.414503  0  3.949924  0
C  C64  1  0.09853683  0.20455978  0.83333173  1  0  -0.344962  0  3.715468  0  0  -0.423385  0  3.953418  0  0  -0.426153  0  3.962213  0  0  -0.240613  -0.421204  0  3.947002  0
C  C65  1  0.40144731  0.79543418  0.33332582  1  0  -0.344959  0  3.715114  0  0  -0.423295  0  3.953067  0  0  -0.426082  0  3.961896  0  0  -0.240504  -0.421118  0  3.946646  0
C  C66  1  0.90146061  0.79544026  0.16667088  1  0  -0.344961  0  3.715462  0  0  -0.423329  0  3.953432  0  0  -0.426093  0  3.962218  0  0  -0.240568  -0.421152  0  3.947018  0
C  C67  1  0.59854557  0.20456678  0.66667256  1  0  -0.344888  0  3.715162  0  0  -0.423203  0  3.953079  0  0  -0.425985  0  3.961891  0  0  -0.240455  -0.421027  0  3.94666  0
N  N68  1  0.98016974  0.14167468  0.27426491  1  0  -0.621796  0  2.874495  0  0  -0.574815  0  3.21067  0  0  -0.599238  0  3.213914  0  0  -0.333056  -0.558489  0  3.2085  0
N  N69  1  0.51983500  0.85832695  0.77426112  1  0  -0.621943  0  2.874494  0  0  -0.574939  0  3.2106  0  0  -0.599362  0  3.213845  0  0  -0.333068  -0.558617  0  3.208431  0
N  N70  1  0.01983435  0.85832538  0.72573649  1  0  -0.62193  0  2.874193  0  0  -0.574955  0  3.210361  0  0  -0.599387  0  3.213614  0  0  -0.333095  -0.558625  0  3.20819  0
N  N71  1  0.48016744  0.14167310  0.22574029  1  0  -0.621862  0  2.874208  0  0  -0.574864  0  3.21036  0  0  -0.599294  0  3.213611  0  0  -0.333047  -0.558539  0  3.208193  0
N  N72  1  0.99479406  0.05353926  0.31595069  1  0  0.408578  0  4.208005  0  0  0.438827  0  4.492221  0  0  0.454166  0  4.519787  0  0  0.092543  0.428626  0  4.473714  0
N  N73  1  0.50520748  0.94646094  0.81594808  1  0  0.408787  0  4.20791  0  0  0.439045  0  4.492119  0  0  0.454383  0  4.519682  0  0  0.092598  0.428844  0  4.473609  0
N  N74  1  0.00520680  0.94646456  0.68404770  1  0  0.408667  0  4.208048  0  0  0.438921  0  4.492273  0  0  0.454255  0  4.519841  0  0  0.092541  0.42872  0  4.473764  0
N  N75  1  0.49479608  0.05353440  0.18404970  1  0  0.408607  0  4.208152  0  0  0.438845  0  4.492379  0  0  0.454181  0  4.519943  0  0  0.092497  0.428644  0  4.473873  0
N  N76  1  0.00560377  0.96850354  0.35639425  1  0  -0.345352  0  2.415994  0  0  -0.342342  0  2.640358  0  0  -0.346903  0  2.64963  0  0  -0.155699  -0.339272  0  2.634318  0
N  N77  1  0.49439553  0.03149545  0.85639304  1  0  -0.345443  0  2.415931  0  0  -0.342465  0  2.640323  0  0  -0.347013  0  2.649573  0  0  -0.155729  -0.339394  0  2.634277  0
N  N78  1  0.99439358  0.03149273  0.64360655  1  0  -0.345314  0  2.416399  0  0  -0.342315  0  2.64078  0  0  -0.346848  0  2.65002  0  0  -0.155625  -0.339249  0  2.634737  0
N  N79  1  0.50560989  0.96850744  0.14360655  1  0  -0.345302  0  2.416443  0  0  -0.342293  0  2.640823  0  0  -0.346836  0  2.650075  0  0  -0.155616  -0.339225  0  2.634778  0
N  N80  1  0.98880294  0.38032343  0.22478182  1  0  -0.623423  0  2.825417  0  0  -0.579083  0  3.154977  0  0  -0.604048  0  3.158065  0  0  -0.33762  -0.562421  0  3.15287  0
N  N81  1  0.51119882  0.61967670  0.72477843  1  0  -0.623582  0  2.825664  0  0  -0.579245  0  3.155239  0  0  -0.604207  0  3.158326  0  0  -0.337724  -0.562578  0  3.153129  0
N  N82  1  0.01119950  0.61967662  0.77521595  1  0  -0.623361  0  2.825353  0  0  -0.579055  0  3.154898  0  0  -0.604018  0  3.157985  0  0  -0.337604  -0.562392  0  3.15279  0
N  N83  1  0.48880572  0.38032431  0.27521814  1  0  -0.623541  0  2.82522  0  0  -0.579202  0  3.154802  0  0  -0.604167  0  3.157889  0  0  -0.337698  -0.562536  0  3.152693  0
N  N84  1  0.93220482  0.43589070  0.16805745  1  0  0.404636  0  4.193248  0  0  0.438037  0  4.47355  0  0  0.453334  0  4.501483  0  0  0.093532  0.427828  0  4.454833  0
N  N85  1  0.56779871  0.56411069  0.66805475  1  0  0.404764  0  4.193083  0  0  0.438159  0  4.473369  0  0  0.453455  0  4.501301  0  0  0.093576  0.427952  0  4.454651  0
N  N86  1  0.06779928  0.56410936  0.83194093  1  0  0.40457  0  4.193074  0  0  0.438027  0  4.473307  0  0  0.453324  0  4.50124  0  0  0.093523  0.427819  0  4.454589  0
N  N87  1  0.43220216  0.43589313  0.33194424  1  0  0.404761  0  4.193054  0  0  0.438145  0  4.47338  0  0  0.453441  0  4.501313  0  0  0.093559  0.427936  0  4.454665  0
N  N88  1  0.88152827  0.48953906  0.11353342  1  0  -0.325725  0  2.409348  0  0  -0.325478  0  2.631231  0  0  -0.33016  0  2.64154  0  0  -0.148466  -0.322234  0  2.624371  0
N  N89  1  0.61847979  0.51045890  0.61352903  1  0  -0.325726  0  2.408967  0  0  -0.325485  0  2.630872  0  0  -0.330168  0  2.641182  0  0  -0.14839  -0.322238  0  2.624011  0
N  N90  1  0.11847828  0.51045912  0.88646496  1  0  -0.325691  0  2.409203  0  0  -0.325465  0  2.631049  0  0  -0.330146  0  2.641356  0  0  -0.148446  -0.322219  0  2.624188  0
N  N91  1  0.38152054  0.48954020  0.38646814  1  0  -0.325722  0  2.409354  0  0  -0.325471  0  2.631258  0  0  -0.330149  0  2.641566  0  0  -0.148388  -0.322227  0  2.624398  0
N  N92  1  0.20427331  0.24268666  0.08973722  1  0  -0.338567  0  3.379639  0  0  -0.253146  0  3.658251  0  0  -0.272184  0  3.675031  0  0  -0.346344  -0.240233  0  3.646474  0
N  N93  1  0.29572685  0.75730936  0.58973135  1  0  -0.338407  0  3.379568  0  0  -0.253016  0  3.65819  0  0  -0.272047  0  3.67496  0  0  -0.34627  -0.240095  0  3.646402  0
N  N94  1  0.79572359  0.75730866  0.91026237  1  0  -0.338385  0  3.379468  0  0  -0.252999  0  3.658085  0  0  -0.272028  0  3.674845  0  0  -0.346245  -0.240085  0  3.646307  0
N  N95  1  0.70427367  0.24269730  0.41026884  1  0  -0.338378  0  3.379364  0  0  -0.253066  0  3.658035  0  0  -0.272099  0  3.674817  0  0  -0.346266  -0.240156  0  3.646261  0
