# generated using pymatgen
data_CoH17C27N3O10
_symmetry_space_group_name_H-M   'P 1'
_cell_length_a   9.95103652
_cell_length_b   12.35092288
_cell_length_c   12.61599405
_cell_angle_alpha   112.42548363
_cell_angle_beta   102.83067561
_cell_angle_gamma   104.24536905
_symmetry_Int_Tables_number   1
_chemical_formula_structural   CoH17C27N3O10
_chemical_formula_sum   'Co2 H34 C54 N6 O20'
_cell_volume   1299.98784695
_cell_formula_units_Z   2
loop_
 _symmetry_equiv_pos_site_id
 _symmetry_equiv_pos_as_xyz
  1  'x, y, z'
loop_
 _atom_site_type_symbol
 _atom_site_label
 _atom_site_symmetry_multiplicity
 _atom_site_fract_x
 _atom_site_fract_y
 _atom_site_fract_z
 _atom_site_occupancy
 _atom_site_pbe_bader_charge
 _atom_site_pbe_bader_spin_density
 _atom_site_pbe_cm5_charge
 _atom_site_pbe_ddec_charge
 _atom_site_pbe_ddec_spin_density
 _atom_site_pbe_ddec_sum_bond_order
 _atom_site_pbe_magmom
Co  Co0  1  0.94323830  0.07368636  0.34963324  1  1.255028  2.614251  0.660886  0.852381  2.882289  2.373977  2.587
Co  Co1  1  0.05678122  0.92634042  0.65036094  1  1.255045  -2.614298  0.6608  0.85233  -2.882324  2.374118  -2.587
H  H2  1  0.62867464  0.10940281  0.24936930  1  0.656173  0.000208  0.305  0.365514  5.4e-05  0.971363  0.0
H  H3  1  0.37131981  0.89059164  0.75062874  1  0.656143  -0.000209  0.304999  0.365514  -5.4e-05  0.971405  0.0
H  H4  1  0.98021813  0.86828179  0.33388207  1  0.633834  0.000662  0.309254  0.399398  0.00058  0.903501  0.001
H  H5  1  0.01977356  0.13171827  0.66611763  1  0.634389  -0.000662  0.309269  0.399511  -0.00058  0.903424  -0.001
H  H6  1  0.86960078  0.87784750  0.40241855  1  0.640623  7.5e-05  0.293692  0.387955  0.000227  0.955302  0.0
H  H7  1  0.13039678  0.12215909  0.59759180  1  0.640596  -7.5e-05  0.293744  0.388039  -0.000227  0.955199  0.0
H  H8  1  0.45315862  0.05164100  0.34845343  1  0.140577  0.000435  0.108746  0.112538  0.000246  1.021924  0.0
H  H9  1  0.54683900  0.94834876  0.65154336  1  0.140722  -0.000435  0.108775  0.112599  -0.000246  1.021837  0.0
H  H10  1  0.37226775  0.26200940  0.67273940  1  0.118732  0.000191  0.117561  0.140559  9.9e-05  0.982101  0.0
H  H11  1  0.62773736  0.73797862  0.32725090  1  0.118591  -0.000191  0.117547  0.14053  -9.8e-05  0.982  0.0
H  H12  1  0.81368293  0.26813107  0.69686546  1  0.136969  0.000292  0.116093  0.138086  0.000164  0.997438  0.0
H  H13  1  0.18632059  0.73186532  0.30313410  1  0.136952  -0.000291  0.116089  0.138034  -0.000164  0.997486  0.0
H  H14  1  0.75442652  0.47390551  0.22085940  1  0.140918  -7.3e-05  0.120459  0.131093  -5.1e-05  0.990934  0.0
H  H15  1  0.24557621  0.52608903  0.77913615  1  0.140868  7.3e-05  0.120455  0.131107  5.1e-05  0.990872  0.0
H  H16  1  0.50868469  0.08346781  0.96250127  1  0.132408  0.0  0.111308  0.119829  1.2e-05  1.023051  0.0
H  H17  1  0.49131668  0.91653321  0.03750366  1  0.132435  -0.0  0.111283  0.119776  -1.2e-05  1.023051  0.0
H  H18  1  0.50907434  0.13205568  0.79039049  1  0.12239  -0.000105  0.108622  0.130264  -2e-05  1.029942  0.0
H  H19  1  0.49092567  0.86793970  0.20961204  1  0.122712  0.000105  0.10861  0.130296  2e-05  1.02993  0.0
H  H20  1  0.09912763  0.37328403  0.52117888  1  0.085644  0.002001  0.122217  0.0945  0.000632  0.976078  0.001
H  H21  1  0.90087152  0.62671421  0.47881985  1  0.085631  -0.002  0.122209  0.094528  -0.000632  0.976082  -0.001
H  H22  1  0.17475676  0.55921932  0.48344565  1  0.131143  0.000979  0.107996  0.128977  0.000468  1.032358  0.0
H  H23  1  0.82523420  0.44077421  0.51654825  1  0.131087  -0.00098  0.107973  0.128887  -0.000468  1.032268  0.0
H  H24  1  0.11386135  0.52602133  0.26555409  1  0.090771  -0.000133  0.104255  0.103579  -7.4e-05  1.025195  0.0
H  H25  1  0.88614320  0.47399205  0.73444582  1  0.090829  0.000133  0.104256  0.103613  7.4e-05  1.02516  0.0
H  H26  1  0.00106728  0.36989617  0.03773524  1  0.055799  0.000342  0.099281  0.101411  0.000142  1.014396  0.0
H  H27  1  0.99894348  0.63011724  0.96226576  1  0.055681  -0.000343  0.099324  0.101501  -0.000142  1.014392  0.0
H  H28  1  0.86916607  0.14852732  0.87452539  1  0.112857  0.000309  0.108121  0.128057  0.000171  1.007933  0.0
H  H29  1  0.13084292  0.85147954  0.12547041  1  0.112777  -0.000309  0.108135  0.128142  -0.000171  1.007978  0.0
H  H30  1  0.75342500  0.91809704  0.81615924  1  0.109237  6.2e-05  0.110476  0.124998  9.8e-05  1.010683  0.0
H  H31  1  0.24657497  0.08190800  0.18382558  1  0.10934  -6.2e-05  0.110459  0.124918  -9.8e-05  1.010777  0.0
H  H32  1  0.70155195  0.75148178  0.88760604  1  0.082647  0.001167  0.111429  0.122146  0.000474  0.983424  0.001
H  H33  1  0.29845930  0.24854006  0.11240065  1  0.082526  -0.001168  0.111464  0.12223  -0.000474  0.983174  -0.001
H  H34  1  0.78580303  0.81732650  0.11171782  1  0.153846  0.002056  0.11512  0.087509  0.000661  1.03913  0.002
H  H35  1  0.21419752  0.18267746  0.88827779  1  0.153664  -0.002056  0.115093  0.087456  -0.000661  1.039104  -0.002
C  C36  1  0.64532554  0.15723493  0.51565204  1  -0.00463  0.002778  -0.013104  -0.012217  0.001485  3.995157  0.002
C  C37  1  0.35464601  0.84275654  0.48434323  1  -0.004551  -0.002779  -0.013099  -0.012635  -0.001485  3.995654  -0.002
C  C38  1  0.49515425  0.11381884  0.44661261  1  -0.100349  -0.000732  -0.07498  -0.115551  -0.000302  3.932024  0.0
C  C39  1  0.50482462  0.88616805  0.55337585  1  -0.100275  0.000735  -0.075029  -0.115559  0.000303  3.931706  0.0
C  C40  1  0.39585413  0.14893931  0.50265895  1  0.008445  0.003895  -0.011862  -0.006766  0.002054  3.974922  0.003
C  C41  1  0.60414778  0.85105331  0.49733889  1  0.008263  -0.003892  -0.011866  -0.006795  -0.002052  3.974811  -0.003
C  C42  1  0.44767531  0.23101605  0.62842759  1  0.029456  -0.00232  -0.074872  -0.173477  -0.001193  3.894946  -0.001
C  C43  1  0.55232667  0.76897187  0.37156846  1  0.029409  0.002325  -0.074861  -0.173504  0.001196  3.894395  0.001
C  C44  1  0.59744219  0.27281136  0.69604287  1  0.358089  0.000747  0.084897  0.245039  0.000375  4.040331  0.001
C  C45  1  0.40254412  0.72717364  0.30395092  1  0.358559  -0.000748  0.084811  0.245005  -0.000375  4.040375  -0.001
C  C46  1  0.69696824  0.23564313  0.64239602  1  0.005923  -0.002286  -0.076516  -0.184646  -0.001158  3.90945  -0.001
C  C47  1  0.30302865  0.76435220  0.35760833  1  0.005947  0.002289  -0.076446  -0.184376  0.00116  3.909634  0.001
C  C48  1  0.75206942  0.12279679  0.45571859  1  1.518117  -0.002933  0.208673  0.560439  -0.000959  4.18823  -0.004
C  C49  1  0.24791640  0.87719678  0.54426888  1  1.518353  0.002934  0.208637  0.560796  0.000961  4.188188  0.004
C  C50  1  0.23517279  0.10002263  0.42663370  1  1.576978  -0.002721  0.202356  0.553468  -0.000648  4.217822  -0.003
C  C51  1  0.76481381  0.89998484  0.57337429  1  1.576974  0.002723  0.202339  0.553609  0.00065  4.217548  0.003
C  C52  1  0.63367871  0.33074684  0.90698973  1  0.551967  0.00011  0.108707  0.241469  6.4e-05  4.024696  0.0
C  C53  1  0.36631944  0.66924659  0.09301649  1  0.5513  -0.00011  0.108844  0.241734  -6.4e-05  4.024384  0.0
C  C54  1  0.69875301  0.42639974  0.02977060  1  0.212581  1e-05  0.06908  -0.045986  1e-05  3.95004  0.0
C  C55  1  0.30125068  0.57359947  0.97023008  1  0.212649  -1e-05  0.069095  -0.045928  -1e-05  3.949724  0.0
C  C56  1  0.69930918  0.39924945  0.12682710  1  0.063148  -5.3e-05  -0.065644  -0.110769  -3.6e-05  3.972992  0.0
C  C57  1  0.30069102  0.60074885  0.87316865  1  0.063163  5.3e-05  -0.065654  -0.110874  3.6e-05  3.972795  0.0
C  C58  1  0.63064109  0.27542664  0.10343402  1  -0.013663  1e-05  -0.023106  -0.069135  1.8e-05  4.013691  0.0
C  C59  1  0.36936054  0.72457255  0.89656629  1  -0.013577  -1.1e-05  -0.023061  -0.068991  -1.8e-05  4.013775  0.0
C  C60  1  0.56130294  0.18047098  0.98162491  1  -0.039625  4.7e-05  -0.064861  -0.034547  4.8e-05  3.930351  0.0
C  C61  1  0.43869392  0.81952914  0.01837413  1  -0.039694  -4.7e-05  -0.064808  -0.034405  -4.8e-05  3.930154  0.0
C  C62  1  0.56227080  0.20733311  0.88426196  1  -0.028792  -5.1e-05  -0.097533  -0.201685  1e-06  3.958653  0.0
C  C63  1  0.43772698  0.79265946  0.11573673  1  -0.028993  5.1e-05  -0.097584  -0.201946  -1e-06  3.958593  0.0
C  C64  1  0.64396116  0.24828204  0.20963809  1  1.522783  -8.2e-05  0.224438  0.573459  -7.7e-05  4.152033  0.0
C  C65  1  0.35603408  0.75171425  0.79036316  1  1.522785  8.2e-05  0.224367  0.573335  7.7e-05  4.152038  0.0
C  C66  1  0.07520786  0.36135063  0.42791402  1  0.560207  -0.013323  0.061254  0.124755  -0.006315  3.912585  -0.008
C  C67  1  0.92479433  0.63865233  0.57208703  1  0.560307  0.013311  0.061194  0.124574  0.006308  3.912484  0.008
C  C68  1  0.11694827  0.46577322  0.40548994  1  -0.036773  0.007246  -0.080545  -0.124915  0.003818  3.948103  0.006
C  C69  1  0.88305293  0.53422498  0.59451388  1  -0.036745  -0.007241  -0.080472  -0.124659  -0.003815  3.947684  -0.006
C  C70  1  0.08424832  0.44702769  0.28586878  1  -0.038864  -0.015419  -0.067823  -0.075795  -0.008051  3.917387  -0.009
C  C71  1  0.91576421  0.55298746  0.71414509  1  -0.038644  0.015403  -0.067871  -0.07591  0.008043  3.917731  0.009
C  C72  1  0.01081719  0.32356997  0.18838662  1  -0.032506  0.004166  -0.003159  0.048428  0.002255  4.014207  0.004
C  C73  1  0.98918816  0.67642828  0.81161557  1  -0.032845  -0.004163  -0.003227  0.048293  -0.002253  4.014562  -0.004
C  C74  1  0.97434778  0.22468694  0.22030604  1  0.507485  -0.006805  0.111367  0.115118  -0.003243  3.993367  -0.005
C  C75  1  0.02566100  0.77531697  0.77969891  1  0.507562  0.006803  0.111333  0.115196  0.003242  3.993318  0.005
C  C76  1  0.97142974  0.29329823  0.06139175  1  -0.001425  -0.000605  -0.088563  -0.128107  -0.000268  4.002193  0.0
C  C77  1  0.02857883  0.70670761  0.93860994  1  -0.001288  0.000603  -0.088572  -0.128101  0.000267  4.002268  0.0
C  C78  1  0.89824375  0.17165957  0.97112886  1  -0.047454  0.002268  -0.081985  -0.11685  0.001217  3.961041  0.001
C  C79  1  0.10175683  0.82833959  0.02887363  1  -0.047717  -0.002267  -0.082039  -0.117012  -0.001217  3.961285  -0.001
C  C80  1  0.86006210  0.07002266  0.00115999  1  0.019836  0.001308  0.000116  0.048922  0.000796  3.988013  0.001
C  C81  1  0.13994300  0.92997745  0.99884445  1  0.020327  -0.00131  0.00019  0.049042  -0.000797  3.988421  -0.001
C  C82  1  0.78532956  0.94206364  0.91308790  1  0.033476  -0.000425  -0.060631  -0.062226  -0.000196  3.882096  0.0
C  C83  1  0.21466337  0.05792237  0.08690426  1  0.033424  0.000437  -0.060743  -0.062219  0.000202  3.882549  0.0
C  C84  1  0.75745849  0.85115599  0.95228450  1  0.034133  0.003143  -0.082728  -0.128654  0.001731  3.976936  0.003
C  C85  1  0.24254473  0.14884696  0.04771831  1  0.024814  -0.003157  -0.082722  -0.128797  -0.00173  3.976591  -0.003
C  C86  1  0.80415855  0.88691729  0.07834156  1  0.417101  0.001543  0.05932  0.119629  0.001654  3.913158  0.002
C  C87  1  0.19584428  0.11308473  0.92166003  1  0.426633  -0.001516  0.059339  0.119724  -0.001648  3.913178  -0.002
C  C88  1  0.90089599  0.09744896  0.12607249  1  0.426188  0.000715  0.116238  0.119558  0.000251  3.999199  0.001
C  C89  1  0.09911462  0.90255680  0.87393586  1  0.426102  -0.000707  0.116299  0.119528  -0.000248  3.999179  -0.001
N  N90  1  0.00528719  0.24353157  0.33808006  1  -1.225756  0.058993  -0.31988  -0.288594  0.032819  3.58603  0.056
N  N91  1  0.99471907  0.75647611  0.66192351  1  -1.22579  -0.058979  -0.319719  -0.288464  -0.032813  3.585691  -0.056
N  N92  1  0.87407536  0.00689905  0.16309395  1  -1.220063  0.06817  -0.329613  -0.275654  0.037835  3.592604  0.053
N  N93  1  0.12592501  0.99310206  0.83690291  1  -1.220144  -0.068162  -0.329615  -0.275674  -0.03783  3.592519  -0.053
N  N94  1  0.77070326  0.55686270  0.05733220  1  0.363226  0.000421  0.057425  0.534423  0.000223  4.197923  0.0
N  N95  1  0.22929612  0.44313365  0.94266742  1  0.363408  -0.000421  0.057507  0.534456  -0.000223  4.197896  0.0
O  O96  1  0.88485038  0.15047632  0.51930284  1  -1.157636  0.057053  -0.298083  -0.524737  0.030597  2.223848  0.049
O  O97  1  0.11517394  0.84952290  0.48070937  1  -1.157951  -0.057009  -0.298036  -0.524685  -0.030571  2.224665  -0.049
O  O98  1  0.70942670  0.06496433  0.33783144  1  -1.148203  0.058776  -0.305504  -0.556638  0.031639  2.296641  0.05
O  O99  1  0.29056330  0.93503660  0.66217306  1  -1.14816  -0.058823  -0.305451  -0.556783  -0.031663  2.295894  -0.05
O  O100  1  0.18655321  0.01972715  0.31601331  1  -1.179402  0.027077  -0.303761  -0.542  0.014085  2.167249  0.023
O  O101  1  0.81344910  0.98028334  0.68398907  1  -1.179576  -0.027032  -0.303734  -0.541966  -0.014064  2.16754  -0.023
O  O102  1  0.15102201  0.14595122  0.48063874  1  -1.162651  0.074112  -0.314054  -0.560946  0.040208  2.403933  0.062
O  O103  1  0.84897506  0.85405181  0.51935352  1  -1.162391  -0.074131  -0.314068  -0.561092  -0.040216  2.403225  -0.062
O  O104  1  0.59130100  0.12482291  0.17622618  1  -1.173546  0.00057  -0.333987  -0.490532  0.000207  2.336288  0.001
O  O105  1  0.40869134  0.87517628  0.82376855  1  -1.173475  -0.000571  -0.334023  -0.490513  -0.000208  2.336211  -0.001
O  O106  1  0.70198821  0.33105791  0.31683549  1  -1.15417  -0.000147  -0.298231  -0.50396  -0.000109  2.128419  0.0
O  O107  1  0.29800766  0.66893744  0.68316631  1  -1.154179  0.000147  -0.298159  -0.503889  0.00011  2.128396  0.0
O  O108  1  0.70524919  0.59777133  0.99486299  1  -0.453482  0.000629  -0.113793  -0.320913  0.000317  1.950695  0.0
O  O109  1  0.29475100  0.40222689  0.00513828  1  -0.453601  -0.00063  -0.113876  -0.320995  -0.000317  1.950688  0.0
O  O110  1  0.89270040  0.61965564  0.14258438  1  -0.470181  0.000145  -0.13221  -0.340567  3.2e-05  1.89867  0.0
O  O111  1  0.10729937  0.38034162  0.85741803  1  -0.470155  -0.000144  -0.132225  -0.340562  -3.1e-05  1.89879  0.0
O  O112  1  0.65388615  0.36414510  0.81905878  1  -1.092188  0.000154  -0.146196  -0.204989  6.5e-05  2.606818  0.0
O  O113  1  0.34612135  0.63586062  0.18095139  1  -1.092175  -0.000154  -0.146251  -0.205117  -6.5e-05  2.607227  0.0
O  O114  1  0.89128367  0.88921257  0.33274127  1  -1.227435  0.047125  -0.571187  -0.752672  0.026324  2.162414  0.037
O  O115  1  0.10870620  0.11078565  0.66725423  1  -1.227986  -0.047142  -0.5712  -0.752825  -0.02633  2.162715  -0.037
