# generated using pymatgen
data_GdH15C15NO8
_symmetry_space_group_name_H-M   'P 1'
_cell_length_a   8.34110519
_cell_length_b   10.26594031
_cell_length_c   11.07479983
_cell_angle_alpha   66.10953497
_cell_angle_beta   70.99675698
_cell_angle_gamma   78.95244258
_symmetry_Int_Tables_number   1
_chemical_formula_structural   GdH15C15NO8
_chemical_formula_sum   'Gd2 H30 C30 N2 O16'
_cell_volume   817.85982670
_cell_formula_units_Z   2
loop_
 _symmetry_equiv_pos_site_id
 _symmetry_equiv_pos_as_xyz
  1  'x, y, z'
loop_
 _atom_site_type_symbol
 _atom_site_label
 _atom_site_symmetry_multiplicity
 _atom_site_fract_x
 _atom_site_fract_y
 _atom_site_fract_z
 _atom_site_occupancy
 _atom_site_pbe_bader_charge
 _atom_site_pbe_bader_spin_density
 _atom_site_pbe_cm5_charge
 _atom_site_pbe_ddec_charge
 _atom_site_pbe_ddec_spin_density
 _atom_site_pbe_ddec_sum_bond_order
 _atom_site_pbe_magmom
Gd  Gd0  1  0.14440712  0.43889955  0.64559164  1  2.166739  0  1.455616  1.995571  0  2.186057  0
Gd  Gd1  1  0.85559197  0.56110058  0.35440904  1  2.16675  0  1.455624  1.995537  0  2.186148  0
H  H2  1  0.40424844  0.59520201  0.37986109  1  0.640464  0  0.313045  0.416873  0  0.900754  0
H  H3  1  0.59575064  0.40479812  0.62013779  1  0.640469  0  0.313046  0.416889  0  0.900743  0
H  H4  1  0.46624016  0.43724285  0.41862609  1  0.643976  0  0.3079  0.395378  0  0.939849  0
H  H5  1  0.53375901  0.56275621  0.58137407  1  0.64397  0  0.307894  0.395378  0  0.939851  0
H  H6  1  0.14104359  0.65252329  0.82169669  1  0.150668  0  0.13875  0.074376  0  0.997281  0
H  H7  1  0.85896192  0.34747577  0.17830913  1  0.151036  0  0.138744  0.074403  0  0.997307  0
H  H8  1  0.51000072  0.80508615  0.53325892  1  0.094147  0  0.116645  0.13663  0  0.996195  0
H  H9  1  0.48999736  0.19491077  0.46673960  1  0.094234  0  0.11664  0.136634  0  0.996163  0
H  H10  1  0.61455212  0.73735022  0.66627034  1  0.065166  0  0.111066  0.131585  0  0.989459  0
H  H11  1  0.38545103  0.26264670  0.33372333  1  0.064957  0  0.111093  0.131616  0  0.989423  0
H  H12  1  0.53436863  0.91960943  0.61161247  1  0.08745  0  0.112986  0.129903  0  0.988028  0
H  H13  1  0.46563824  0.08038856  0.38838439  1  0.087431  0  0.11298  0.129862  0  0.988069  0
H  H14  1  0.16809365  0.80492127  0.90429035  1  0.098889  0  0.116907  0.139636  0  0.98128  0
H  H15  1  0.83191496  0.19508634  0.09570971  1  0.098817  0  0.116886  0.139622  0  0.981441  0
H  H16  1  0.26054432  0.96351587  0.77068787  1  0.089223  0  0.107655  0.132676  0  1.008136  0
H  H17  1  0.73946989  0.03648533  0.22930419  1  0.089734  0  0.107662  0.132681  0  1.008139  0
H  H18  1  0.38019607  0.83646833  0.88178299  1  0.078414  0  0.10321  0.122927  0  1.01695  0
H  H19  1  0.61981434  0.16353286  0.11821362  1  0.078434  0  0.103192  0.122935  0  1.016916  0
H  H20  1  0.99291033  0.97437040  0.73420232  1  0.075863  0  0.107633  0.104624  0  1.023688  0
H  H21  1  0.00708936  0.02562225  0.26580011  1  0.075856  0  0.107665  0.104653  0  1.023792  0
H  H22  1  0.06137760  0.23474057  0.30705983  1  0.138059  0  0.107833  0.114212  0  1.055986  0
H  H23  1  0.93862293  0.76525742  0.69294220  1  0.138051  0  0.107832  0.114206  0  1.055998  0
H  H24  1  0.55760574  0.33583586  0.87467391  1  0.11032  0  0.102302  0.099806  0  1.053911  0
H  H25  1  0.44239217  0.66416320  0.12532566  1  0.110333  0  0.102303  0.099814  0  1.053912  0
H  H26  1  0.73820303  0.62968968  0.97835924  1  0.103394  0  0.106226  0.115789  0  1.017463  0
H  H27  1  0.26179098  0.37031045  0.02163998  1  0.103319  0  0.106212  0.115796  0  1.017459  0
H  H28  1  0.20079105  0.08483852  0.08295318  1  0.095394  0  0.105162  0.107395  0  1.021715  0
H  H29  1  0.79921131  0.91516802  0.91704701  1  0.095442  0  0.105168  0.107408  0  1.021672  0
H  H30  1  0.65925257  0.11815080  0.75473321  1  0.1117  0  0.106733  0.110947  0  1.004651  0
H  H31  1  0.34074770  0.88185039  0.24526588  1  0.111731  0  0.106697  0.110939  0  1.004629  0
C  C32  1  0.26123901  0.67424028  0.73965879  1  1.320166  0  0.188149  0.313934  0  4.074664  0
C  C33  1  0.73876414  0.32575664  0.26034661  1  1.319778  0  0.188188  0.313953  0  4.07468  0
C  C34  1  0.51128148  0.81093927  0.62962905  1  0.230061  0  -0.128102  -0.274172  0  3.857055  0
C  C35  1  0.48872150  0.18905979  0.37036657  1  0.230031  0  -0.128094  -0.274153  0  3.85697  0
C  C36  1  0.28551056  0.84928285  0.82776868  1  0.222055  0  -0.13062  -0.291516  0  3.876706  0
C  C37  1  0.71449976  0.15071942  0.17222845  1  0.22158  0  -0.130552  -0.291456  0  3.876711  0
C  C38  1  0.06284258  0.23687615  0.55159008  1  1.531079  0  0.222491  0.622782  0  4.174772  0
C  C39  1  0.93715550  0.76312078  0.44841115  1  1.531189  0  0.222479  0.622747  0  4.175002  0
C  C40  1  0.02837595  0.11606236  0.52375724  1  -0.037792  0  -0.010147  -0.025522  0  3.963395  0
C  C41  1  0.97162475  0.88393349  0.47624375  1  -0.038107  0  -0.010166  -0.025428  0  3.963486  0
C  C42  1  0.99544834  0.98407138  0.63202888  1  -0.059031  0  -0.082413  -0.097172  0  3.975944  0
C  C43  1  0.00455236  0.01592448  0.36797210  1  -0.058219  0  -0.082469  -0.09739  0  3.976222  0
C  C44  1  0.03352276  0.13186077  0.39090943  1  -0.029467  0  -0.083829  -0.11058  0  3.972016  0
C  C45  1  0.96647794  0.86813509  0.60909156  1  -0.028954  0  -0.083794  -0.110653  0  3.972054  0
C  C46  1  0.83461007  0.45861739  0.82978854  1  1.536342  0  0.188804  0.567707  0  4.227246  0
C  C47  1  0.16538494  0.54138595  0.17021104  1  1.536265  0  0.188758  0.567635  0  4.227311  0
C  C48  1  0.66223565  0.48076922  0.91806636  1  -0.021307  0  -0.014089  -0.027426  0  3.975261  0
C  C49  1  0.33775700  0.51923198  0.08193279  1  -0.021381  0  -0.014075  -0.027446  0  3.975303  0
C  C50  1  0.52916604  0.40726028  0.93045485  1  -0.058326  0  -0.083209  -0.091929  0  3.972225  0
C  C51  1  0.47082915  0.59274092  0.06954367  1  -0.058334  0  -0.083228  -0.091949  0  3.97228  0
C  C52  1  0.63309188  0.57423312  0.98774035  1  -0.065744  0  -0.084432  -0.104992  0  3.962882  0
C  C53  1  0.36690095  0.42576595  0.01226046  1  -0.065708  0  -0.084482  -0.105063  0  3.962842  0
C  C54  1  0.33530686  0.23430356  0.81757397  1  1.560309  0  0.196642  0.571784  0  4.22268  0
C  C55  1  0.66469340  0.76569764  0.18242512  1  1.560313  0  0.19666  0.571849  0  4.222773  0
C  C56  1  0.42128336  0.11258809  0.91053347  1  -0.069643  0  -0.010916  -0.028052  0  3.964935  0
C  C57  1  0.57871437  0.88741311  0.08946443  1  -0.069652  0  -0.010898  -0.028097  0  3.965073  0
C  C58  1  0.33191020  0.04625924  0.04855025  1  0.007419  0  -0.077634  -0.087257  0  3.950934  0
C  C59  1  0.66808988  0.95374409  0.95144898  1  0.007391  0  -0.077647  -0.087299  0  3.950963  0
C  C60  1  0.59036607  0.06566607  0.86200455  1  -0.086092  0  -0.079108  -0.091313  0  3.960729  0
C  C61  1  0.40963284  0.93433619  0.13799448  1  -0.086091  0  -0.079073  -0.09131  0  3.960777  0
N  N62  1  0.34843120  0.77374538  0.73261389  1  -1.201278  0  -0.27218  0.041754  0  3.715737  0
N  N63  1  0.65157431  0.22625368  0.26738561  1  -1.201025  0  -0.272264  0.041652  0  3.715638  0
O  O64  1  0.00630596  0.36485615  0.49250327  1  -1.212655  0  -0.397072  -0.706719  0  2.337277  0
O  O65  1  0.99369466  0.63514078  0.50749373  1  -1.212727  0  -0.397041  -0.706626  0  2.337384  0
O  O66  1  0.15057893  0.20898888  0.63484115  1  -1.155344  0  -0.369938  -0.608254  0  2.21992  0
O  O67  1  0.84941508  0.79101125  0.36516348  1  -1.155372  0  -0.369917  -0.60826  0  2.219957  0
O  O68  1  0.86296717  0.36418171  0.77688201  1  -1.15874  0  -0.374815  -0.600611  0  2.203058  0
O  O69  1  0.13703310  0.63581949  0.22311799  1  -1.158768  0  -0.374799  -0.600575  0  2.203006  0
O  O70  1  0.95196381  0.53750486  0.80670037  1  -1.190507  0  -0.390715  -0.643954  0  2.270296  0
O  O71  1  0.04802985  0.46249954  0.19329913  1  -1.190442  0  -0.390698  -0.643901  0  2.270355  0
O  O72  1  0.18227403  0.27555197  0.86540006  1  -1.173155  0  -0.374927  -0.610767  0  2.197142  0
O  O73  1  0.81772505  0.72444816  0.13460063  1  -1.173146  0  -0.374933  -0.610799  0  2.197248  0
O  O74  1  0.41597782  0.29612869  0.69088344  1  -1.201608  0  -0.364598  -0.645543  0  2.249094  0
O  O75  1  0.58401982  0.70387357  0.30911589  1  -1.201612  0  -0.364613  -0.645544  0  2.24905  0
O  O76  1  0.36009705  0.49905110  0.42924567  1  -1.263807  0  -0.637017  -0.838383  0  2.078804  0
O  O77  1  0.63990321  0.50095010  0.57075523  1  -1.263797  0  -0.637016  -0.838406  0  2.078823  0
O  O78  1  0.30803115  0.60694705  0.65849984  1  -1.173267  0  -0.349967  -0.561985  0  2.367703  0
O  O79  1  0.69196702  0.39304881  0.34150628  1  -1.173308  0  -0.349992  -0.56199  0  2.367654  0
