# generated using pymatgen
data_CdH12C14(IN4)2
_symmetry_space_group_name_H-M   'P 1'
_cell_length_a   4.12352629
_cell_length_b   7.47301451
_cell_length_c   30.59992833
_cell_angle_alpha   90.00172962
_cell_angle_beta   90.00619801
_cell_angle_gamma   98.36675184
_symmetry_Int_Tables_number   1
_chemical_formula_structural   CdH12C14(IN4)2
_chemical_formula_sum   'Cd2 H24 C28 I4 N16'
_cell_volume   932.90624979
_cell_formula_units_Z   2
loop_
 _symmetry_equiv_pos_site_id
 _symmetry_equiv_pos_as_xyz
  1  'x, y, z'
loop_
 _atom_site_type_symbol
 _atom_site_label
 _atom_site_symmetry_multiplicity
 _atom_site_fract_x
 _atom_site_fract_y
 _atom_site_fract_z
 _atom_site_occupancy
 _atom_site_hle17_bader_spin_density
 _atom_site_hle17_ddec_charge
 _atom_site_hle17_ddec_spin_density
 _atom_site_hle17_ddec_sum_bond_order
 _atom_site_hle17_magmom
 _atom_site_hse06_10hf_bader_spin_density
 _atom_site_hse06_10hf_ddec_charge
 _atom_site_hse06_10hf_ddec_spin_density
 _atom_site_hse06_10hf_ddec_sum_bond_order
 _atom_site_hse06_10hf_magmom
 _atom_site_hse06_bader_spin_density
 _atom_site_hse06_ddec_charge
 _atom_site_hse06_ddec_spin_density
 _atom_site_hse06_ddec_sum_bond_order
 _atom_site_hse06_magmom
 _atom_site_pbe_bader_spin_density
 _atom_site_pbe_cm5_charge
 _atom_site_pbe_ddec_charge
 _atom_site_pbe_ddec_spin_density
 _atom_site_pbe_ddec_sum_bond_order
 _atom_site_pbe_magmom
Cd  Cd0  1  0.00002883  0.00002648  0.99999973  1  0  0.740098  0  2.050611  0  0  0.58919  0  2.470796  0  0  0.639235  0  2.439938  0  0  0.476777  0.554052  0  2.492353  0
Cd  Cd1  1  0.50005414  0.49998746  0.49999783  1  0  0.740231  0  2.050587  0  0  0.58938  0  2.470768  0  0  0.639418  0  2.439902  0  0  0.476903  0.554242  0  2.492333  0
H  H2  1  0.84404383  0.04773933  0.90017613  1  0  0.059885  0  1.007053  0  0  0.065363  0  1.08398  0  0  0.06863  0  1.080224  0  0  0.088285  0.062869  0  1.086899  0
H  H3  1  0.65600361  0.45225090  0.40017998  1  0  0.059871  0  1.006988  0  0  0.0654  0  1.083748  0  0  0.068676  0  1.079987  0  0  0.08833  0.062904  0  1.086696  0
H  H4  1  0.15604149  0.95229987  0.09982084  1  0  0.060038  0  1.006837  0  0  0.065405  0  1.083809  0  0  0.068669  0  1.08006  0  0  0.088298  0.062909  0  1.086747  0
H  H5  1  0.34393479  0.54772385  0.59981699  1  0  0.059892  0  1.006779  0  0  0.065389  0  1.083638  0  0  0.068663  0  1.079877  0  0  0.088309  0.062887  0  1.086577  0
H  H6  1  0.60966867  0.18077971  0.83904785  1  0  0.127364  0  0.931338  0  0  0.139898  0  0.987764  0  0  0.143159  0  0.985421  0  0  0.131491  0.137531  0  0.989502  0
H  H7  1  0.89040575  0.31921474  0.33906877  1  0  0.127468  0  0.9311  0  0  0.139931  0  0.987653  0  0  0.143184  0  0.985332  0  0  0.131442  0.137567  0  0.989379  0
H  H8  1  0.39037747  0.81923458  0.16094553  1  0  0.127438  0  0.931182  0  0  0.139911  0  0.987706  0  0  0.143175  0  0.98536  0  0  0.131496  0.137544  0  0.989438  0
H  H9  1  0.10953135  0.68076537  0.66093376  1  0  0.127452  0  0.931121  0  0  0.139876  0  0.987713  0  0  0.143127  0  0.985399  0  0  0.131373  0.137515  0  0.989434  0
H  H10  1  0.56165683  0.23502084  0.75428798  1  0  0.266624  0  0.97051  0  0  0.231628  0  1.052575  0  0  0.241414  0  1.045513  0  0  0.308692  0.224697  0  1.057713  0
H  H11  1  0.93833430  0.26495904  0.25430046  1  0  0.266803  0  0.970234  0  0  0.231822  0  1.052338  0  0  0.241613  0  1.04527  0  0  0.308747  0.224901  0  1.057456  0
H  H12  1  0.43829057  0.76496214  0.24570736  1  0  0.266525  0  0.970575  0  0  0.231568  0  1.052599  0  0  0.241354  0  1.045538  0  0  0.308671  0.224628  0  1.057752  0
H  H13  1  0.06163773  0.73502570  0.74569945  1  0  0.266813  0  0.970468  0  0  0.231818  0  1.052507  0  0  0.241607  0  1.045439  0  0  0.30874  0.224877  0  1.057665  0
H  H14  1  0.14680415  0.60237826  0.95901915  1  0  0.074334  0  0.980119  0  0  0.078186  0  1.055906  0  0  0.081463  0  1.052033  0  0  0.090588  0.0756  0  1.05904  0
H  H15  1  0.35313446  0.89758163  0.45902004  1  0  0.074154  0  0.980128  0  0  0.078126  0  1.055863  0  0  0.081395  0  1.051993  0  0  0.090541  0.075547  0  1.058987  0
H  H16  1  0.85323558  0.39767498  0.04098305  1  0  0.074195  0  0.979779  0  0  0.078045  0  1.055613  0  0  0.081313  0  1.051747  0  0  0.090435  0.075485  0  1.058723  0
H  H17  1  0.64687756  0.10239706  0.54098020  1  0  0.074167  0  0.980052  0  0  0.078058  0  1.055874  0  0  0.081323  0  1.052011  0  0  0.090503  0.075505  0  1.058979  0
H  H18  1  0.19153486  0.44963398  0.88741135  1  0  0.096086  0  0.96173  0  0  0.104354  0  1.025131  0  0  0.107988  0  1.023455  0  0  0.092785  0.101652  0  1.026654  0
H  H19  1  0.30847892  0.05034248  0.38741510  1  0  0.095988  0  0.961945  0  0  0.104243  0  1.025344  0  0  0.107874  0  1.023668  0  0  0.092755  0.101544  0  1.026873  0
H  H20  1  0.80846372  0.55038489  0.11259543  1  0  0.096062  0  0.961749  0  0  0.104295  0  1.025184  0  0  0.107926  0  1.023514  0  0  0.092775  0.101599  0  1.0267  0
H  H21  1  0.69151888  0.94964943  0.61258743  1  0  0.095988  0  0.96183  0  0  0.104261  0  1.025212  0  0  0.107893  0  1.023536  0  0  0.092775  0.101563  0  1.026733  0
H  H22  1  0.05116198  0.60380998  0.81872465  1  0  0.096701  0  0.979937  0  0  0.098152  0  1.057058  0  0  0.102237  0  1.0526  0  0  0.102315  0.095194  0  1.060204  0
H  H23  1  0.44886859  0.89618902  0.31872956  1  0  0.096908  0  0.980079  0  0  0.098403  0  1.057089  0  0  0.102499  0  1.052604  0  0  0.102369  0.095401  0  1.06028  0
H  H24  1  0.94885156  0.39618759  0.18127690  1  0  0.096818  0  0.980138  0  0  0.098263  0  1.05725  0  0  0.102342  0  1.052799  0  0  0.102347  0.095315  0  1.060379  0
H  H25  1  0.55106494  0.10378564  0.68127002  1  0  0.096879  0  0.980028  0  0  0.098332  0  1.057096  0  0  0.102417  0  1.052634  0  0  0.102401  0.095327  0  1.060277  0
C  C26  1  0.91769270  0.91449174  0.89541188  1  0  0.081659  0  3.700718  0  0  0.043854  0  3.947139  0  0  0.050293  0  3.965186  0  0  0.035484  0.039832  0  3.934789  0
C  C27  1  0.58234438  0.58550524  0.39541086  1  0  0.081486  0  3.700655  0  0  0.04376  0  3.947196  0  0  0.050185  0  3.965238  0  0  0.035382  0.039736  0  3.934824  0
C  C28  1  0.08237371  0.08554984  0.10459130  1  0  0.08164  0  3.700838  0  0  0.043951  0  3.947307  0  0  0.050377  0  3.96538  0  0  0.03549  0.039915  0  3.934965  0
C  C29  1  0.41761583  0.41445775  0.60458905  1  0  0.081661  0  3.700795  0  0  0.043924  0  3.947265  0  0  0.050351  0  3.96533  0  0  0.035496  0.039909  0  3.934887  0
C  C30  1  0.93043529  0.83956365  0.85363029  1  0  -0.014813  0  3.814549  0  0  0.006111  0  4.046829  0  0  0.001437  0  4.072062  0  0  -0.00914  0.008943  0  4.029929  0
C  C31  1  0.56957991  0.66043122  0.35364096  1  0  -0.014364  0  3.814438  0  0  0.006388  0  4.04694  0  0  0.001715  0  4.072147  0  0  -0.00909  0.009234  0  4.03004  0
C  C32  1  0.06963174  0.16045773  0.14636701  1  0  -0.014798  0  3.814869  0  0  0.00604  0  4.047319  0  0  0.00136  0  4.072543  0  0  -0.00913  0.00887  0  4.030409  0
C  C33  1  0.43039054  0.33955754  0.64635896  1  0  -0.014807  0  3.814946  0  0  0.005996  0  4.04728  0  0  0.001311  0  4.07252  0  0  -0.009206  0.008836  0  4.030356  0
C  C34  1  0.69492123  0.09701553  0.81382922  1  0  -0.041091  0  3.631402  0  0  -0.090576  0  3.889259  0  0  -0.088837  0  3.906612  0  0  0.027919  -0.09159  0  3.877572  0
C  C35  1  0.80512430  0.40298409  0.31384152  1  0  -0.04155  0  3.630964  0  0  -0.090899  0  3.888862  0  0  -0.089171  0  3.906201  0  0  0.02786  -0.0919  0  3.877183  0
C  C36  1  0.30511076  0.90298909  0.18616840  1  0  -0.041187  0  3.631011  0  0  -0.090566  0  3.888942  0  0  -0.08882  0  3.906282  0  0  0.027964  -0.091575  0  3.87724  0
C  C37  1  0.19478500  0.59700228  0.68615937  1  0  -0.041145  0  3.630415  0  0  -0.090623  0  3.888221  0  0  -0.088879  0  3.905561  0  0  0.027981  -0.09163  0  3.876527  0
C  C38  1  0.84135108  0.94039862  0.81570892  1  0  0.103544  0  3.815398  0  0  0.095907  0  4.078122  0  0  0.096611  0  4.102042  0  0  0.089619  0.09534  0  4.062043  0
C  C39  1  0.65864459  0.55961382  0.31571770  1  0  0.10363  0  3.814961  0  0  0.096051  0  4.077722  0  0  0.096792  0  4.101591  0  0  0.089617  0.095453  0  4.061683  0
C  C40  1  0.15867343  0.05961665  0.18428903  1  0  0.103517  0  3.815257  0  0  0.095828  0  4.07812  0  0  0.096532  0  4.102038  0  0  0.08951  0.095267  0  4.062027  0
C  C41  1  0.34129109  0.44035953  0.68428254  1  0  0.103445  0  3.814706  0  0  0.096067  0  4.077176  0  0  0.096776  0  4.101094  0  0  0.089692  0.09549  0  4.061105  0
C  C42  1  0.08527407  0.66594684  0.92864070  1  0  0.137435  0  3.68525  0  0  0.104006  0  3.937411  0  0  0.111929  0  3.955224  0  0  0.038399  0.098942  0  3.925281  0
C  C43  1  0.41468493  0.83403013  0.42864017  1  0  0.13769  0  3.68557  0  0  0.104146  0  3.937717  0  0  0.112076  0  3.95553  0  0  0.03842  0.099076  0  3.925583  0
C  C44  1  0.91479544  0.33410960  0.07136607  1  0  0.137729  0  3.685194  0  0  0.104231  0  3.93746  0  0  0.112164  0  3.955276  0  0  0.038543  0.099147  0  3.925305  0
C  C45  1  0.58530619  0.16594147  0.57136138  1  0  0.137792  0  3.685308  0  0  0.104311  0  3.937479  0  0  0.112246  0  3.955286  0  0  0.038519  0.099217  0  3.925335  0
C  C46  1  0.11022973  0.58201432  0.88829970  1  0  -0.111626  0  3.746827  0  0  -0.119453  0  3.993426  0  0  -0.126854  0  4.015212  0  0  -0.089158  -0.114735  0  3.978845  0
C  C47  1  0.38974899  0.91796828  0.38831007  1  0  -0.111328  0  3.746982  0  0  -0.119154  0  3.993578  0  0  -0.126555  0  4.01537  0  0  -0.089096  -0.114443  0  3.979002  0
C  C48  1  0.88976641  0.41800451  0.11170022  1  0  -0.111629  0  3.746775  0  0  -0.119396  0  3.993377  0  0  -0.126786  0  4.015133  0  0  -0.089105  -0.114684  0  3.97879  0
C  C49  1  0.61024094  0.08202081  0.61168984  1  0  -0.111494  0  3.74686  0  0  -0.119316  0  3.993469  0  0  -0.126715  0  4.01524  0  0  -0.089162  -0.114604  0  3.978881  0
C  C50  1  0.03135313  0.66833734  0.85035451  1  0  -0.042072  0  3.682643  0  0  -0.068368  0  3.92905  0  0  -0.065628  0  3.946701  0  0  -0.06898  -0.069746  0  3.916888  0
C  C51  1  0.46866216  0.83167590  0.35035704  1  0  -0.042651  0  3.681954  0  0  -0.068895  0  3.92836  0  0  -0.066153  0  3.945988  0  0  -0.069044  -0.070239  0  3.916226  0
C  C52  1  0.96867365  0.33168875  0.14965358  1  0  -0.042294  0  3.682165  0  0  -0.068529  0  3.928576  0  0  -0.065786  0  3.946225  0  0  -0.0691  -0.069944  0  3.916478  0
C  C53  1  0.53131764  0.16829955  0.64964646  1  0  -0.042373  0  3.68159  0  0  -0.068618  0  3.927984  0  0  -0.065871  0  3.945626  0  0  -0.069122  -0.069983  0  3.91592  0
I  I54  1  0.54265282  0.24601665  0.96140241  1  0  -0.448217  0  1.222004  0  0  -0.398783  0  1.567477  0  0  -0.419984  0  1.547201  0  0  -0.197736  -0.383377  0  1.582785  0
I  I55  1  0.95745724  0.25396820  0.46139615  1  0  -0.448284  0  1.221927  0  0  -0.398834  0  1.56736  0  0  -0.420036  0  1.54709  0  0  -0.197732  -0.38343  0  1.582672  0
I  I56  1  0.45742399  0.75403992  0.03860143  1  0  -0.448151  0  1.221936  0  0  -0.398717  0  1.567424  0  0  -0.419915  0  1.547153  0  0  -0.197681  -0.383305  0  1.582731  0
I  I57  1  0.04264655  0.74602012  0.53858938  1  0  -0.448183  0  1.221909  0  0  -0.398765  0  1.567423  0  0  -0.419962  0  1.547145  0  0  -0.197728  -0.383356  0  1.582734  0
N  N58  1  0.99125162  0.83013682  0.93190736  1  0  -0.306381  0  3.288497  0  0  -0.225802  0  3.541129  0  0  -0.247077  0  3.5651  0  0  -0.328297  -0.211299  0  3.524273  0
N  N59  1  0.50872399  0.66984362  0.43191425  1  0  -0.306515  0  3.288017  0  0  -0.226003  0  3.540732  0  0  -0.247275  0  3.564683  0  0  -0.328346  -0.211498  0  3.523888  0
N  N60  1  0.00881144  0.16992356  0.06809353  1  0  -0.306655  0  3.288397  0  0  -0.225977  0  3.540908  0  0  -0.247258  0  3.564877  0  0  -0.328284  -0.211469  0  3.524047  0
N  N61  1  0.49127716  0.33012950  0.56808534  1  0  -0.306611  0  3.287834  0  0  -0.226125  0  3.54058  0  0  -0.247397  0  3.564522  0  0  -0.328349  -0.21162  0  3.523741  0
N  N62  1  0.66687616  0.13112985  0.77080222  1  0  -0.134547  0  3.506456  0  0  -0.070549  0  3.760823  0  0  -0.082439  0  3.778532  0  0  -0.248316  -0.06263  0  3.74894  0
N  N63  1  0.83314399  0.36886735  0.27081245  1  0  -0.134335  0  3.506123  0  0  -0.070547  0  3.760675  0  0  -0.08244  0  3.778391  0  0  -0.248145  -0.06263  0  3.748785  0
N  N64  1  0.33311546  0.86886735  0.22919541  1  0  -0.134364  0  3.506229  0  0  -0.070445  0  3.760613  0  0  -0.082337  0  3.778328  0  0  -0.248275  -0.06252  0  3.748735  0
N  N65  1  0.16680828  0.63111571  0.72918976  1  0  -0.13461  0  3.506591  0  0  -0.070625  0  3.760927  0  0  -0.082513  0  3.778633  0  0  -0.248163  -0.062703  0  3.749051  0
N  N66  1  0.89170388  0.89110263  0.77338944  1  0  -0.24349  0  3.088468  0  0  -0.210551  0  3.372266  0  0  -0.218503  0  3.386127  0  0  -0.196463  -0.204866  0  3.362762  0
N  N67  1  0.60830717  0.60889071  0.27339515  1  0  -0.243548  0  3.08825  0  0  -0.210642  0  3.372058  0  0  -0.21861  0  3.385914  0  0  -0.196492  -0.204948  0  3.362564  0
N  N68  1  0.10831181  0.10889363  0.22661080  1  0  -0.243449  0  3.088391  0  0  -0.210467  0  3.372197  0  0  -0.218418  0  3.38606  0  0  -0.196321  -0.204791  0  3.362688  0
N  N69  1  0.39162795  0.39107994  0.72660509  1  0  -0.243435  0  3.088294  0  0  -0.210665  0  3.372168  0  0  -0.218615  0  3.386029  0  0  -0.196524  -0.204978  0  3.362662  0
N  N70  1  0.78532718  0.00701641  0.74635006  1  0  -0.071494  0  2.893761  0  0  -0.078011  0  3.180206  0  0  -0.075491  0  3.191207  0  0  -0.105897  -0.079406  0  3.172612  0
N  N71  1  0.71463716  0.49295871  0.24635567  1  0  -0.071503  0  2.893347  0  0  -0.077957  0  3.179896  0  0  -0.075439  0  3.190902  0  0  -0.105973  -0.079352  0  3.172313  0
N  N72  1  0.21462453  0.99296394  0.25364920  1  0  -0.071561  0  2.893706  0  0  -0.078075  0  3.180223  0  0  -0.075562  0  3.19123  0  0  -0.106021  -0.079473  0  3.172638  0
N  N73  1  0.28530283  0.50701202  0.75364425  1  0  -0.071456  0  2.893394  0  0  -0.077932  0  3.179848  0  0  -0.075421  0  3.190856  0  0  -0.105962  -0.079338  0  3.172278  0
