# generated using pymatgen
data_GdH16C16N10ClO6
_symmetry_space_group_name_H-M   'P 1'
_cell_length_a   8.87356090
_cell_length_b   10.93714311
_cell_length_c   12.87848553
_cell_angle_alpha   115.12919376
_cell_angle_beta   106.11802853
_cell_angle_gamma   89.98768250
_symmetry_Int_Tables_number   1
_chemical_formula_structural   GdH16C16N10ClO6
_chemical_formula_sum   'Gd2 H32 C32 N20 Cl2 O12'
_cell_volume   1077.10137182
_cell_formula_units_Z   2
loop_
 _symmetry_equiv_pos_site_id
 _symmetry_equiv_pos_as_xyz
  1  'x, y, z'
loop_
 _atom_site_type_symbol
 _atom_site_label
 _atom_site_symmetry_multiplicity
 _atom_site_fract_x
 _atom_site_fract_y
 _atom_site_fract_z
 _atom_site_occupancy
 _atom_site_hle17_bader_spin_density
 _atom_site_hle17_ddec_charge
 _atom_site_hle17_ddec_spin_density
 _atom_site_hle17_ddec_sum_bond_order
 _atom_site_hle17_magmom
 _atom_site_hse06_10hf_bader_spin_density
 _atom_site_hse06_10hf_ddec_charge
 _atom_site_hse06_10hf_ddec_spin_density
 _atom_site_hse06_10hf_ddec_sum_bond_order
 _atom_site_hse06_10hf_magmom
 _atom_site_hse06_bader_spin_density
 _atom_site_hse06_ddec_charge
 _atom_site_hse06_ddec_spin_density
 _atom_site_hse06_ddec_sum_bond_order
 _atom_site_hse06_magmom
 _atom_site_pbe_bader_spin_density
 _atom_site_pbe_cm5_charge
 _atom_site_pbe_ddec_charge
 _atom_site_pbe_ddec_spin_density
 _atom_site_pbe_ddec_sum_bond_order
 _atom_site_pbe_magmom
Gd  Gd0  1  0.74995551  0.43945409  0.00015818  1  0  2.205753  0  1.734318  0  0  2.117617  0  2.09752  0  0  2.175498  0  2.033205  0  0  1.371899  2.072716  0  2.14883  0
Gd  Gd1  1  0.25004489  0.56054648  0.99984037  1  0  2.20579  0  1.734272  0  0  2.117698  0  2.097406  0  0  2.17555  0  2.033147  0  0  1.371903  2.072791  0  2.148728  0
H  H2  1  0.48248367  0.27837889  0.99456035  1  0  0.418362  0  0.885582  0  0  0.390937  0  0.945273  0  0  0.401024  0  0.930693  0  0  0.273622  0.383712  0  0.955701  0
H  H3  1  0.01763841  0.28401930  0.00557275  1  0  0.418217  0  0.88563  0  0  0.391133  0  0.944774  0  0  0.401209  0  0.930204  0  0  0.273819  0.383925  0  0.95518  0
H  H4  1  0.51752094  0.72161860  0.00544020  1  0  0.418337  0  0.885623  0  0  0.390883  0  0.945345  0  0  0.40097  0  0.930765  0  0  0.273562  0.38366  0  0.955771  0
H  H5  1  0.98236801  0.71598228  0.99442731  1  0  0.418286  0  0.885548  0  0  0.391203  0  0.944686  0  0  0.401279  0  0.930117  0  0  0.273821  0.383995  0  0.955092  0
H  H6  1  0.64091517  0.23397928  0.06421640  1  0  0.385944  0  0.939639  0  0  0.342641  0  1.023233  0  0  0.35488  0  1.00624  0  0  0.281005  0.33406  0  1.0351  0
H  H7  1  0.85930220  0.16993251  0.93585348  1  0  0.385823  0  0.939867  0  0  0.342222  0  1.023973  0  0  0.354472  0  1.006961  0  0  0.28066  0.333647  0  1.035835  0
H  H8  1  0.35908859  0.76602026  0.93578319  1  0  0.385972  0  0.939626  0  0  0.34266  0  1.023232  0  0  0.354901  0  1.006238  0  0  0.281016  0.334079  0  1.0351  0
H  H9  1  0.14070322  0.83007009  0.06414677  1  0  0.385846  0  0.939834  0  0  0.342243  0  1.023939  0  0  0.354493  0  1.006928  0  0  0.280659  0.333663  0  1.035808  0
H  H10  1  0.52584617  0.71203764  0.35330165  1  0  0.145447  0  0.911129  0  0  0.150935  0  0.97941  0  0  0.154373  0  0.976357  0  0  0.132791  0.1485  0  0.981694  0
H  H11  1  0.97409831  0.35778567  0.64643402  1  0  0.145534  0  0.911181  0  0  0.151127  0  0.978858  0  0  0.154558  0  0.975783  0  0  0.132559  0.148624  0  0.98123  0
H  H12  1  0.47416542  0.28796702  0.64669664  1  0  0.14544  0  0.911158  0  0  0.15091  0  0.979459  0  0  0.154349  0  0.976429  0  0  0.132788  0.148465  0  0.981754  0
H  H13  1  0.02589739  0.64221491  0.35356364  1  0  0.14558  0  0.911175  0  0  0.151147  0  0.978886  0  0  0.154591  0  0.975799  0  0  0.132559  0.148646  0  0.981256  0
H  H14  1  0.46805355  0.53794209  0.31169116  1  0  0.142358  0  0.889024  0  0  0.155719  0  0.942859  0  0  0.15825  0  0.941203  0  0  0.139192  0.153864  0  0.944231  0
H  H15  1  0.03185021  0.22577019  0.68873196  1  0  0.141947  0  0.88992  0  0  0.15549  0  0.943426  0  0  0.158009  0  0.941754  0  0  0.139323  0.153634  0  0.944791  0
H  H16  1  0.53194299  0.46206356  0.68831240  1  0  0.142368  0  0.888996  0  0  0.155718  0  0.942854  0  0  0.158265  0  0.941188  0  0  0.13917  0.153864  0  0.944226  0
H  H17  1  0.96815086  0.77422735  0.31126173  1  0  0.141961  0  0.88991  0  0  0.155496  0  0.94343  0  0  0.158016  0  0.941757  0  0  0.139324  0.153638  0  0.944801  0
H  H18  1  0.00021153  0.94114222  0.61947476  1  0  0.099523  0  0.973756  0  0  0.098397  0  1.057134  0  0  0.102015  0  1.05348  0  0  0.105669  0.095674  0  1.0599  0
H  H19  1  0.50159438  0.32035625  0.38019922  1  0  0.100809  0  0.971864  0  0  0.099413  0  1.055114  0  0  0.103104  0  1.051395  0  0  0.105652  0.096639  0  1.057944  0
H  H20  1  0.99979156  0.05886031  0.38053433  1  0  0.099421  0  0.97376  0  0  0.098301  0  1.057135  0  0  0.101921  0  1.053472  0  0  0.105609  0.095579  0  1.059902  0
H  H21  1  0.49839780  0.67964436  0.61979468  1  0  0.100784  0  0.971781  0  0  0.099386  0  1.055064  0  0  0.103076  0  1.051347  0  0  0.105646  0.096612  0  1.057894  0
H  H22  1  0.24095495  0.09296042  0.78746919  1  0  0.112333  0  0.949686  0  0  0.122036  0  1.006205  0  0  0.125427  0  1.004928  0  0  0.102583  0.119594  0  1.007305  0
H  H23  1  0.26112709  0.30512494  0.21246461  1  0  0.112442  0  0.949744  0  0  0.121811  0  1.006649  0  0  0.125235  0  1.005323  0  0  0.102869  0.119341  0  1.007798  0
H  H24  1  0.75904479  0.90704313  0.21254042  1  0  0.112301  0  0.949799  0  0  0.121999  0  1.006322  0  0  0.12539  0  1.005044  0  0  0.102559  0.119551  0  1.00743  0
H  H25  1  0.73886779  0.69487058  0.78752716  1  0  0.112531  0  0.949679  0  0  0.121898  0  1.006581  0  0  0.125324  0  1.005252  0  0  0.102863  0.119428  0  1.007731  0
H  H26  1  0.40439263  0.00348074  0.92383204  1  0  0.07348  0  0.939798  0  0  0.083513  0  1.003292  0  0  0.086143  0  1.000868  0  0  0.112556  0.081483  0  1.00522  0
H  H27  1  0.09636451  0.07988901  0.07623211  1  0  0.07426  0  0.938784  0  0  0.083979  0  1.002635  0  0  0.086692  0  1.000103  0  0  0.113092  0.08196  0  1.004523  0
H  H28  1  0.59560997  0.99651874  0.07617507  1  0  0.073524  0  0.939773  0  0  0.083557  0  1.00326  0  0  0.086188  0  1.000835  0  0  0.112566  0.081525  0  1.00519  0
H  H29  1  0.90363155  0.92010649  0.92376144  1  0  0.074225  0  0.938734  0  0  0.083928  0  1.002594  0  0  0.086632  0  1.000083  0  0  0.113058  0.081916  0  1.004481  0
H  H30  1  0.12269095  0.62804359  0.73663198  1  0  0.09706  0  0.943213  0  0  0.101451  0  1.014129  0  0  0.105121  0  1.010418  0  0  0.122252  0.098725  0  1.016871  0
H  H31  1  0.37664190  0.89049720  0.26308580  1  0  0.09708  0  0.943706  0  0  0.101736  0  1.0144  0  0  0.105397  0  1.010669  0  0  0.122416  0.099054  0  1.017124  0
H  H32  1  0.87731164  0.37195593  0.26337049  1  0  0.097042  0  0.943142  0  0  0.101422  0  1.014066  0  0  0.105091  0  1.010355  0  0  0.122226  0.098687  0  1.016822  0
H  H33  1  0.62335164  0.10950438  0.73691570  1  0  0.097097  0  0.943708  0  0  0.101723  0  1.014434  0  0  0.105382  0  1.010704  0  0  0.122401  0.099041  0  1.017156  0
C  C34  1  0.60923423  0.57017796  0.21160117  1  0  0.743214  0  3.837679  0  0  0.699552  0  4.136459  0  0  0.733945  0  4.126308  0  0  0.233303  0.676205  0  4.142268  0
C  C35  1  0.89068414  0.35850359  0.78842951  1  0  0.744153  0  3.836611  0  0  0.69938  0  4.136883  0  0  0.733769  0  4.126741  0  0  0.232922  0.676021  0  4.142706  0
C  C36  1  0.39076803  0.42981953  0.78839894  1  0  0.74311  0  3.837854  0  0  0.699499  0  4.136556  0  0  0.733906  0  4.126406  0  0  0.233325  0.676155  0  4.142357  0
C  C37  1  0.10931742  0.64149700  0.21156616  1  0  0.744135  0  3.8367  0  0  0.699383  0  4.136935  0  0  0.733772  0  4.126791  0  0  0.232903  0.676023  0  4.142759  0
C  C38  1  0.56579296  0.61147860  0.32756728  1  0  -0.20752  0  3.579758  0  0  -0.263792  0  3.827084  0  0  -0.26521  0  3.830321  0  0  -0.033743  -0.262899  0  3.82508  0
C  C39  1  0.93411176  0.28331806  0.67251376  1  0  -0.207321  0  3.580008  0  0  -0.262789  0  3.826373  0  0  -0.264087  0  3.829458  0  0  -0.033181  -0.261891  0  3.824426  0
C  C40  1  0.43421112  0.38852297  0.67243389  1  0  -0.207439  0  3.579757  0  0  -0.263711  0  3.827043  0  0  -0.26518  0  3.83034  0  0  -0.033689  -0.262816  0  3.825051  0
C  C41  1  0.06588580  0.71667947  0.32748236  1  0  -0.207401  0  3.580105  0  0  -0.262865  0  3.826494  0  0  -0.264172  0  3.829571  0  0  -0.033194  -0.261962  0  3.82454  0
C  C42  1  0.90399165  0.68382839  0.56995900  1  0  0.250458  0  3.812363  0  0  0.230865  0  4.088705  0  0  0.238872  0  4.106531  0  0  0.220596  0.225666  0  4.076557  0
C  C43  1  0.59624486  0.11265302  0.42999487  1  0  0.248905  0  3.813728  0  0  0.230374  0  4.088433  0  0  0.2384  0  4.106211  0  0  0.221149  0.225177  0  4.076263  0
C  C44  1  0.09601228  0.31617216  0.43004254  1  0  0.250536  0  3.812239  0  0  0.230947  0  4.088588  0  0  0.238942  0  4.106429  0  0  0.220646  0.225748  0  4.076442  0
C  C45  1  0.40374564  0.88735163  0.57000563  1  0  0.249091  0  3.813529  0  0  0.230415  0  4.088404  0  0  0.238441  0  4.106184  0  0  0.221204  0.225218  0  4.076232  0
C  C46  1  0.04425495  0.77231316  0.66436944  1  0  -0.040053  0  3.787434  0  0  -0.017094  0  4.019584  0  0  -0.023584  0  4.044308  0  0  0.000779  -0.013109  0  4.002849  0
C  C47  1  0.45616653  0.10685275  0.33547743  1  0  -0.038037  0  3.786517  0  0  -0.015257  0  4.018414  0  0  -0.021712  0  4.04311  0  0  0.000422  -0.011263  0  4.001667  0
C  C48  1  0.95574748  0.22768532  0.33563417  1  0  -0.040088  0  3.787238  0  0  -0.017162  0  4.019422  0  0  -0.023635  0  4.044127  0  0  0.000731  -0.013176  0  4.002689  0
C  C49  1  0.54382498  0.89315089  0.66452211  1  0  -0.038204  0  3.786505  0  0  -0.015326  0  4.018402  0  0  -0.021783  0  4.043101  0  0  0.000496  -0.011331  0  4.001648  0
C  C50  1  0.07849727  0.90515471  0.67928735  1  0  -0.03121  0  3.677938  0  0  -0.062174  0  3.928573  0  0  -0.059648  0  3.948351  0  0  -0.066642  -0.063308  0  3.91488  0
C  C51  1  0.42270864  0.22486861  0.32052098  1  0  -0.03382  0  3.678328  0  0  -0.064352  0  3.928783  0  0  -0.061913  0  3.948497  0  0  -0.067085  -0.06546  0  3.91517  0
C  C52  1  0.92150416  0.09484477  0.32071954  1  0  -0.031026  0  3.677758  0  0  -0.061954  0  3.928347  0  0  -0.059444  0  3.948157  0  0  -0.066533  -0.063088  0  3.914656  0
C  C53  1  0.57728237  0.77513200  0.67947270  1  0  -0.033464  0  3.677699  0  0  -0.064039  0  3.928194  0  0  -0.061599  0  3.947907  0  0  -0.066954  -0.065146  0  3.914578  0
C  C54  1  0.21021967  0.98907757  0.77202252  1  0  -0.114369  0  3.748166  0  0  -0.125176  0  4.002139  0  0  -0.132524  0  4.024525  0  0  -0.086858  -0.120561  0  3.987039  0
C  C55  1  0.29113453  0.21653935  0.22787809  1  0  -0.114337  0  3.748703  0  0  -0.124884  0  4.002702  0  0  -0.132252  0  4.025082  0  0  -0.086456  -0.120256  0  3.987612  0
C  C56  1  0.78977991  0.01092496  0.22798591  1  0  -0.114386  0  3.748326  0  0  -0.125219  0  4.002312  0  0  -0.132569  0  4.0247  0  0  -0.086878  -0.120596  0  3.98721  0
C  C57  1  0.70885983  0.78346025  0.77211430  1  0  -0.114715  0  3.748489  0  0  -0.125251  0  4.002532  0  0  -0.132618  0  4.024908  0  0  -0.086589  -0.120624  0  3.987442  0
C  C58  1  0.30195986  0.93931877  0.84861337  1  0  0.124968  0  3.710387  0  0  0.089204  0  3.969155  0  0  0.095942  0  3.986841  0  0  0.046647  0.085026  0  3.957035  0
C  C59  1  0.19868536  0.09054715  0.15135435  1  0  0.125008  0  3.71093  0  0  0.089004  0  3.969923  0  0  0.095709  0  3.987565  0  0  0.046226  0.084833  0  3.957829  0
C  C60  1  0.69804358  0.06067870  0.15139006  1  0  0.124882  0  3.710479  0  0  0.089132  0  3.969238  0  0  0.095872  0  3.986918  0  0  0.046607  0.084956  0  3.957118  0
C  C61  1  0.80130985  0.90945039  0.84863978  1  0  0.125017  0  3.710958  0  0  0.089048  0  3.969941  0  0  0.095748  0  3.987584  0  0  0.046232  0.084877  0  3.957858  0
C  C62  1  0.14416656  0.73014310  0.74445329  1  0  0.111  0  3.647535  0  0  0.067093  0  3.904403  0  0  0.073435  0  3.920338  0  0  0.058554  0.063199  0  3.893549  0
C  C63  1  0.35572697  0.98492297  0.25539423  1  0  0.110454  0  3.647263  0  0  0.06562  0  3.9045  0  0  0.071996  0  3.920424  0  0  0.058303  0.06166  0  3.893664  0
C  C64  1  0.85583805  0.26985437  0.25554881  1  0  0.111048  0  3.647593  0  0  0.067168  0  3.904451  0  0  0.073506  0  3.920383  0  0  0.058619  0.063279  0  3.893607  0
C  C65  1  0.64426672  0.01507964  0.74460534  1  0  0.110512  0  3.647261  0  0  0.065689  0  3.904496  0  0  0.072066  0  3.920421  0  0  0.05833  0.061738  0  3.89366  0
N  N66  1  0.81198545  0.72056704  0.48886328  1  0  -0.285776  0  2.818637  0  0  -0.275771  0  3.089217  0  0  -0.282341  0  3.102258  0  0  -0.188814  -0.271491  0  3.081166  0
N  N67  1  0.68806410  0.23059295  0.51099717  1  0  -0.284445  0  2.819371  0  0  -0.2746  0  3.089232  0  0  -0.281206  0  3.102302  0  0  -0.188247  -0.270313  0  3.081211  0
N  N68  1  0.18801964  0.27943350  0.51113771  1  0  -0.285886  0  2.818639  0  0  -0.275904  0  3.089264  0  0  -0.282468  0  3.102303  0  0  -0.188915  -0.271619  0  3.081202  0
N  N69  1  0.31193177  0.76940865  0.48900089  1  0  -0.284532  0  2.819197  0  0  -0.274646  0  3.089088  0  0  -0.281252  0  3.10216  0  0  -0.188307  -0.270359  0  3.081069  0
N  N70  1  0.69595559  0.61710875  0.42721035  1  0  0.244236  0  3.558448  0  0  0.29271  0  3.836855  0  0  0.28914  0  3.858631  0  0  -0.004676  0.29497  0  3.822162  0
N  N71  1  0.80406662  0.18905870  0.57293925  1  0  0.243563  0  3.559271  0  0  0.291802  0  3.8379  0  0  0.288228  0  3.859698  0  0  -0.004756  0.294027  0  3.823244  0
N  N72  1  0.30404967  0.38289282  0.57279104  1  0  0.244275  0  3.558488  0  0  0.292745  0  3.836897  0  0  0.289189  0  3.858677  0  0  -0.004619  0.295008  0  3.822201  0
N  N73  1  0.19592775  0.81094087  0.42705701  1  0  0.243645  0  3.559077  0  0  0.291902  0  3.837675  0  0  0.288324  0  3.859478  0  0  -0.004694  0.294125  0  3.823021  0
N  N74  1  0.71237701  0.51909343  0.46447828  1  0  -0.10047  0  2.848804  0  0  -0.09673  0  3.141124  0  0  -0.093364  0  3.149856  0  0  -0.064714  -0.098778  0  3.135731  0
N  N75  1  0.78783676  0.05382841  0.53591005  1  0  -0.099671  0  2.848362  0  0  -0.095908  0  3.141178  0  0  -0.092572  0  3.149949  0  0  -0.064655  -0.097943  0  3.135798  0
N  N76  1  0.28762606  0.48090916  0.53552384  1  0  -0.100544  0  2.848959  0  0  -0.096771  0  3.141249  0  0  -0.093404  0  3.149976  0  0  -0.064723  -0.098818  0  3.135854  0
N  N77  1  0.21215543  0.94617218  0.46408695  1  0  -0.099731  0  2.848392  0  0  -0.095977  0  3.141209  0  0  -0.09264  0  3.149979  0  0  -0.064709  -0.098011  0  3.13583  0
N  N78  1  0.84439981  0.56036421  0.55541242  1  0  -0.261073  0  2.915599  0  0  -0.251932  0  3.211976  0  0  -0.258912  0  3.22192  0  0  -0.195187  -0.247266  0  3.205698  0
N  N79  1  0.65593893  0.00392532  0.44485090  1  0  -0.261212  0  2.914707  0  0  -0.252436  0  3.211146  0  0  -0.259441  0  3.221107  0  0  -0.19543  -0.247758  0  3.204847  0
N  N80  1  0.15560310  0.43963736  0.44458852  1  0  -0.261045  0  2.915599  0  0  -0.251914  0  3.211973  0  0  -0.258891  0  3.221924  0  0  -0.195177  -0.247245  0  3.205688  0
N  N81  1  0.34405242  0.99607730  0.55514823  1  0  -0.261236  0  2.914686  0  0  -0.252404  0  3.211147  0  0  -0.259408  0  3.22111  0  0  -0.195433  -0.247727  0  3.204849  0
N  N82  1  0.26964600  0.81254431  0.83503053  1  0  -0.299909  0  3.202148  0  0  -0.231852  0  3.449339  0  0  -0.246518  0  3.465241  0  0  -0.303616  -0.221957  0  3.438358  0
N  N83  1  0.23033778  0.97723182  0.16492327  1  0  -0.300428  0  3.201996  0  0  -0.231096  0  3.448409  0  0  -0.245843  0  3.464414  0  0  -0.303738  -0.221191  0  3.437428  0
N  N84  1  0.73035744  0.18745315  0.16497290  1  0  -0.299932  0  3.202337  0  0  -0.231884  0  3.449524  0  0  -0.246549  0  3.465424  0  0  -0.30361  -0.221989  0  3.438542  0
N  N85  1  0.76965911  0.02276874  0.83507616  1  0  -0.300416  0  3.201961  0  0  -0.231101  0  3.448384  0  0  -0.245846  0  3.464389  0  0  -0.303781  -0.221223  0  3.437424  0
Cl  Cl86  1  0.75005629  0.68907975  0.00026199  1  0  -0.678337  0  0.86214  0  0  -0.640704  0  1.081901  0  0  -0.656327  0  1.061981  0  0  -0.290114  -0.6286  0  1.096397  0
Cl  Cl87  1  0.24995399  0.31092384  0.99974187  1  0  -0.678325  0  0.862156  0  0  -0.640707  0  1.081921  0  0  -0.656326  0  1.062006  0  0  -0.290115  -0.628607  0  1.096428  0
O  O88  1  0.50670795  0.57604891  0.12358405  1  0  -0.774433  0  2.137772  0  0  -0.731327  0  2.398509  0  0  -0.759972  0  2.388351  0  0  -0.398087  -0.710476  0  2.404765  0
O  O89  1  0.99337284  0.45245496  0.87615525  1  0  -0.774111  0  2.135706  0  0  -0.731011  0  2.397655  0  0  -0.759606  0  2.387362  0  0  -0.39757  -0.710169  0  2.403906  0
O  O90  1  0.49329616  0.42394553  0.87641374  1  0  -0.774378  0  2.137765  0  0  -0.731271  0  2.398447  0  0  -0.759916  0  2.388276  0  0  -0.398063  -0.710422  0  2.404701  0
O  O91  1  0.00662670  0.54754770  0.12383847  1  0  -0.774099  0  2.135735  0  0  -0.731031  0  2.397737  0  0  -0.759633  0  2.387451  0  0  -0.397588  -0.710194  0  2.404003  0
O  O92  1  0.74240451  0.53113947  0.20662172  1  0  -0.694987  0  2.01129  0  0  -0.654763  0  2.257485  0  0  -0.680661  0  2.247858  0  0  -0.367895  -0.636307  0  2.263638  0
O  O93  1  0.75754222  0.32479156  0.79363438  1  0  -0.695448  0  2.011445  0  0  -0.655134  0  2.258558  0  0  -0.681052  0  2.248959  0  0  -0.367723  -0.636672  0  2.264735  0
O  O94  1  0.25759678  0.46885188  0.79337907  1  0  -0.694969  0  2.011369  0  0  -0.654786  0  2.257561  0  0  -0.680678  0  2.247926  0  0  -0.367962  -0.636331  0  2.263709  0
O  O95  1  0.24246691  0.67520489  0.20636743  1  0  -0.695449  0  2.011455  0  0  -0.65515  0  2.258598  0  0  -0.681067  0  2.249001  0  0  -0.367689  -0.636686  0  2.264777  0
O  O96  1  0.59374704  0.26538075  0.99761849  1  0  -0.902869  0  1.929164  0  0  -0.853696  0  2.127611  0  0  -0.876217  0  2.096606  0  0  -0.66097  -0.837354  0  2.149495  0
O  O97  1  0.90636117  0.26793405  0.00244718  1  0  -0.902494  0  1.929653  0  0  -0.853266  0  2.127593  0  0  -0.875847  0  2.096713  0  0  -0.66069  -0.836883  0  2.149391  0
O  O98  1  0.40625724  0.73461472  0.00237893  1  0  -0.902904  0  1.929182  0  0  -0.853692  0  2.127676  0  0  -0.876209  0  2.096674  0  0  -0.660919  -0.83735  0  2.14956  0
O  O99  1  0.09364525  0.73206753  0.99755288  1  0  -0.902589  0  1.92956  0  0  -0.853357  0  2.127498  0  0  -0.875934  0  2.096621  0  0  -0.660695  -0.83698  0  2.149312  0
