# generated using pymatgen
data_CdH20C18(NO5)2
_symmetry_space_group_name_H-M   'P 1'
_cell_length_a   9.75899439
_cell_length_b   9.40215049
_cell_length_c   14.02263615
_cell_angle_alpha   105.72400116
_cell_angle_beta   90.00431850
_cell_angle_gamma   121.28713821
_symmetry_Int_Tables_number   1
_chemical_formula_structural   CdH20C18(NO5)2
_chemical_formula_sum   'Cd2 H40 C36 N4 O20'
_cell_volume   1042.77366967
_cell_formula_units_Z   2
loop_
 _symmetry_equiv_pos_site_id
 _symmetry_equiv_pos_as_xyz
  1  'x, y, z'
loop_
 _atom_site_type_symbol
 _atom_site_label
 _atom_site_symmetry_multiplicity
 _atom_site_fract_x
 _atom_site_fract_y
 _atom_site_fract_z
 _atom_site_occupancy
 _atom_site_hle17_bader_spin_density
 _atom_site_hle17_ddec_charge
 _atom_site_hle17_ddec_spin_density
 _atom_site_hle17_ddec_sum_bond_order
 _atom_site_hle17_magmom
 _atom_site_hse06_10hf_bader_spin_density
 _atom_site_hse06_10hf_ddec_charge
 _atom_site_hse06_10hf_ddec_spin_density
 _atom_site_hse06_10hf_ddec_sum_bond_order
 _atom_site_hse06_10hf_magmom
 _atom_site_hse06_bader_spin_density
 _atom_site_hse06_ddec_charge
 _atom_site_hse06_ddec_spin_density
 _atom_site_hse06_ddec_sum_bond_order
 _atom_site_hse06_magmom
 _atom_site_pbe_bader_spin_density
 _atom_site_pbe_cm5_charge
 _atom_site_pbe_ddec_charge
 _atom_site_pbe_ddec_spin_density
 _atom_site_pbe_ddec_sum_bond_order
 _atom_site_pbe_magmom
Cd  Cd0  1  0.36689663  0.99999759  0.74998839  1  0  1.268856  0  1.624999  0  0  1.101827  0  2.082264  0  0  1.159589  0  2.019111  0  0  0.766388  1.058986  0  2.126768  0
Cd  Cd1  1  0.63310426  0.99999894  0.25001068  1  0  1.268896  0  1.624992  0  0  1.101833  0  2.082262  0  0  1.159595  0  2.01911  0  0  0.766408  1.058993  0  2.126764  0
H  H2  1  0.60125902  0.31612978  0.74882561  1  0  0.406533  0  0.913128  0  0  0.3701  0  0.987748  0  0  0.382448  0  0.970132  0  0  0.275519  0.36167  0  0.999612  0
H  H3  1  0.28497938  0.68401044  0.75120556  1  0  0.406737  0  0.913088  0  0  0.370221  0  0.987661  0  0  0.382578  0  0.970039  0  0  0.275625  0.361796  0  0.999523  0
H  H4  1  0.39873608  0.68386887  0.25116842  1  0  0.406444  0  0.913244  0  0  0.370001  0  0.987881  0  0  0.382352  0  0.970261  0  0  0.275444  0.361569  0  0.999747  0
H  H5  1  0.71502071  0.31598590  0.24879238  1  0  0.406706  0  0.913144  0  0  0.37019  0  0.987718  0  0  0.382549  0  0.970093  0  0  0.275615  0.361765  0  0.99958  0
H  H6  1  0.46880685  0.35223523  0.79808299  1  0  0.417688  0  0.829694  0  0  0.403585  0  0.879002  0  0  0.411539  0  0.87056  0  0  0.315263  0.397767  0  0.885396  0
H  H7  1  0.11628732  0.64768892  0.70190416  1  0  0.417055  0  0.828442  0  0  0.402748  0  0.878298  0  0  0.410742  0  0.869755  0  0  0.314856  0.396892  0  0.884773  0
H  H8  1  0.53119050  0.64776383  0.20191682  1  0  0.417686  0  0.829699  0  0  0.40358  0  0.879007  0  0  0.411533  0  0.870565  0  0  0.315264  0.397761  0  0.885401  0
H  H9  1  0.88371447  0.35230469  0.29809192  1  0  0.417216  0  0.828283  0  0  0.402809  0  0.878294  0  0  0.410805  0  0.869749  0  0  0.314914  0.396954  0  0.884767  0
H  H10  1  0.06803942  0.03683878  0.39603305  1  0  0.106893  0  0.978487  0  0  0.111491  0  1.045436  0  0  0.114389  0  1.042772  0  0  0.129994  0.109586  0  1.047071  0
H  H11  1  0.03132417  0.96307800  0.10393303  1  0  0.107444  0  0.975902  0  0  0.112053  0  1.04297  0  0  0.114966  0  1.040293  0  0  0.130178  0.110147  0  1.044606  0
H  H12  1  0.93196011  0.96316668  0.60396564  1  0  0.106946  0  0.978421  0  0  0.111588  0  1.045361  0  0  0.114457  0  1.042729  0  0  0.130002  0.10973  0  1.046942  0
H  H13  1  0.96867491  0.03692248  0.89606843  1  0  0.107422  0  0.975887  0  0  0.112039  0  1.042957  0  0  0.114952  0  1.040281  0  0  0.130176  0.110134  0  1.044592  0
H  H14  1  0.06644792  0.18303472  0.27141916  1  0  0.130477  0  0.974034  0  0  0.133334  0  1.039634  0  0  0.138399  0  1.036911  0  0  0.112807  0.129811  0  1.041216  0
H  H15  1  0.88347955  0.81705372  0.22858950  1  0  0.129532  0  0.974806  0  0  0.132703  0  1.040005  0  0  0.137762  0  1.037337  0  0  0.112448  0.129169  0  1.041579  0
H  H16  1  0.93356206  0.81697731  0.72858059  1  0  0.130505  0  0.973984  0  0  0.133347  0  1.039603  0  0  0.13841  0  1.036882  0  0  0.112793  0.129822  0  1.041183  0
H  H17  1  0.11651370  0.18294534  0.77141031  1  0  0.129522  0  0.974819  0  0  0.132704  0  1.040003  0  0  0.137759  0  1.037339  0  0  0.112457  0.129171  0  1.041577  0
H  H18  1  0.33144390  0.41549049  0.24325502  1  0  0.101442  0  0.949878  0  0  0.112794  0  1.009558  0  0  0.116052  0  1.005892  0  0  0.114146  0.110137  0  1.012427  0
H  H19  1  0.91564846  0.58449765  0.25681166  1  0  0.102038  0  0.949815  0  0  0.112916  0  1.009834  0  0  0.116138  0  1.006197  0  0  0.11433  0.110287  0  1.012675  0
H  H20  1  0.66857175  0.58452058  0.75674957  1  0  0.101381  0  0.949928  0  0  0.112823  0  1.00951  0  0  0.116081  0  1.005845  0  0  0.114171  0.110165  0  1.012382  0
H  H21  1  0.08434377  0.41550141  0.74318815  1  0  0.102016  0  0.949815  0  0  0.112914  0  1.009829  0  0  0.116134  0  1.006193  0  0  0.114339  0.110286  0  1.012668  0
H  H22  1  0.59396857  0.49930994  0.34524309  1  0  0.128172  0  0.945476  0  0  0.135709  0  1.003693  0  0  0.139324  0  1.00274  0  0  0.115361  0.133404  0  1.004174  0
H  H23  1  0.09428715  0.50055046  0.15486420  1  0  0.127254  0  0.945184  0  0  0.135095  0  1.003575  0  0  0.138673  0  1.002644  0  0  0.115122  0.132847  0  1.003989  0
H  H24  1  0.40604191  0.50069080  0.65476199  1  0  0.12816  0  0.945304  0  0  0.135674  0  1.003603  0  0  0.139273  0  1.002672  0  0  0.115361  0.133418  0  1.004025  0
H  H25  1  0.90570447  0.49944739  0.84513684  1  0  0.12727  0  0.945169  0  0  0.135114  0  1.003577  0  0  0.138686  0  1.002648  0  0  0.115149  0.132868  0  1.003987  0
H  H26  1  0.57325252  0.33702481  0.46409518  1  0  0.116314  0  0.91055  0  0  0.125707  0  0.968862  0  0  0.128781  0  0.965963  0  0  0.138734  0.123243  0  0.971305  0
H  H27  1  0.23592252  0.66265961  0.03595017  1  0  0.11638  0  0.910595  0  0  0.125985  0  0.968605  0  0  0.128965  0  0.965804  0  0  0.138609  0.123573  0  0.970999  0
H  H28  1  0.42675155  0.66297335  0.53591019  1  0  0.116394  0  0.910608  0  0  0.125719  0  0.968974  0  0  0.128789  0  0.966081  0  0  0.138742  0.123256  0  0.971416  0
H  H29  1  0.76407157  0.33733703  0.96405211  1  0  0.116351  0  0.910605  0  0  0.125979  0  0.968586  0  0  0.128961  0  0.965785  0  0  0.138589  0.123566  0  0.97098  0
H  H30  1  0.43898550  0.15488250  0.54137509  1  0  0.085747  0  0.953997  0  0  0.091435  0  1.022678  0  0  0.093731  0  1.021548  0  0  0.121998  0.089626  0  1.023862  0
H  H31  1  0.28380987  0.84471087  0.95849789  1  0  0.08444  0  0.953953  0  0  0.090459  0  1.022455  0  0  0.092738  0  1.021383  0  0  0.121997  0.088666  0  1.0236  0
H  H32  1  0.56101198  0.84511274  0.45862553  1  0  0.085736  0  0.95404  0  0  0.091413  0  1.022728  0  0  0.093715  0  1.021588  0  0  0.121998  0.089597  0  1.023928  0
H  H33  1  0.71618821  0.15528966  0.04150430  1  0  0.084461  0  0.953958  0  0  0.090486  0  1.022438  0  0  0.092765  0  1.021365  0  0  0.121974  0.088692  0  1.023583  0
H  H34  1  0.22959361  0.83530970  0.51129877  1  0  0.133243  0  0.918895  0  0  0.150314  0  0.972782  0  0  0.153033  0  0.971147  0  0  0.112718  0.148457  0  0.974286  0
H  H35  1  0.39442639  0.16423074  0.98857930  1  0  0.132867  0  0.918352  0  0  0.150315  0  0.972552  0  0  0.153005  0  0.970909  0  0  0.112595  0.148505  0  0.974064  0
H  H36  1  0.77040674  0.16468513  0.48869608  1  0  0.133258  0  0.918907  0  0  0.150311  0  0.972796  0  0  0.15303  0  0.971162  0  0  0.112704  0.148464  0  0.974307  0
H  H37  1  0.60557146  0.83576726  0.01142391  1  0  0.132825  0  0.918292  0  0  0.150283  0  0.972502  0  0  0.152976  0  0.970858  0  0  0.112555  0.14847  0  0.974018  0
H  H38  1  0.11637255  0.83254708  0.41297796  1  0  0.124996  0  0.939762  0  0  0.137851  0  1.003904  0  0  0.140345  0  1.002729  0  0  0.105603  0.135857  0  1.005512  0
H  H39  1  0.28400203  0.16723131  0.08685887  1  0  0.125013  0  0.940032  0  0  0.138768  0  1.00332  0  0  0.141229  0  1.002143  0  0  0.106204  0.136817  0  1.004934  0
H  H40  1  0.88362331  0.16745309  0.58701918  1  0  0.12497  0  0.939852  0  0  0.137811  0  1.003995  0  0  0.140304  0  1.002818  0  0  0.105577  0.135826  0  1.00561  0
H  H41  1  0.71600020  0.83276931  0.91314476  1  0  0.124957  0  0.940052  0  0  0.138747  0  1.003316  0  0  0.14121  0  1.002138  0  0  0.106207  0.136795  0  1.004928  0
C  C42  1  0.17947494  0.14163240  0.38253236  1  0  0.113471  0  3.578008  0  0  0.072452  0  3.823251  0  0  0.082224  0  3.838125  0  0  0.069002  0.065991  0  3.813893  0
C  C43  1  0.03790660  0.85829390  0.11747645  1  0  0.113464  0  3.577306  0  0  0.072459  0  3.822623  0  0  0.082212  0  3.837508  0  0  0.068726  0.065997  0  3.813265  0
C  C44  1  0.82052761  0.85837297  0.61746489  1  0  0.113585  0  3.577762  0  0  0.072501  0  3.823023  0  0  0.082294  0  3.837911  0  0  0.069088  0.066006  0  3.813637  0
C  C45  1  0.96209416  0.14170789  0.88252523  1  0  0.113559  0  3.577262  0  0  0.072524  0  3.822607  0  0  0.082275  0  3.837495  0  0  0.06877  0.066061  0  3.813248  0
C  C46  1  0.18141531  0.22459567  0.31425871  1  0  -0.109458  0  3.693546  0  0  -0.120727  0  3.947683  0  0  -0.129753  0  3.966848  0  0  -0.073548  -0.115542  0  3.93482  0
C  C47  1  0.95682555  0.77540247  0.18578721  1  0  -0.109533  0  3.691689  0  0  -0.120949  0  3.945461  0  0  -0.129992  0  3.964634  0  0  -0.073616  -0.115742  0  3.932576  0
C  C48  1  0.81859196  0.77541913  0.68574363  1  0  -0.109712  0  3.693404  0  0  -0.120974  0  3.947623  0  0  -0.129996  0  3.966775  0  0  -0.073626  -0.115786  0  3.934766  0
C  C49  1  0.04316975  0.22459659  0.81421260  1  0  -0.109578  0  3.691829  0  0  -0.12097  0  3.945598  0  0  -0.130009  0  3.964773  0  0  -0.073673  -0.115763  0  3.932714  0
C  C50  1  0.33028417  0.35398998  0.29904418  1  0  0.030276  0  3.667332  0  0  0.002759  0  3.924324  0  0  0.010288  0  3.93889  0  0  -0.049611  -0.001396  0  3.913627  0
C  C51  1  0.97609792  0.64595067  0.20102798  1  0  0.029411  0  3.665751  0  0  0.002617  0  3.922992  0  0  0.010166  0  3.937521  0  0  -0.049377  -0.001561  0  3.912345  0
C  C52  1  0.66972712  0.64601444  0.70095791  1  0  0.030575  0  3.667198  0  0  0.003015  0  3.924189  0  0  0.010548  0  3.938749  0  0  -0.049551  -0.001145  0  3.913506  0
C  C53  1  0.02389538  0.35404850  0.79897327  1  0  0.029456  0  3.665812  0  0  0.002648  0  3.923047  0  0  0.010198  0  3.937575  0  0  -0.049344  -0.001532  0  3.912401  0
C  C54  1  0.47433393  0.39908229  0.35385355  1  0  -0.111675  0  3.706344  0  0  -0.12642  0  3.969396  0  0  -0.134587  0  3.989726  0  0  -0.076795  -0.121065  0  3.954876  0
C  C55  1  0.07496437  0.60075668  0.14623063  1  0  -0.110208  0  3.704062  0  0  -0.125975  0  3.967979  0  0  -0.134069  0  3.988217  0  0  -0.077346  -0.120681  0  3.953489  0
C  C56  1  0.52567637  0.60092217  0.64614927  1  0  -0.11177  0  3.706222  0  0  -0.126561  0  3.969406  0  0  -0.134718  0  3.989745  0  0  -0.076852  -0.121243  0  3.954864  0
C  C57  1  0.92503032  0.39924117  0.85377041  1  0  -0.110257  0  3.703977  0  0  -0.126054  0  3.967966  0  0  -0.134146  0  3.988204  0  0  -0.077407  -0.120761  0  3.953477  0
C  C58  1  0.46607002  0.31183310  0.42098729  1  0  0.112724  0  3.586546  0  0  0.066971  0  3.844216  0  0  0.076189  0  3.858832  0  0  0.071371  0.061192  0  3.834226  0
C  C59  1  0.15397668  0.68789795  0.07904803  1  0  0.112376  0  3.585628  0  0  0.066962  0  3.843325  0  0  0.076256  0  3.85792  0  0  0.071694  0.061135  0  3.833353  0
C  C60  1  0.53392874  0.68816879  0.57901583  1  0  0.112623  0  3.586531  0  0  0.066955  0  3.844159  0  0  0.076172  0  3.858771  0  0  0.071349  0.061174  0  3.834184  0
C  C61  1  0.84601974  0.31210132  0.92095467  1  0  0.1124  0  3.585404  0  0  0.066975  0  3.843123  0  0  0.076267  0  3.857717  0  0  0.071703  0.061147  0  3.833154  0
C  C62  1  0.31285903  0.09316783  0.50600248  1  0  -0.008817  0  3.576282  0  0  -0.035394  0  3.817376  0  0  -0.034859  0  3.827886  0  0  0.012237  -0.035899  0  3.810708  0
C  C63  1  0.21955000  0.90651789  0.99392559  1  0  -0.004872  0  3.569778  0  0  -0.032589  0  3.813408  0  0  -0.032059  0  3.823783  0  0  0.012639  -0.033057  0  3.806803  0
C  C64  1  0.68714136  0.90683119  0.49399661  1  0  -0.008765  0  3.576388  0  0  -0.035329  0  3.817453  0  0  -0.03479  0  3.827939  0  0  0.012249  -0.035824  0  3.810792  0
C  C65  1  0.78045050  0.09348132  0.00607639  1  0  -0.00504  0  3.569853  0  0  -0.032708  0  3.813398  0  0  -0.032174  0  3.823774  0  0  0.012617  -0.033177  0  3.806791  0
C  C66  1  0.21971327  0.12533783  0.59053958  1  0  0.635326  0  3.898855  0  0  0.585637  0  4.212551  0  0  0.618217  0  4.205914  0  0  0.20423  0.563365  0  4.21581  0
C  C67  1  0.09416282  0.87447659  0.90942077  1  0  0.630452  0  3.905502  0  0  0.581825  0  4.218514  0  0  0.614393  0  4.21194  0  0  0.202341  0.559567  0  4.22173  0
C  C68  1  0.78028621  0.87465730  0.40945960  1  0  0.635143  0  3.899073  0  0  0.58542  0  4.212788  0  0  0.617998  0  4.20616  0  0  0.20406  0.563155  0  4.216029  0
C  C69  1  0.90583834  0.12552394  0.09058142  1  0  0.630476  0  3.905578  0  0  0.581855  0  4.218546  0  0  0.614423  0  4.21197  0  0  0.202363  0.559596  0  4.221765  0
C  C70  1  0.24095593  0.89745724  0.45331586  1  0  -0.303165  0  3.636784  0  0  -0.349475  0  3.884509  0  0  -0.355574  0  3.891618  0  0  -0.161774  -0.34554  0  3.880373  0
C  C71  1  0.34357910  0.10221479  0.04660333  1  0  -0.302794  0  3.63196  0  0  -0.351155  0  3.88219  0  0  -0.357097  0  3.889056  0  0  -0.16275  -0.347433  0  3.878364  0
C  C72  1  0.75903893  0.10253890  0.54667920  1  0  -0.30312  0  3.636935  0  0  -0.349399  0  3.884615  0  0  -0.355498  0  3.891722  0  0  -0.161698  -0.345515  0  3.880537  0
C  C73  1  0.65641929  0.89778432  0.95339720  1  0  -0.302648  0  3.631777  0  0  -0.351078  0  3.882031  0  0  -0.357029  0  3.888904  0  0  -0.162712  -0.347356  0  3.878203  0
C  C74  1  0.34463716  0.86102977  0.38133059  1  0  0.707715  0  3.850911  0  0  0.658234  0  4.158734  0  0  0.692083  0  4.152025  0  0  0.202588  0.635134  0  4.16273  0
C  C75  1  0.48370493  0.13868356  0.11861148  1  0  0.707192  0  3.849556  0  0  0.659131  0  4.156083  0  0  0.692948  0  4.149375  0  0  0.203512  0.636071  0  4.160083  0
C  C76  1  0.65535463  0.13896637  0.61866447  1  0  0.707658  0  3.851189  0  0  0.6582  0  4.158963  0  0  0.69205  0  4.152252  0  0  0.202597  0.635113  0  4.162962  0
C  C77  1  0.51629487  0.86131424  0.88138885  1  0  0.707305  0  3.849344  0  0  0.659262  0  4.155862  0  0  0.693084  0  4.149151  0  0  0.203581  0.636202  0  4.159865  0
N  N78  1  0.32027309  0.18512261  0.43383487  1  0  -0.013477  0  3.552026  0  0  0.078132  0  3.755716  0  0  0.064422  0  3.78123  0  0  -0.205356  0.08667  0  3.738862  0
N  N79  1  0.13502839  0.81462327  0.06614460  1  0  -0.014062  0  3.553165  0  0  0.078072  0  3.756496  0  0  0.064348  0  3.782046  0  0  -0.204654  0.086607  0  3.739636  0
N  N80  1  0.67972851  0.81488291  0.56616455  1  0  -0.013532  0  3.551919  0  0  0.078097  0  3.755576  0  0  0.064385  0  3.781081  0  0  -0.205384  0.086633  0  3.738737  0
N  N81  1  0.86497072  0.18537726  0.93385759  1  0  -0.014004  0  3.553015  0  0  0.078118  0  3.756383  0  0  0.064393  0  3.781937  0  0  -0.204617  0.086654  0  3.739522  0
O  O82  1  0.21544677  0.05980001  0.66021944  1  0  -0.683931  0  2.037937  0  0  -0.618459  0  2.299173  0  0  -0.648621  0  2.287107  0  0  -0.341415  -0.59645  0  2.306221  0
O  O83  1  0.15544834  0.94012264  0.83977563  1  0  -0.681793  0  2.038941  0  0  -0.61665  0  2.2997  0  0  -0.646837  0  2.28774  0  0  -0.340871  -0.594592  0  2.306591  0
O  O84  1  0.78454641  0.94018458  0.33977733  1  0  -0.684008  0  2.038089  0  0  -0.618423  0  2.299201  0  0  -0.648587  0  2.287142  0  0  -0.341395  -0.596412  0  2.306239  0
O  O85  1  0.84455116  0.05987663  0.16022707  1  0  -0.681808  0  2.038838  0  0  -0.616688  0  2.299606  0  0  -0.646888  0  2.287677  0  0  -0.340916  -0.59463  0  2.3065  0
O  O86  1  0.15526566  0.20938526  0.58600881  1  0  -0.605562  0  1.899104  0  0  -0.564567  0  2.121239  0  0  -0.587449  0  2.113921  0  0  -0.326315  -0.548497  0  2.125942  0
O  O87  1  0.94563214  0.79043740  0.91401029  1  0  -0.60407  0  1.903313  0  0  -0.563578  0  2.12534  0  0  -0.586443  0  2.117993  0  0  -0.325358  -0.547499  0  2.130006  0
O  O88  1  0.84474001  0.79061814  0.41399741  1  0  -0.605419  0  1.899227  0  0  -0.564421  0  2.121358  0  0  -0.587312  0  2.114052  0  0  -0.3262  -0.548341  0  2.126044  0
O  O89  1  0.05436851  0.20956827  0.08599130  1  0  -0.604044  0  1.903423  0  0  -0.563556  0  2.125434  0  0  -0.586418  0  2.118085  0  0  -0.325327  -0.547476  0  2.130103  0
O  O90  1  0.46885368  0.99440194  0.36750819  1  0  -0.677208  0  2.018998  0  0  -0.608623  0  2.275328  0  0  -0.639052  0  2.265786  0  0  -0.333222  -0.587289  0  2.281219  0
O  O91  1  0.47454460  0.00531809  0.13237401  1  0  -0.675977  0  2.01834  0  0  -0.608053  0  2.274429  0  0  -0.638503  0  2.264928  0  0  -0.332916  -0.586728  0  2.280325  0
O  O92  1  0.53114664  0.00560101  0.63249153  1  0  -0.67712  0  2.019257  0  0  -0.608536  0  2.275571  0  0  -0.638963  0  2.266022  0  0  -0.333174  -0.587202  0  2.281456  0
O  O93  1  0.52545280  0.99468107  0.86762725  1  0  -0.676009  0  2.018228  0  0  -0.608096  0  2.274321  0  0  -0.638548  0  2.264819  0  0  -0.33292  -0.586762  0  2.280202  0
O  O94  1  0.59932612  0.29739258  0.15874902  1  0  -0.65042  0  1.923558  0  0  -0.598534  0  2.14403  0  0  -0.62427  0  2.134913  0  0  -0.337335  -0.580288  0  2.149171  0
O  O95  1  0.30153069  0.70236598  0.34123236  1  0  -0.64991  0  1.922037  0  0  -0.597726  0  2.143121  0  0  -0.623486  0  2.134057  0  0  -0.336749  -0.579482  0  2.148259  0
O  O96  1  0.40067743  0.70260250  0.84124944  1  0  -0.650507  0  1.9235  0  0  -0.598627  0  2.14396  0  0  -0.624362  0  2.134837  0  0  -0.337396  -0.580382  0  2.149105  0
O  O97  1  0.69846120  0.29763242  0.65875807  1  0  -0.649962  0  1.922059  0  0  -0.597806  0  2.143145  0  0  -0.623564  0  2.134077  0  0  -0.336794  -0.579562  0  2.148278  0
O  O98  1  0.53922655  0.31100205  0.80814912  1  0  -0.822486  0  1.822923  0  0  -0.766221  0  2.00247  0  0  -0.788076  0  1.973036  0  0  -0.580076  -0.75045  0  2.023647  0
O  O99  1  0.22797569  0.68900642  0.69185606  1  0  -0.822074  0  1.821439  0  0  -0.765547  0  2.001715  0  0  -0.787415  0  1.972167  0  0  -0.579757  -0.749775  0  2.022941  0
O  O100  1  0.46077307  0.68899540  0.19184615  1  0  -0.822402  0  1.823004  0  0  -0.766128  0  2.002566  0  0  -0.787985  0  1.973128  0  0  -0.579999  -0.750355  0  2.023743  0
O  O101  1  0.77202949  0.31098987  0.30814117  1  0  -0.822229  0  1.821345  0  0  -0.765598  0  2.001739  0  0  -0.787465  0  1.97219  0  0  -0.579821  -0.749825  0  2.022963  0
