# generated using pymatgen
data_Co2H28C38N2O11
_symmetry_space_group_name_H-M   'P 1'
_cell_length_a   9.96342922
_cell_length_b   11.17864541
_cell_length_c   21.99760689
_cell_angle_alpha   93.73867175
_cell_angle_beta   90.01294650
_cell_angle_gamma   116.47991125
_symmetry_Int_Tables_number   1
_chemical_formula_structural   Co2H28C38N2O11
_chemical_formula_sum   'Co4 H56 C76 N4 O22'
_cell_volume   2187.16471243
_cell_formula_units_Z   2
loop_
 _symmetry_equiv_pos_site_id
 _symmetry_equiv_pos_as_xyz
  1  'x, y, z'
loop_
 _atom_site_type_symbol
 _atom_site_label
 _atom_site_symmetry_multiplicity
 _atom_site_fract_x
 _atom_site_fract_y
 _atom_site_fract_z
 _atom_site_occupancy
 _atom_site_pbe_bader_charge
 _atom_site_pbe_bader_spin_density
 _atom_site_pbe_cm5_charge
 _atom_site_pbe_ddec_charge
 _atom_site_pbe_ddec_spin_density
 _atom_site_pbe_ddec_sum_bond_order
 _atom_site_pbe_magmom
Co  Co0  1  0.73551391  0.01402358  0.82938777  1  1.301659  2.622433  0.652846  0.980272  2.830206  2.35148  2.604
Co  Co1  1  0.72177014  0.98610691  0.67041532  1  1.303323  2.622663  0.653265  0.980901  2.830126  2.351163  2.604
Co  Co2  1  0.26448382  0.98598465  0.17061271  1  1.301875  2.622423  0.652905  0.980394  2.830189  2.351335  2.604
Co  Co3  1  0.27823200  0.01389408  0.32957678  1  1.30353  2.622634  0.653213  0.980849  2.830126  2.351292  2.604
H  H4  1  0.91083673  0.09280845  0.94072483  1  0.60455  -4.2e-05  0.318944  0.391862  -0.000206  0.892572  0.0
H  H5  1  0.81876442  0.90734840  0.55936050  1  0.599394  -3.7e-05  0.318875  0.39121  -0.000204  0.893539  0.0
H  H6  1  0.08914486  0.90717753  0.05926777  1  0.604545  -4.2e-05  0.318887  0.391783  -0.000205  0.892557  0.0
H  H7  1  0.18125085  0.09264472  0.44063684  1  0.59935  -3.7e-05  0.318854  0.391193  -0.000204  0.893677  0.0
H  H8  1  0.97812522  0.07949395  0.87796964  1  0.648919  -0.000477  0.304724  0.39124  -0.000548  0.929404  0.0
H  H9  1  0.89946641  0.92139991  0.62217387  1  0.624165  -0.000501  0.30459  0.390805  -0.000554  0.930128  0.0
H  H10  1  0.02185588  0.92048302  0.12202317  1  0.648717  -0.000477  0.304803  0.391274  -0.000548  0.929383  0.0
H  H11  1  0.10056090  0.07862329  0.37782521  1  0.624054  -0.000501  0.304583  0.390814  -0.000554  0.930118  0.0
H  H12  1  0.58942961  0.07949145  0.73699437  1  0.653111  0.000552  0.289716  0.385712  0.00059  0.958717  0.001
H  H13  1  0.50992656  0.92023388  0.76273154  1  0.650656  0.000547  0.290085  0.386298  0.000591  0.957867  0.001
H  H14  1  0.41055258  0.92050978  0.26300683  1  0.65308  0.000553  0.289689  0.38572  0.000591  0.958741  0.001
H  H15  1  0.49006914  0.07977229  0.23726707  1  0.650571  0.000546  0.290056  0.386255  0.000591  0.957921  0.001
H  H16  1  0.75590404  0.64088391  0.83296345  1  0.080268  0.000261  0.107908  0.115993  8.5e-05  1.003802  0.0
H  H17  1  0.11493160  0.35950392  0.66707022  1  0.077888  0.000264  0.108143  0.115957  8.5e-05  1.004198  0.0
H  H18  1  0.24410830  0.35913547  0.16704189  1  0.080708  0.000261  0.107908  0.116031  8.5e-05  1.003739  0.0
H  H19  1  0.88507513  0.64048817  0.33292619  1  0.077886  0.000264  0.108157  0.11597  8.5e-05  1.00424  0.0
H  H20  1  0.01316350  0.44810886  0.75410621  1  0.084219  -6.8e-05  0.099851  0.092662  -0.000143  1.051611  0.0
H  H21  1  0.56491494  0.55229580  0.74612268  1  0.08892  -6.7e-05  0.099709  0.092265  -0.000143  1.052222  0.0
H  H22  1  0.98685005  0.55189485  0.24591188  1  0.084379  -6.8e-05  0.099788  0.092593  -0.000143  1.051505  0.0
H  H23  1  0.43509174  0.44769821  0.25387060  1  0.089154  -6.7e-05  0.099701  0.092233  -0.000143  1.052168  0.0
H  H24  1  0.11343478  0.62064513  0.67949083  1  0.078441  0.0001  0.101953  0.100691  1.3e-05  0.998526  0.0
H  H25  1  0.49266612  0.37947059  0.82056252  1  0.079967  0.000101  0.101904  0.100689  1.3e-05  0.998715  0.0
H  H26  1  0.88658268  0.37933830  0.32051807  1  0.078452  0.0001  0.101972  0.100721  1.3e-05  0.998553  0.0
H  H27  1  0.50733960  0.62053354  0.17943467  1  0.080019  0.000101  0.101887  0.100722  1.3e-05  0.998526  0.0
H  H28  1  0.02342206  0.79653151  0.67795815  1  0.068507  0.000259  0.104347  0.103916  7.6e-05  0.997531  0.0
H  H29  1  0.22680869  0.20325580  0.82188611  1  0.069979  0.000258  0.104763  0.104249  7.7e-05  0.997687  0.0
H  H30  1  0.97659022  0.20344960  0.32203932  1  0.068328  0.000259  0.104381  0.103897  7.6e-05  0.997594  0.0
H  H31  1  0.77319510  0.79675451  0.17811716  1  0.069889  0.000258  0.104722  0.104188  7.7e-05  0.997713  0.0
H  H32  1  0.79956403  0.26823884  0.77680016  1  0.128204  0.001864  0.120324  0.096248  0.000664  1.041893  0.001
H  H33  1  0.53225567  0.73217756  0.72309997  1  0.144019  0.001856  0.120166  0.096147  0.000666  1.042685  0.001
H  H34  1  0.20042168  0.73176944  0.22320215  1  0.12799  0.001864  0.120297  0.096157  0.000663  1.042006  0.001
H  H35  1  0.46775806  0.26781851  0.27689519  1  0.143781  0.001857  0.120165  0.096157  0.000667  1.042681  0.001
H  H36  1  0.69737740  0.14243768  0.95092230  1  0.095034  0.001318  0.11856  0.090087  5.3e-05  1.008175  0.001
H  H37  1  0.55485956  0.85717663  0.54883288  1  0.098027  0.001315  0.118627  0.09052  5.5e-05  1.007904  0.001
H  H38  1  0.30261186  0.85755360  0.04908090  1  0.095142  0.001318  0.118568  0.09011  5.3e-05  1.008141  0.001
H  H39  1  0.44512258  0.14283653  0.45116547  1  0.098583  0.001315  0.118598  0.09055  5.6e-05  1.008038  0.001
H  H40  1  0.82175623  0.55663071  0.92073693  1  0.084704  -0.000227  0.111672  0.116314  -0.000344  0.991841  0.0
H  H41  1  0.26418372  0.44346731  0.57953995  1  0.085442  -0.000224  0.111969  0.116963  -0.000344  0.991066  0.0
H  H42  1  0.17822908  0.44336271  0.07927134  1  0.084806  -0.000227  0.111684  0.11634  -0.000344  0.991688  0.0
H  H43  1  0.73581947  0.55653176  0.42045528  1  0.085039  -0.000225  0.111937  0.116965  -0.000344  0.991162  0.0
H  H44  1  0.91639602  0.58785091  0.01276299  1  0.073386  -0.000103  0.096129  0.090779  -0.000131  1.025869  0.0
H  H45  1  0.32772172  0.41186693  0.48736978  1  0.052615  -0.000103  0.096074  0.091028  -0.000131  1.02509  0.0
H  H46  1  0.08359878  0.41214742  0.98724177  1  0.073719  -0.000103  0.096132  0.090783  -0.000131  1.025867  0.0
H  H47  1  0.67228147  0.58814617  0.51262583  1  0.054576  -0.000103  0.0961  0.091  -0.000131  1.025035  0.0
H  H48  1  0.91304850  0.63196532  0.12452875  1  0.075523  0.000106  0.095316  0.092935  -9.9e-05  1.030519  0.0
H  H49  1  0.28176816  0.36805404  0.37548462  1  0.072546  0.000104  0.09525  0.092912  -0.000101  1.030275  0.0
H  H50  1  0.08695633  0.36803702  0.87547612  1  0.075594  0.000106  0.095294  0.092874  -9.9e-05  1.030442  0.0
H  H51  1  0.71823805  0.63195307  0.62451174  1  0.072485  0.000104  0.09527  0.092959  -0.000101  1.030338  0.0
H  H52  1  0.75409565  0.44539844  0.18825776  1  0.083646  2.4e-05  0.100385  0.097628  -8e-06  1.049859  0.0
H  H53  1  0.30997041  0.55469030  0.31176367  1  0.084534  2.4e-05  0.100719  0.098226  -9e-06  1.047908  0.0
H  H54  1  0.24591065  0.55459681  0.81174419  1  0.083785  2.4e-05  0.100389  0.097617  -8e-06  1.049837  0.0
H  H55  1  0.69002282  0.44531493  0.68823719  1  0.084532  2.4e-05  0.100657  0.098123  -9e-06  1.048027  0.0
H  H56  1  0.57723339  0.18110803  0.02769463  1  0.091021  0.000282  0.103608  0.109595  0.000114  1.013007  0.0
H  H57  1  0.39537257  0.81846969  0.47241697  1  0.089553  0.000281  0.103674  0.109627  0.000115  1.013136  0.0
H  H58  1  0.42277592  0.81888121  0.97230715  1  0.091008  0.000282  0.103604  0.109627  0.000114  1.01305  0.0
H  H59  1  0.60459410  0.18153462  0.52758704  1  0.089164  0.000282  0.103711  0.109615  0.000115  1.013349  0.0
C  C60  1  0.81980133  0.82553246  0.75240127  1  1.551129  -0.001201  0.215181  0.588825  -0.002245  4.179498  -0.001
C  C61  1  0.99419281  0.17465731  0.74750492  1  1.577408  -0.001188  0.214624  0.587529  -0.002252  4.181017  -0.001
C  C62  1  0.18021387  0.17447056  0.24759180  1  1.550685  -0.001205  0.215279  0.588958  -0.00225  4.179536  -0.001
C  C63  1  0.00580434  0.82534575  0.25248997  1  1.577813  -0.001193  0.214633  0.587469  -0.002253  4.181154  -0.001
C  C64  1  0.88301742  0.72706268  0.75508730  1  -0.007195  0.008808  -0.019755  -0.037117  0.004631  3.984687  0.007
C  C65  1  0.15588679  0.27309225  0.74486582  1  -0.044569  0.008808  -0.020012  -0.036815  0.004623  3.986679  0.007
C  C66  1  0.11699033  0.27293346  0.24491058  1  -0.007532  0.008807  -0.019677  -0.037018  0.00463  3.984709  0.007
C  C67  1  0.84412096  0.72691192  0.25513273  1  -0.044209  0.008807  -0.019992  -0.036653  0.004622  3.986739  0.007
C  C68  1  0.83361750  0.63402904  0.79960198  1  -0.025649  -0.00018  -0.08036  -0.14301  -0.00057  3.932229  0.0
C  C69  1  0.19947066  0.36632296  0.70044898  1  -0.08125  -0.000185  -0.080113  -0.141967  -0.00058  3.931612  0.0
C  C70  1  0.16638782  0.36598031  0.20040263  1  -0.025433  -0.000181  -0.080425  -0.143141  -0.000572  3.932082  0.0
C  C71  1  0.80053505  0.63367914  0.29954724  1  -0.080868  -0.000185  -0.080097  -0.141992  -0.000581  3.931866  0.0
C  C72  1  0.87728672  0.53110884  0.79900201  1  -0.053532  0.001045  -0.006791  0.063689  0.000522  4.010595  0.001
C  C73  1  0.34609580  0.46932624  0.70115694  1  0.023154  0.001033  -0.006727  0.062869  0.000519  4.011866  0.001
C  C74  1  0.12271262  0.46890057  0.20100533  1  -0.053478  0.001045  -0.006715  0.063826  0.000522  4.010637  0.001
C  C75  1  0.65391795  0.53066786  0.29883952  1  0.023082  0.001033  -0.006714  0.062933  0.000519  4.011967  0.001
C  C76  1  0.97713566  0.52685316  0.75472640  1  -0.065776  -0.001652  -0.078572  -0.110121  -0.001822  3.942272  -0.001
C  C77  1  0.45015694  0.47350841  0.74545058  1  -0.084507  -0.00166  -0.078251  -0.109543  -0.001831  3.944606  -0.001
C  C78  1  0.02286623  0.47314531  0.24528336  1  -0.06595  -0.001653  -0.078401  -0.109872  -0.001823  3.941709  -0.001
C  C79  1  0.54985030  0.52648672  0.25454682  1  -0.084559  -0.001661  -0.078287  -0.109577  -0.001832  3.944436  -0.001
C  C80  1  0.03271556  0.62340273  0.71234558  1  -0.010601  0.000696  -0.083094  -0.060827  0.000298  3.997484  0.001
C  C81  1  0.40922429  0.37671160  0.78769390  1  -0.033955  0.000699  -0.08263  -0.059677  0.000299  3.997969  0.001
C  C82  1  0.96730135  0.37658362  0.28766021  1  -0.010586  0.000696  -0.083375  -0.061193  0.000299  3.997513  0.001
C  C83  1  0.59078850  0.62329261  0.21230603  1  -0.033841  0.000699  -0.082598  -0.059718  0.000299  3.997699  0.001
C  C84  1  0.98409951  0.72239235  0.71180694  1  -0.033642  -0.000416  -0.079079  -0.084858  -0.000785  3.960832  0.0
C  C85  1  0.26163878  0.27757928  0.78812454  1  0.004932  -0.000435  -0.079585  -0.086043  -0.000789  3.962317  0.0
C  C86  1  0.01591282  0.27759487  0.28819433  1  -0.033528  -0.000416  -0.079027  -0.08471  -0.000785  3.961095  0.0
C  C87  1  0.73837052  0.72243000  0.21187779  1  0.004311  -0.000435  -0.079535  -0.086025  -0.00079  3.962346  0.0
C  C88  1  0.82064936  0.42748921  0.84331411  1  0.061729  0.00569  0.002509  0.042845  0.002635  4.009615  0.005
C  C89  1  0.39320457  0.57281599  0.65679848  1  0.007578  0.005725  0.002157  0.042005  0.002636  4.011259  0.005
C  C90  1  0.17934344  0.57251317  0.15669212  1  0.06121  0.005689  0.002498  0.042602  0.002635  4.009782  0.005
C  C91  1  0.60680813  0.42718605  0.34319547  1  0.007314  0.005724  0.002018  0.041982  0.002636  4.011069  0.005
C  C92  1  0.79063467  0.29570834  0.82446249  1  0.451293  -0.008616  0.046159  0.043395  -0.009203  3.894145  -0.005
C  C93  1  0.49544202  0.70457411  0.67548015  1  0.494666  -0.008665  0.046749  0.044287  -0.00925  3.893783  -0.005
C  C94  1  0.20935707  0.70429793  0.17553976  1  0.451787  -0.008613  0.046179  0.043479  -0.0092  3.894104  -0.005
C  C95  1  0.50456571  0.29542198  0.32451591  1  0.495171  -0.008664  0.046863  0.044317  -0.009247  3.893632  -0.005
C  C96  1  0.73065449  0.22565870  0.92174962  1  0.475895  -0.010047  0.040796  0.018254  -0.011338  3.941701  -0.006
C  C97  1  0.50473554  0.77426395  0.57816950  1  0.472901  -0.010074  0.04078  0.017233  -0.011373  3.940936  -0.006
C  C98  1  0.26933026  0.77433961  0.07825468  1  0.476577  -0.010046  0.040806  0.018198  -0.011336  3.941564  -0.006
C  C99  1  0.49525714  0.22574020  0.42182860  1  0.47215  -0.010069  0.040765  0.017139  -0.011368  3.94137  -0.006
C  C100  1  0.75589442  0.35388853  0.94541769  1  -0.03042  0.005495  -0.0033  0.036379  0.002555  4.017892  0.005
C  C101  1  0.40138230  0.64597657  0.55466023  1  -0.022903  0.005517  -0.002623  0.038148  0.00257  4.015927  0.005
C  C102  1  0.24409589  0.64610686  0.05458926  1  -0.030899  0.005495  -0.003271  0.036425  0.002556  4.017529  0.005
C  C103  1  0.59861385  0.35402650  0.44533465  1  -0.023794  0.005516  -0.002658  0.038018  0.002569  4.016251  0.005
C  C104  1  0.79977399  0.45504385  0.90454251  1  -0.027449  -0.014232  -0.066674  -0.137266  -0.015544  3.89915  -0.009
C  C105  1  0.34408935  0.54503529  0.59563740  1  -0.037685  -0.0143  -0.06703  -0.138429  -0.015613  3.89903  -0.009
C  C106  1  0.20021530  0.54495150  0.09546308  1  -0.027129  -0.014229  -0.066696  -0.137173  -0.015541  3.898951  -0.009
C  C107  1  0.65591985  0.45496377  0.40435738  1  -0.03658  -0.014293  -0.066926  -0.138438  -0.015607  3.899093  -0.009
C  C108  1  0.74805285  0.38120065  0.01159983  1  0.021383  -4.5e-05  -0.01597  0.054146  -0.000206  4.031415  0.0
C  C109  1  0.36642556  0.61854487  0.48847536  1  -0.019922  -3.6e-05  -0.015714  0.054097  -0.000201  4.032777  0.0
C  C110  1  0.25194846  0.61879667  0.98840445  1  0.021157  -4.5e-05  -0.015889  0.054107  -0.000206  4.031303  0.0
C  C111  1  0.63356261  0.38145628  0.51152265  1  -0.019604  -3.6e-05  -0.015652  0.054296  -0.0002  4.032533  0.0
C  C112  1  0.84060990  0.50852896  0.04006542  1  -0.114959  0.001618  -0.091802  -0.128682  0.0008  3.981414  0.001
C  C113  1  0.33180969  0.49126932  0.46000524  1  -0.035084  0.001599  -0.091735  -0.129172  0.000795  3.981971  0.001
C  C114  1  0.15938841  0.49146437  0.95993966  1  -0.115099  0.001618  -0.091812  -0.12864  0.000799  3.981423  0.001
C  C115  1  0.66818898  0.50873478  0.53999059  1  -0.037163  0.001598  -0.091818  -0.129252  0.000794  3.98185  0.001
C  C116  1  0.84102686  0.53279846  0.10303656  1  -0.030729  -2.4e-05  -0.096414  -0.084621  -0.000214  4.031728  0.0
C  C117  1  0.30848616  0.46712465  0.39700447  1  -0.082668  -1.3e-05  -0.096295  -0.084172  -0.000208  4.030599  0.0
C  C118  1  0.15897095  0.46719989  0.89696866  1  -0.030534  -2.4e-05  -0.096408  -0.0845  -0.000214  4.031473  0.0
C  C119  1  0.69151603  0.53288647  0.60299200  1  -0.074273  -1.3e-05  -0.096314  -0.084152  -0.000208  4.030309  0.0
C  C120  1  0.75261519  0.42948571  0.13890287  1  0.025459  0.002167  -0.080394  -0.085282  0.00112  3.953931  0.001
C  C121  1  0.32385046  0.57056538  0.36113683  1  -0.02949  0.002199  -0.080908  -0.085863  0.001114  3.952338  0.001
C  C122  1  0.24738711  0.57051358  0.86110055  1  0.025682  0.002167  -0.080411  -0.085332  0.00112  3.953804  0.001
C  C123  1  0.67613674  0.42943582  0.63886300  1  -0.037863  0.002199  -0.080843  -0.085947  0.001114  3.952064  0.001
C  C124  1  0.65904072  0.30240239  0.11136821  1  -0.100456  0.00473  -0.014835  -0.018261  0.00252  3.962372  0.003
C  C125  1  0.35693760  0.69754209  0.38869760  1  -0.033693  0.004691  -0.015035  -0.01898  0.002524  3.963293  0.003
C  C126  1  0.34096008  0.69759592  0.88863564  1  -0.100891  0.004731  -0.014858  -0.018197  0.00252  3.962353  0.003
C  C127  1  0.64304456  0.30245908  0.61130133  1  -0.033315  0.004691  -0.01512  -0.018841  0.002524  3.963468  0.003
C  C128  1  0.65489818  0.27970451  0.04801444  1  -0.052751  0.001738  -0.08477  -0.144783  0.000927  3.934702  0.001
C  C129  1  0.37499437  0.72006805  0.45205739  1  -0.02795  0.001735  -0.085074  -0.14461  0.000926  3.936744  0.001
C  C130  1  0.34510162  0.72028977  0.95198884  1  -0.052893  0.001737  -0.084772  -0.144848  0.000927  3.934912  0.001
C  C131  1  0.62498132  0.27993021  0.54794509  1  -0.027831  0.001734  -0.085067  -0.144671  0.000925  3.937066  0.001
C  C132  1  0.56334528  0.19125933  0.14992943  1  1.590489  0.00284  0.215203  0.58802  0.001869  4.162232  0.001
C  C133  1  0.37233388  0.80887271  0.35026541  1  1.567703  0.002834  0.21604  0.588945  0.001853  4.162229  0.001
C  C134  1  0.43665096  0.80873789  0.85007121  1  1.590555  0.002839  0.215159  0.587907  0.001869  4.162262  0.001
C  C135  1  0.62765930  0.19113644  0.64973237  1  1.568144  0.002829  0.216093  0.588939  0.001852  4.162557  0.001
N  N136  1  0.74734294  0.19720473  0.86272948  1  -1.245323  0.057059  -0.335342  -0.260395  0.030556  3.655969  0.048
N  N137  1  0.55040280  0.80293203  0.63713023  1  -1.250106  0.057134  -0.336075  -0.260928  0.030577  3.656715  0.047
N  N138  1  0.25264477  0.80279951  0.13727181  1  -1.246006  0.057056  -0.335423  -0.260402  0.030554  3.65611  0.048
N  N139  1  0.44959993  0.19707214  0.36286833  1  -1.250216  0.05714  -0.336055  -0.260821  0.030576  3.656668  0.047
O  O140  1  0.75010807  0.84115509  0.79812370  1  -1.160207  0.056315  -0.311558  -0.549157  0.029054  2.333282  0.048
O  O141  1  0.90894750  0.15897261  0.70173245  1  -1.166118  0.056587  -0.31138  -0.548546  0.029185  2.335364  0.048
O  O142  1  0.24990660  0.15885490  0.20186820  1  -1.160378  0.056322  -0.311535  -0.549176  0.029057  2.333594  0.048
O  O143  1  0.09105565  0.84103041  0.29826062  1  -1.166335  0.056594  -0.311329  -0.548513  0.029187  2.33536  0.048
O  O144  1  0.83507236  0.88296896  0.70249701  1  -1.18384  0.058693  -0.319026  -0.604762  0.030409  2.413808  0.049
O  O145  1  0.95191896  0.11727082  0.79741183  1  -1.188154  0.058782  -0.318646  -0.603733  0.030437  2.412942  0.049
O  O146  1  0.16493484  0.11703008  0.29749731  1  -1.183509  0.0587  -0.319103  -0.604904  0.030413  2.413642  0.049
O  O147  1  0.04807672  0.88273529  0.20258451  1  -1.188506  0.058792  -0.318713  -0.603769  0.030438  2.413016  0.049
O  O148  1  0.44670491  0.09431337  0.12340207  1  -1.16372  0.086223  -0.330269  -0.577718  0.043667  2.303954  0.071
O  O149  1  0.35231164  0.90558223  0.37681621  1  -1.146641  0.085945  -0.330186  -0.577887  0.043589  2.303029  0.071
O  O150  1  0.55329435  0.90568788  0.87659959  1  -1.163651  0.08623  -0.330202  -0.577647  0.043668  2.303879  0.071
O  O151  1  0.64768558  0.09442898  0.62318345  1  -1.147098  0.085944  -0.330168  -0.577863  0.043588  2.303115  0.071
O  O152  1  0.60293220  0.19963758  0.20538406  1  -1.169811  0.014919  -0.306859  -0.524927  0.006839  2.172263  0.013
O  O153  1  0.40388804  0.80085550  0.29483905  1  -1.166551  0.014848  -0.307704  -0.525573  0.006805  2.17212  0.013
O  O154  1  0.39706558  0.80035666  0.79461786  1  -1.169919  0.014918  -0.306852  -0.524885  0.006838  2.172322  0.013
O  O155  1  0.59610110  0.19914558  0.70515669  1  -1.166436  0.014846  -0.307785  -0.525638  0.006803  2.172311  0.013
O  O156  1  0.90002955  0.02917828  0.90646132  1  -1.216359  0.043079  -0.562412  -0.728488  0.022033  2.002353  0.034
O  O157  1  0.87144949  0.97132526  0.59354894  1  -1.186254  0.04328  -0.56204  -0.726936  0.022097  2.004611  0.034
O  O158  1  0.09995417  0.97080191  0.09353930  1  -1.216193  0.043078  -0.562433  -0.728436  0.022031  2.002427  0.034
O  O159  1  0.12855077  0.02867798  0.40645232  1  -1.186107  0.043268  -0.56208  -0.726975  0.022093  2.004619  0.034
O  O160  1  0.60726495  0.99989766  0.74986893  1  -1.268173  0.117679  -0.559234  -0.825218  0.062477  2.402217  0.099
O  O161  1  0.39272339  0.00009649  0.25012864  1  -1.268024  0.11769  -0.559189  -0.82522  0.062485  2.402357  0.099
