# generated using pymatgen
data_CoH4C12(NO2)4
_symmetry_space_group_name_H-M   'P 1'
_cell_length_a   7.90795249
_cell_length_b   7.91293975
_cell_length_c   12.77972484
_cell_angle_alpha   90.86136836
_cell_angle_beta   108.04746241
_cell_angle_gamma   118.34076457
_symmetry_Int_Tables_number   1
_chemical_formula_structural   CoH4C12(NO2)4
_chemical_formula_sum   'Co2 H8 C24 N8 O16'
_cell_volume   656.53758566
_cell_formula_units_Z   2
loop_
 _symmetry_equiv_pos_site_id
 _symmetry_equiv_pos_as_xyz
  1  'x, y, z'
loop_
 _atom_site_type_symbol
 _atom_site_label
 _atom_site_symmetry_multiplicity
 _atom_site_fract_x
 _atom_site_fract_y
 _atom_site_fract_z
 _atom_site_occupancy
 _atom_site_hle17_ddec_charge
 _atom_site_hle17_ddec_spin_density
 _atom_site_hle17_ddec_sum_bond_order
 _atom_site_hle17_magmom
 _atom_site_hse06_10hf_ddec_charge
 _atom_site_hse06_10hf_ddec_spin_density
 _atom_site_hse06_10hf_ddec_sum_bond_order
 _atom_site_hse06_10hf_magmom
 _atom_site_hse06_ddec_charge
 _atom_site_hse06_ddec_spin_density
 _atom_site_hse06_ddec_sum_bond_order
 _atom_site_hse06_magmom
 _atom_site_pbe_cm5_charge
 _atom_site_pbe_ddec_charge
 _atom_site_pbe_ddec_spin_density
 _atom_site_pbe_ddec_sum_bond_order
 _atom_site_pbe_magmom
Co  Co0  1  0.75163256  0.50136119  0.24999292  1  0.954599  1.444198  2.76471  1.114  1.002235  1.066783  3.181634  0.853  1.100131  1.395494  3.132198  1.136  0.851586  0.941081  0.889224  3.214209  0.695
Co  Co1  1  0.24840625  0.49868140  0.75000778  1  0.954311  -1.444683  2.764063  -1.115  1.00196  -1.067147  3.180937  -0.854  1.099897  -1.396023  3.1314  -1.137  0.851278  0.940768  -0.889626  3.21348  -0.695
H  H2  1  0.06082622  0.47475799  0.13856143  1  0.114903  -0.000364  0.960214  -0.001  0.111495  0.000232  1.0335  0.0  0.116032  -0.000331  1.029003  -0.001  0.127354  0.109241  0.000773  1.036401  0.001
H  H3  1  0.83571085  0.92197923  0.36155965  1  0.115109  -0.000351  0.961218  -0.001  0.111645  0.000225  1.034206  0.0  0.116145  -0.000332  1.029773  -0.001  0.127652  0.109387  0.000755  1.037105  0.001
H  H4  1  0.93919395  0.52525528  0.86143827  1  0.114846  0.000371  0.960286  0.001  0.111507  -0.00023  1.033497  0.0  0.116001  0.000333  1.029054  0.001  0.127396  0.109245  -0.000771  1.036394  -0.001
H  H5  1  0.16428365  0.07802587  0.63842709  1  0.114996  0.000357  0.961162  0.001  0.111648  -0.000224  1.034013  0.0  0.116152  0.000333  1.029585  0.001  0.127637  0.109382  -0.000754  1.036913  -0.001
H  H6  1  0.40103701  0.54691957  0.28131067  1  0.131953  -0.000657  0.926378  -0.001  0.13514  -0.000503  0.987624  -0.001  0.13974  -0.000712  0.983197  -0.001  0.140598  0.132265  -0.000409  0.990647  -0.001
H  H7  1  0.76491396  0.11910845  0.21867388  1  0.132428  -0.00062  0.92509  -0.001  0.135402  -0.000479  0.987027  -0.001  0.139994  -0.000693  0.982647  -0.001  0.140712  0.132552  -0.000392  0.990035  -0.001
H  H8  1  0.59897804  0.45309658  0.71869278  1  0.131818  0.000664  0.926457  0.001  0.135064  0.000504  0.987652  0.001  0.139664  0.000712  0.983222  0.001  0.14055  0.132181  0.00041  0.990675  0.001
H  H9  1  0.23506351  0.88088496  0.78131404  1  0.132456  0.000632  0.924911  0.001  0.135443  0.000479  0.986822  0.001  0.140043  0.000693  0.982422  0.001  0.140713  0.132588  0.000392  0.989833  0.001
C  C10  1  0.15517536  0.42686251  0.11563499  1  0.145715  -0.001387  3.563043  -0.002  0.119154  -0.000232  3.829142  0.0  0.125066  -0.002368  3.833494  -0.003  0.09366  0.113415  0.001013  3.826311  0.001
C  C11  1  0.81074659  0.03922370  0.38441509  1  0.145226  -0.001326  3.563616  -0.002  0.11948  -0.000257  3.829043  -0.001  0.125347  -0.002346  3.83368  -0.003  0.094244  0.11373  0.000943  3.826045  0.001
C  C12  1  0.84482697  0.57313761  0.88436570  1  0.145723  0.001375  3.562954  0.002  0.119097  0.000236  3.829091  0.0  0.125037  0.002372  3.833466  0.003  0.093652  0.113358  -0.001007  3.826266  -0.001
C  C13  1  0.18925119  0.96076793  0.61557597  1  0.145292  0.001302  3.563662  0.002  0.119513  0.00026  3.829003  0.001  0.125374  0.002346  3.83363  0.003  0.094335  0.113766  -0.000939  3.826015  -0.001
C  C14  1  0.34436647  0.46781981  0.19637940  1  0.135768  -0.003498  3.515087  -0.005  0.104858  -0.001336  3.768571  -0.002  0.116094  -0.001095  3.774162  -0.002  0.090453  0.097206  -0.000517  3.765462  0.0
C  C15  1  0.77082752  0.14752123  0.30363103  1  0.136493  -0.003718  3.51353  -0.005  0.104629  -0.001429  3.768071  -0.002  0.115711  -0.001124  3.7739  -0.002  0.090379  0.097104  -0.000654  3.764785  -0.001
C  C16  1  0.65562988  0.53217904  0.80361698  1  0.136085  0.003495  3.514923  0.005  0.105178  0.001339  3.768389  0.002  0.116421  0.001099  3.773967  0.002  0.090602  0.097516  0.000523  3.765275  0.0
C  C17  1  0.22916802  0.85246880  0.69636426  1  0.136597  0.003705  3.513503  0.005  0.104669  0.001433  3.76798  0.002  0.115765  0.001129  3.773802  0.002  0.090404  0.097123  0.00066  3.764711  0.001
C  C18  1  0.39310963  0.31504575  0.06137203  1  0.018294  -0.001301  3.723768  -0.001  0.014782  -0.00035  3.972475  0.0  0.013471  -0.000195  3.992128  0.0  0.118857  0.015738  -0.000248  3.960295  0.0
C  C19  1  0.75320280  0.33144860  0.43861465  1  0.018807  -0.001736  3.721985  -0.002  0.013726  -0.00055  3.971783  0.0  0.012464  -0.000366  3.991263  0.0  0.118965  0.014781  -0.00041  3.959582  0.0
C  C20  1  0.60688145  0.68493850  0.93862072  1  0.018078  0.0013  3.724463  0.001  0.014477  0.000357  3.973175  0.0  0.013153  0.000201  3.992839  0.0  0.118693  0.015406  0.000257  3.961032  0.0
C  C21  1  0.24680656  0.66856451  0.56139312  1  0.0186  0.001754  3.722332  0.002  0.013768  0.000556  3.971963  0.0  0.012505  0.000372  3.991454  0.0  0.118903  0.01482  0.000417  3.959754  0.0
C  C22  1  0.20327225  0.27527085  0.98357909  1  0.080318  -0.005341  3.709955  -0.007  0.074111  -0.004054  3.969121  -0.006  0.073819  -0.003725  3.983526  -0.005  0.145693  0.073172  -0.005119  3.959337  -0.007
C  C23  1  0.79123904  0.21949644  0.51641301  1  0.082136  -0.005475  3.706038  -0.007  0.076251  -0.004234  3.965403  -0.006  0.075989  -0.003791  3.979786  -0.005  0.146469  0.075262  -0.00536  3.955582  -0.007
C  C24  1  0.79671278  0.72472199  0.01642360  1  0.080145  0.005361  3.709343  0.007  0.07401  0.004069  3.968308  0.006  0.07372  0.003733  3.98272  0.005  0.145579  0.073069  0.005137  3.958547  0.007
C  C25  1  0.20876473  0.78049645  0.48358236  1  0.082228  0.005487  3.705683  0.007  0.075999  0.004249  3.965262  0.006  0.075726  0.003798  3.979653  0.005  0.146396  0.075013  0.005377  3.955459  0.007
C  C26  1  0.12438881  0.16090100  0.86630010  1  0.63264  -0.005563  3.860658  -0.008  0.591221  -0.002434  4.169245  -0.003  0.629368  -0.003975  4.156051  -0.006  0.236458  0.565094  -0.002123  4.175592  -0.002
C  C27  1  0.79437295  0.25809981  0.63378229  1  0.634049  -0.005434  3.85511  -0.008  0.592301  -0.002443  4.163964  -0.003  0.630385  -0.003971  4.151101  -0.006  0.237865  0.566275  -0.002223  4.170169  -0.002
C  C28  1  0.87563622  0.83913370  0.13371970  1  0.632629  0.005536  3.860725  0.008  0.591446  0.002434  4.168931  0.003  0.629587  0.003968  4.15574  0.006  0.23653  0.56533  0.002123  4.175295  0.002
C  C29  1  0.20560887  0.74188931  0.36620015  1  0.633692  0.005422  3.855556  0.008  0.592412  0.002444  4.16384  0.003  0.630511  0.003965  4.150964  0.006  0.237777  0.56636  0.002223  4.170121  0.002
C  C30  1  0.54347837  0.27288470  0.03758300  1  0.588832  -0.005053  3.88508  -0.007  0.54273  -0.002668  4.192836  -0.005  0.577457  -0.002406  4.187818  -0.004  0.222226  0.519486  -0.001599  4.19911  -0.004
C  C31  1  0.73503453  0.50566273  0.46236820  1  0.588241  -0.005032  3.883178  -0.007  0.543464  -0.002661  4.18983  -0.005  0.578212  -0.002416  4.184726  -0.004  0.221568  0.520167  -0.001559  4.196235  -0.004
C  C32  1  0.45655888  0.72711352  0.96241976  1  0.588815  0.005074  3.885003  0.007  0.542865  0.002672  4.192505  0.005  0.577591  0.002407  4.187506  0.004  0.222254  0.519626  0.001601  4.198766  0.004
C  C33  1  0.26496466  0.49436833  0.53763555  1  0.588527  0.005026  3.883004  0.007  0.543463  0.002662  4.190008  0.005  0.578191  0.002414  4.184942  0.004  0.221601  0.520172  0.001558  4.196395  0.004
N  N34  1  0.46002574  0.41171273  0.16657544  1  -0.209154  -0.014477  3.37176  -0.02  -0.178409  -0.01093  3.650701  -0.016  -0.195952  -0.021379  3.670431  -0.034  -0.294054  -0.167441  -0.007208  3.637771  -0.01
N  N35  1  0.74459475  0.29296671  0.33339059  1  -0.210248  -0.013883  3.372792  -0.019  -0.178307  -0.010765  3.651652  -0.016  -0.195843  -0.021246  3.67146  -0.034  -0.294384  -0.16734  -0.007096  3.638625  -0.01
N  N36  1  0.53997666  0.58827278  0.83342032  1  -0.209107  0.014435  3.372074  0.02  -0.178404  0.010927  3.651108  0.016  -0.195952  0.021379  3.67083  0.034  -0.294146  -0.16742  0.007213  3.638168  0.01
N  N37  1  0.25540216  0.70703329  0.66661531  1  -0.210291  0.013827  3.373389  0.019  -0.1782  0.010759  3.65199  0.016  -0.195745  0.021239  3.671781  0.034  -0.294375  -0.167234  0.007098  3.638968  0.01
N  N38  1  0.08659217  0.33358432  0.01096696  1  -0.20912  -0.006715  2.992834  -0.008  -0.195057  -0.000787  3.266154  -0.001  -0.199152  -0.001371  3.274219  -0.002  -0.265934  -0.186578  0.002082  3.257398  0.003
N  N39  1  0.82223664  0.07555604  0.48909859  1  -0.210455  -0.006755  2.993978  -0.009  -0.196158  -0.00095  3.266868  -0.001  -0.200493  -0.001405  3.275178  -0.002  -0.266524  -0.187305  0.001368  3.257815  0.002
N  N40  1  0.91341340  0.66640702  0.98903030  1  -0.209063  0.006735  2.992401  0.008  -0.195037  0.000804  3.265705  0.001  -0.199133  0.001379  3.273762  0.002  -0.265836  -0.186563  -0.002046  3.256967  -0.003
N  N41  1  0.17776763  0.92445739  0.51090115  1  -0.210472  0.006779  2.993827  0.009  -0.196164  0.000966  3.266865  0.001  -0.200498  0.001412  3.275183  0.002  -0.266558  -0.187318  -0.001339  3.257826  -0.002
O  O42  1  0.72035855  0.35051252  0.12428624  1  -0.481375  0.040456  2.058126  0.055  -0.456892  0.044565  2.329032  0.065  -0.495317  0.019537  2.325129  0.025  -0.260211  -0.440213  0.048099  2.337253  0.068
O  O43  1  0.72647198  0.59596605  0.37568472  1  -0.480175  0.040089  2.055974  0.055  -0.456419  0.044321  2.326998  0.064  -0.494734  0.019281  2.322948  0.024  -0.259958  -0.439897  0.047676  2.335378  0.067
O  O44  1  0.27961634  0.64949831  0.87571166  1  -0.481186  -0.040485  2.057038  -0.055  -0.456817  -0.044582  2.327937  -0.065  -0.49528  -0.019503  2.32404  -0.025  -0.260101  -0.440142  -0.048117  2.336178  -0.068
O  O45  1  0.27353051  0.40402217  0.62431815  1  -0.480172  -0.040091  2.055129  -0.055  -0.456421  -0.044327  2.326376  -0.064  -0.494771  -0.019244  2.322357  -0.024  -0.259966  -0.439883  -0.047687  2.334732  -0.067
O  O46  1  0.51309785  0.18204108  0.94896760  1  -0.443013  -0.00762  1.891228  -0.011  -0.415358  0.004656  2.100143  0.007  -0.438493  -0.00155  2.096497  -0.003  -0.248849  -0.4023  0.006336  2.103764  0.009
O  O47  1  0.73239875  0.56383017  0.55088932  1  -0.44275  -0.007649  1.890761  -0.012  -0.415486  0.004617  2.099214  0.007  -0.438583  -0.001569  2.095535  -0.003  -0.248272  -0.402534  0.006118  2.102949  0.009
O  O48  1  0.48690005  0.81795070  0.05101879  1  -0.442956  0.007574  1.891565  0.011  -0.41532  -0.004662  2.100367  -0.007  -0.438466  0.001551  2.096732  0.003  -0.248797  -0.402274  -0.006338  2.103995  -0.009
O  O49  1  0.26759429  0.43616786  0.44913223  1  -0.442822  0.007653  1.891432  0.012  -0.415418  -0.004614  2.099931  -0.007  -0.438517  0.001578  2.096263  0.003  -0.248213  -0.402481  -0.00611  2.103674  -0.009
O  O50  1  0.19046716  0.25370245  0.79112234  1  -0.518916  0.011449  2.116881  0.023  -0.503623  -0.007607  2.393984  -0.007  -0.538253  0.013075  2.385296  0.028  -0.279336  -0.480095  -0.01545  2.398907  -0.02
O  O51  1  0.96232005  0.40038441  0.70838532  1  -0.519891  0.008476  2.116322  0.018  -0.503705  -0.009916  2.393028  -0.011  -0.539181  0.011523  2.384926  0.026  -0.279174  -0.480071  -0.017869  2.397826  -0.023
O  O52  1  0.80955487  0.74628513  0.20889371  1  -0.519016  -0.011326  2.117112  -0.022  -0.50378  0.007687  2.394076  0.007  -0.538408  -0.012958  2.385383  -0.028  -0.279444  -0.480262  0.015524  2.39903  0.02
O  O53  1  0.03762570  0.59958521  0.29161637  1  -0.519631  -0.008294  2.116913  -0.018  -0.503801  0.010038  2.393751  0.011  -0.539312  -0.011361  2.385671  -0.025  -0.279221  -0.480167  0.017973  2.398593  0.024
O  O54  1  0.00907804  0.98264521  0.84790279  1  -0.464744  0.025424  1.866699  0.038  -0.446368  0.006023  2.075927  0.01  -0.47443  0.013941  2.072232  0.023  -0.253684  -0.420854  -0.003409  2.07446  -0.004
O  O55  1  0.63503828  0.16067647  0.65261922  1  -0.465678  0.024504  1.866568  0.037  -0.446937  0.005845  2.075862  0.009  -0.475043  0.013586  2.072295  0.022  -0.254269  -0.421334  -0.002704  2.07426  -0.003
O  O56  1  0.99091801  0.01735066  0.15209426  1  -0.464574  -0.025249  1.867503  -0.038  -0.446231  -0.005971  2.076602  -0.009  -0.47428  -0.013874  2.072907  -0.022  -0.253583  -0.420741  0.003456  2.075154  0.004
O  O57  1  0.36495076  0.83930902  0.34738099  1  -0.465541  -0.024376  1.866995  -0.037  -0.446833  -0.005798  2.076  -0.009  -0.474925  -0.013523  2.072417  -0.022  -0.254149  -0.421236  0.002754  2.074427  0.004
