# generated using pymatgen
data_AlH24C45(O2F)3
_symmetry_space_group_name_H-M   'P 1'
_cell_length_a   3.95953788
_cell_length_b   23.59297524
_cell_length_c   23.60909962
_cell_angle_alpha   60.00606962
_cell_angle_beta   87.81774380
_cell_angle_gamma   87.73155187
_symmetry_Int_Tables_number   1
_chemical_formula_structural   AlH24C45(O2F)3
_chemical_formula_sum   'Al1 H24 C45 O6 F3'
_cell_volume   1908.21070851
_cell_formula_units_Z   1
loop_
 _symmetry_equiv_pos_site_id
 _symmetry_equiv_pos_as_xyz
  1  'x, y, z'
loop_
 _atom_site_type_symbol
 _atom_site_label
 _atom_site_symmetry_multiplicity
 _atom_site_fract_x
 _atom_site_fract_y
 _atom_site_fract_z
 _atom_site_occupancy
 _atom_site_pbe_bader_charge
 _atom_site_pbe_bader_spin_density
 _atom_site_pbe_cm5_charge
 _atom_site_pbe_ddec_charge
 _atom_site_pbe_ddec_spin_density
 _atom_site_pbe_ddec_sum_bond_order
 _atom_site_pbe_magmom
Al  Al0  1  0.02734590  0.49952784  0.50003679  1  2.504015  0  0.427119  1.59369  0  2.576349  0
H  H1  1  0.74226775  0.33032713  0.67952512  1  0.10618  0  0.114449  0.121176  0  0.974712  0
H  H2  1  0.72556964  0.26571644  0.79983157  1  0.046482  0  0.099851  0.100302  0  1.016597  0
H  H3  1  0.83302605  0.22718073  0.89418141  1  0.057603  0  0.100101  0.098124  0  1.014496  0
H  H4  1  0.83383693  0.16694315  0.01347898  1  0.033921  0  0.098442  0.097576  0  1.006018  0
H  H5  1  0.24837310  0.80418114  0.26709315  1  0.076743  0  0.107037  0.127251  0  1.008545  0
H  H6  1  0.24969140  0.89873968  0.22142107  1  0.047064  0  0.099875  0.09826  0  1.014545  0
H  H7  1  0.24816748  0.01742473  0.16348790  1  0.060069  0  0.098987  0.097742  0  1.009376  0
H  H8  1  0.52155510  0.10606874  0.10554419  1  0.021032  0  0.097453  0.093382  0  1.033952  0
H  H9  1  0.78067244  0.67866571  0.48319120  1  0.119792  0  0.114243  0.122152  0  0.977444  0
H  H10  1  0.77827907  0.79876264  0.42719198  1  0.053871  0  0.099686  0.101516  0  1.018139  0
H  H11  1  0.77629316  0.89456613  0.38038954  1  0.037786  0  0.1  0.097774  0  1.015209  0
H  H12  1  0.78545901  0.01340716  0.32066356  1  0.056971  0  0.098888  0.097743  0  1.007756  0
H  H13  1  0.32280149  0.26391325  0.43402983  1  0.078996  0  0.106972  0.127113  0  1.0085  0
H  H14  1  0.24305129  0.22630817  0.37940534  1  0.053905  0  0.100205  0.099374  0  1.01338  0
H  H15  1  0.23127418  0.16793424  0.31906804  1  0.087387  0  0.098996  0.098215  0  1.007087  0
H  H16  1  0.52179489  0.10652630  0.28746107  1  0.089544  0  0.097472  0.093672  0  1.033493  0
H  H17  1  0.81198985  0.48409891  0.33276433  1  0.111046  0  0.113977  0.120977  0  0.976379  0
H  H18  1  0.79851505  0.42867259  0.26809884  1  0.037014  0  0.09973  0.101436  0  1.016347  0
H  H19  1  0.84151925  0.37621641  0.22354155  1  0.060518  0  0.099634  0.097726  0  1.014819  0
H  H20  1  0.82776916  0.31714009  0.16358619  1  0.040104  0  0.098505  0.097398  0  1.008285  0
H  H21  1  0.29969178  0.43548500  0.80444287  1  0.063946  0  0.10719  0.127134  0  1.006005  0
H  H22  1  0.18788413  0.37684387  0.89860297  1  0.055184  0  0.099799  0.098814  0  1.012074  0
H  H23  1  0.19675018  0.31686471  0.01777755  1  0.046363  0  0.098355  0.097324  0  1.007903  0
H  H24  1  0.52150209  0.28832272  0.10511834  1  0.010827  0  0.097297  0.093501  0  1.031925  0
C  C25  1  0.51580465  0.45236211  0.60085859  1  1.616766  0  0.276781  0.673341  0  4.060145  0
C  C26  1  0.55036095  0.44601746  0.45261996  1  1.618473  0  0.276212  0.670267  0  4.062871  0
C  C27  1  0.51573613  0.60030016  0.44652723  1  1.563947  0  0.275454  0.669278  0  4.065107  0
C  C28  1  0.64036433  0.35214263  0.70797831  1  0.025024  0  -0.075575  -0.060274  0  3.98663  0
C  C29  1  0.63308810  0.31630218  0.77584214  1  -0.068719  0  -0.098031  -0.156638  0  4.001408  0
C  C30  1  0.68502048  0.24696899  0.92044851  1  -0.092503  0  -0.089818  -0.121469  0  3.990652  0
C  C31  1  0.68577603  0.21250144  0.98839527  1  0.081798  0  -0.091545  -0.126238  0  4.000461  0
C  C32  1  0.36558748  0.71119816  0.34790569  1  0.40436  0  0.109772  0.294964  0  4.038747  0
C  C33  1  0.36704989  0.77902041  0.31457079  1  0.041582  0  -0.102581  -0.267493  0  3.981988  0
C  C34  1  0.37128051  0.92279169  0.24407402  1  -0.129889  0  -0.090345  -0.120622  0  3.991445  0
C  C35  1  0.37242485  0.99072249  0.21047819  1  0.05547  0  -0.091365  -0.126458  0  3.999172  0
C  C36  1  0.51257911  0.41677226  0.67366639  1  0.039856  0  -0.01646  -0.15088  0  3.952725  0
C  C37  1  0.51071006  0.34444096  0.81332439  1  -0.025713  0  -0.002034  0.099611  0  4.000608  0
C  C38  1  0.51124807  0.30757080  0.88566353  1  -0.054749  0  -0.008764  0.058736  0  3.98412  0
C  C39  1  0.51620629  0.23717202  0.02514098  1  -0.132032  0  -0.00848  0.063156  0  4.008134  0
C  C40  1  0.51989646  0.20117384  0.09722044  1  0.014829  0  -0.007363  0.082056  0  4.027216  0
C  C41  1  0.52124862  0.13261273  0.13231832  1  0.089536  0  -0.089261  -0.177  0  3.93183  0
C  C42  1  0.66039237  0.70735060  0.43600977  1  0.063066  0  -0.076268  -0.061123  0  3.986225  0
C  C43  1  0.65734473  0.77523062  0.40396778  1  -0.082529  0  -0.097893  -0.157765  0  4.002124  0
C  C44  1  0.65681993  0.92055797  0.33293559  1  -0.043116  0  -0.089268  -0.120937  0  3.990142  0
C  C45  1  0.65981568  0.98853997  0.29918709  1  -0.010673  0  -0.090791  -0.125998  0  3.995641  0
C  C46  1  0.42618249  0.34601103  0.44348433  1  0.409669  0  0.109014  0.293735  0  4.043347  0
C  C47  1  0.42705709  0.31267838  0.40904886  1  0.046457  0  -0.102906  -0.268444  0  3.987222  0
C  C48  1  0.37936346  0.24658417  0.33266060  1  -0.030736  0  -0.09023  -0.120222  0  3.991277  0
C  C49  1  0.37289814  0.21294507  0.29846804  1  -0.035519  0  -0.091301  -0.126041  0  4.003132  0
C  C50  1  0.51160665  0.67307031  0.40928849  1  0.060562  0  -0.01763  -0.153939  0  3.951374  0
C  C51  1  0.51186982  0.81306682  0.34195326  1  -0.065991  0  -0.001049  0.100083  0  3.995152  0
C  C52  1  0.51320240  0.88551596  0.30636698  1  0.021221  0  -0.009029  0.059298  0  3.981079  0
C  C53  1  0.51771468  0.02544453  0.23704275  1  -0.063077  0  -0.007923  0.067186  0  3.998555  0
C  C54  1  0.52051175  0.09762609  0.20091208  1  0.010118  0  -0.006742  0.080373  0  4.023724  0
C  C55  1  0.52180006  0.13293029  0.23418140  1  -0.043185  0  -0.088968  -0.175876  0  3.928182  0
C  C56  1  0.70043812  0.43604749  0.35370409  1  -0.014983  0  -0.075053  -0.059918  0  3.982126  0
C  C57  1  0.69326270  0.40418931  0.31771053  1  0.024153  0  -0.097509  -0.156655  0  3.997657  0
C  C58  1  0.70087985  0.33110462  0.24496305  1  -0.008144  0  -0.088802  -0.119389  0  3.990083  0
C  C59  1  0.69291215  0.29763300  0.21051801  1  -0.057094  0  -0.091844  -0.126422  0  3.997054  0
C  C60  1  0.38602864  0.44378531  0.71142255  1  0.524902  0  0.108284  0.292873  0  4.039782  0
C  C61  1  0.39000120  0.40964103  0.77921885  1  -0.004642  0  -0.102106  -0.266466  0  3.98068  0
C  C62  1  0.33874919  0.33166821  0.92282660  1  0.02713  0  -0.089858  -0.120281  0  3.990123  0
C  C63  1  0.34278254  0.29761989  0.99072105  1  -0.09606  0  -0.092054  -0.126814  0  4.000889  0
C  C64  1  0.56040628  0.40848005  0.41732461  1  -0.055691  0  -0.01767  -0.152661  0  3.951064  0
C  C65  1  0.55539818  0.34147880  0.34449789  1  -0.005538  0  -0.001772  0.099993  0  4.00085  0
C  C66  1  0.54526200  0.30648050  0.30720318  1  0.006387  0  -0.009313  0.055856  0  3.985729  0
C  C67  1  0.52990948  0.23757098  0.23653988  1  -0.091924  0  -0.008262  0.063599  0  4.006053  0
C  C68  1  0.52404806  0.20153147  0.20049726  1  0.007657  0  -0.007332  0.081958  0  4.026298  0
C  C69  1  0.52157847  0.23497260  0.13198626  1  -0.096264  0  -0.088948  -0.178538  0  3.93429  0
O  O70  1  0.28831689  0.57057461  0.43548927  1  -1.251903  0  -0.234804  -0.593803  0  2.384249  0
O  O71  1  0.27548449  0.49303651  0.57146804  1  -1.250929  0  -0.234523  -0.591758  0  2.373737  0
O  O72  1  0.30900473  0.43529367  0.49373902  1  -1.251553  0  -0.236303  -0.596847  0  2.390999  0
O  O73  1  0.74721810  0.57219399  0.48866246  1  -1.255165  0  -0.236758  -0.594813  0  2.366172  0
O  O74  1  0.78077692  0.48770277  0.43821313  1  -1.244226  0  -0.235364  -0.589783  0  2.35033  0
O  O75  1  0.75949513  0.43815313  0.57279156  1  -1.258436  0  -0.235799  -0.594122  0  2.359144  0
F  F76  1  0.29693564  0.31457938  0.50552563  1  -0.626855  0  -0.101724  -0.140015  0  1.333959  0
F  F77  1  0.26577155  0.50660512  0.68199996  1  -0.627941  0  -0.102593  -0.141673  0  1.32604  0
F  F78  1  0.22203201  0.68247733  0.31754141  1  -0.633545  0  -0.099767  -0.138358  0  1.338557  0
