# generated using pymatgen
data_Cu3H8C12N4(O2F)6
_symmetry_space_group_name_H-M   'P 1'
_cell_length_a   6.65542549
_cell_length_b   8.05573278
_cell_length_c   19.44831514
_cell_angle_alpha   89.99288312
_cell_angle_beta   90.91697388
_cell_angle_gamma   89.97797125
_symmetry_Int_Tables_number   1
_chemical_formula_structural   Cu3H8C12N4(O2F)6
_chemical_formula_sum   'Cu6 H16 C24 N8 O24 F12'
_cell_volume   1042.57475184
_cell_formula_units_Z   2
loop_
 _symmetry_equiv_pos_site_id
 _symmetry_equiv_pos_as_xyz
  1  'x, y, z'
loop_
 _atom_site_type_symbol
 _atom_site_label
 _atom_site_symmetry_multiplicity
 _atom_site_fract_x
 _atom_site_fract_y
 _atom_site_fract_z
 _atom_site_occupancy
 _atom_site_hle17_ddec_charge
 _atom_site_hle17_ddec_spin_density
 _atom_site_hle17_ddec_sum_bond_order
 _atom_site_hle17_magmom
 _atom_site_hse06_10hf_ddec_charge
 _atom_site_hse06_10hf_ddec_spin_density
 _atom_site_hse06_10hf_ddec_sum_bond_order
 _atom_site_hse06_10hf_magmom
 _atom_site_hse06_ddec_charge
 _atom_site_hse06_ddec_spin_density
 _atom_site_hse06_ddec_sum_bond_order
 _atom_site_hse06_magmom
 _atom_site_pbe_cm5_charge
 _atom_site_pbe_ddec_charge
 _atom_site_pbe_ddec_spin_density
 _atom_site_pbe_ddec_sum_bond_order
 _atom_site_pbe_magmom
Cu  Cu0  1  0.00093641  0.99904115  0.00019524  1  0.898319  0.63967  1.817526  0.46  0.876391  0.789709  2.217894  0.624  0.960592  0.886794  2.155256  0.721  0.753343  0.822079  0.626152  2.261531  0.488
Cu  Cu1  1  0.49982874  0.50085621  0.49998018  1  0.897681  0.639823  1.818792  0.46  0.876314  0.790009  2.218137  0.624  0.959778  0.887185  2.156615  0.72  0.75312  0.822021  0.626272  2.261849  0.488
Cu  Cu2  1  0.01289561  0.22421026  0.30285305  1  0.953479  -0.673496  1.742344  -0.508  0.947442  -0.797828  2.138469  -0.653  1.048967  -0.878112  2.054303  -0.749  0.722981  0.879021  -0.696752  2.194469  -0.559
Cu  Cu3  1  0.48679874  0.72411118  0.19712595  1  0.953308  -0.673224  1.742676  -0.508  0.947044  -0.797408  2.138973  -0.653  1.048633  -0.877618  2.054579  -0.749  0.723023  0.878619  -0.696507  2.194959  -0.559
Cu  Cu4  1  0.98697609  0.77609816  0.69725525  1  0.953493  -0.673239  1.742404  -0.508  0.947015  -0.797248  2.138759  -0.653  1.053098  -0.87738  2.04779  -0.748  0.722877  0.878631  -0.696423  2.194832  -0.559
Cu  Cu5  1  0.51247211  0.27582868  0.80270972  1  0.952682  -0.673362  1.743048  -0.508  0.946462  -0.797778  2.138784  -0.653  1.048091  -0.878006  2.054315  -0.749  0.722409  0.878135  -0.696775  2.194751  -0.559
H  H6  1  0.37693875  0.11400871  0.30371680  1  0.424485  3e-05  0.871222  0.0  0.397558  -0.000329  0.936559  0.0  0.41077  -0.000228  0.917258  0.0  0.289989  0.387963  -0.000371  0.95056  0.0
H  H7  1  0.12294094  0.61354445  0.19615104  1  0.42485  3.5e-05  0.87065  0.0  0.397792  -0.000327  0.936289  0.0  0.41103  -0.000227  0.916995  0.0  0.28988  0.388157  -0.000369  0.950323  0.0
H  H8  1  0.62314013  0.88608738  0.69667148  1  0.424083  3.5e-05  0.871913  0.0  0.397381  -0.000325  0.936967  0.0  0.410638  -0.000225  0.917624  0.0  0.289779  0.38779  -0.000368  0.950965  0.0
H  H9  1  0.87642947  0.38547308  0.80341020  1  0.424959  3.3e-05  0.869645  0.0  0.397581  -0.000329  0.936517  0.0  0.410895  -0.000228  0.917083  0.0  0.289801  0.387951  -0.000372  0.950548  0.0
H  H10  1  0.32902047  0.19417485  0.37759400  1  0.428741  -0.000325  0.861688  0.0  0.40553  -0.000623  0.918067  -0.001  0.417373  -0.000464  0.900966  -0.001  0.293439  0.396743  -0.000696  0.930778  -0.001
H  H11  1  0.17140252  0.69304214  0.12221594  1  0.429134  -0.000318  0.861425  0.0  0.40582  -0.000616  0.917964  -0.001  0.417627  -0.000457  0.900893  -0.001  0.293283  0.397073  -0.000689  0.93063  -0.001
H  H12  1  0.67073263  0.80610751  0.62273672  1  0.428111  -0.000324  0.86288  0.0  0.405086  -0.000622  0.918963  -0.001  0.416931  -0.000463  0.901867  -0.001  0.29327  0.396324  -0.000696  0.931661  -0.001
H  H13  1  0.82896367  0.30484184  0.87722709  1  0.42844  -0.000323  0.8618  0.0  0.405169  -0.000623  0.918565  -0.001  0.417007  -0.000464  0.901508  -0.001  0.293316  0.396381  -0.000696  0.931267  -0.001
H  H14  1  0.34585785  0.76166051  0.04367894  1  0.427072  -3.4e-05  0.868609  0.0  0.398573  -9e-06  0.928428  0.0  0.411005  4.1e-05  0.91014  0.0  0.295158  0.389707  -5.6e-05  0.941494  0.0
H  H15  1  0.15513992  0.26333030  0.45622136  1  0.428093  -3.5e-05  0.86721  0.0  0.398885  -1e-05  0.928123  0.0  0.411321  4e-05  0.909821  0.0  0.295369  0.390054  -5.7e-05  0.941136  0.0
H  H16  1  0.65604276  0.23746822  0.95619777  1  0.427394  -3.5e-05  0.86768  0.0  0.398548  -1.1e-05  0.927923  0.0  0.410947  3.9e-05  0.909684  0.0  0.295215  0.389725  -5.7e-05  0.940929  0.0
H  H17  1  0.84407302  0.73949820  0.54366112  1  0.426856  -3.7e-05  0.868471  0.0  0.398202  -1.2e-05  0.928514  0.0  0.41064  3.8e-05  0.910206  0.0  0.295289  0.389363  -6e-05  0.941546  0.0
H  H18  1  0.21159109  0.63891914  0.99969756  1  0.427838  4e-05  0.811574  0.0  0.417588  3e-06  0.856034  0.0  0.425671  1.2e-05  0.84732  0.0  0.323174  0.411835  -6e-06  0.86241  0.0
H  H19  1  0.28983468  0.14098042  0.50025715  1  0.427224  4.2e-05  0.81436  0.0  0.417031  4e-06  0.858539  0.0  0.425045  1.3e-05  0.850006  0.0  0.323072  0.411308  -8e-06  0.864868  0.0
H  H20  1  0.79240853  0.36030617  0.99934734  1  0.427582  4.2e-05  0.814623  0.0  0.41728  4e-06  0.858945  0.0  0.425304  1.3e-05  0.849944  0.0  0.323301  0.411557  -5e-06  0.865243  0.0
H  H21  1  0.70757005  0.86261928  0.50062598  1  0.427933  4e-05  0.81235  0.0  0.417231  3e-06  0.857342  0.0  0.425308  1.2e-05  0.848666  0.0  0.32306  0.411511  -8e-06  0.863649  0.0
C  C22  1  0.09934001  0.13447079  0.14850030  1  0.193473  0.000123  3.710481  0.0  0.179086  -0.000143  3.978514  0.0  0.191837  0.000133  3.994022  0.0  0.206065  0.170045  -0.000449  3.968945  -0.001
C  C23  1  0.40046532  0.63499787  0.35150451  1  0.193498  0.000141  3.71065  0.0  0.179068  -0.000131  3.978634  0.0  0.192191  0.000144  3.993205  0.0  0.205681  0.170004  -0.00044  3.969072  -0.001
C  C24  1  0.90135575  0.86462838  0.85179725  1  0.193274  0.000133  3.710231  0.0  0.178801  -0.000127  3.978188  0.0  0.191702  0.000146  3.993643  0.0  0.20571  0.169639  -0.000434  3.96884  -0.001
C  C25  1  0.59861481  0.36559994  0.64829241  1  0.193818  0.000115  3.712837  0.0  0.180499  -0.00014  3.978792  0.0  0.193651  0.000134  3.993223  0.0  0.20603  0.171155  -0.000448  3.969618  -0.001
C  C26  1  0.83234770  0.98287643  0.13022738  1  0.018065  -0.000275  3.72041  0.0  0.009372  -0.000209  3.982593  0.0  0.009147  -0.000793  4.001  -0.001  0.081242  0.008656  9.2e-05  3.971519  0.0
C  C27  1  0.66784798  0.48372747  0.36990744  1  0.017825  -0.000276  3.721026  0.0  0.008775  -0.000211  3.983171  0.0  0.00851  -0.000795  4.001634  -0.001  0.080925  0.008081  9.3e-05  3.972098  0.0
C  C28  1  0.16860951  0.01593717  0.87008414  1  0.017291  -0.00028  3.72286  0.0  0.008512  -0.000213  3.984367  0.0  0.008282  -0.000798  4.002776  -0.001  0.080937  0.007819  8.9e-05  3.973232  0.0
C  C29  1  0.33148062  0.51729731  0.63003652  1  0.017661  -0.00028  3.720811  0.0  0.008749  -0.000213  3.982829  0.0  0.008473  -0.000798  4.001299  -0.001  0.081483  0.008073  8.8e-05  3.971653  0.0
C  C30  1  0.83417118  0.03543420  0.19847511  1  0.017554  0.001014  3.723003  0.0  0.008647  0.000538  3.98739  0.0  0.007702  0.001194  4.007666  0.001  0.078124  0.009385  0.000106  3.974129  0.0
C  C31  1  0.66575428  0.53576516  0.30159499  1  0.017872  0.001023  3.723686  0.0  0.00915  0.000545  3.987627  0.0  0.008123  0.001199  4.008193  0.001  0.078529  0.009899  0.000114  3.97435  0.0
C  C32  1  0.16646760  0.96373076  0.80179946  1  0.01635  0.001015  3.72525  0.0  0.007733  0.000538  3.989097  0.0  0.006759  0.001193  4.009799  0.001  0.078267  0.008517  0.000108  3.975761  0.0
C  C33  1  0.33327446  0.46446646  0.69825870  1  0.017671  0.001023  3.725047  0.0  0.008739  0.000543  3.989  0.0  0.007716  0.001196  4.009516  0.001  0.078295  0.009512  0.000112  3.975678  0.0
C  C34  1  0.68762463  0.03952198  0.25440727  1  0.631213  0.006821  3.915971  0.01  0.590642  0.00103  4.219049  0.003  0.629909  0.00084  4.21222  0.002  0.205839  0.56286  0.00094  4.223925  0.003
C  C35  1  0.81233699  0.53958727  0.24566629  1  0.630671  0.006817  3.916884  0.01  0.590089  0.001032  4.219995  0.003  0.629385  0.000843  4.21306  0.002  0.205523  0.5623  0.000943  4.224864  0.003
C  C36  1  0.31286558  0.95986770  0.74582934  1  0.632661  0.00681  3.916027  0.01  0.591943  0.001045  4.219156  0.003  0.631255  0.000855  4.212441  0.002  0.205947  0.564161  0.000954  4.224051  0.003
C  C37  1  0.18669201  0.46008078  0.75416120  1  0.631298  0.006821  3.917013  0.01  0.590919  0.001038  4.219791  0.003  0.630243  0.000848  4.213076  0.002  0.205904  0.563132  0.000947  4.224653  0.003
C  C38  1  0.27601464  0.24471654  0.13453104  1  0.75021  0.000138  3.665442  0.0  0.673482  5.2e-05  4.003659  0.0  0.703596  2.4e-05  3.976665  0.0  0.314281  0.651772  7.1e-05  4.023656  0.0
C  C39  1  0.22342660  0.74507480  0.36534320  1  0.750094  0.000133  3.662741  0.0  0.672714  5.4e-05  4.002449  0.0  0.703975  2.5e-05  3.97354  0.0  0.314351  0.651032  7.2e-05  4.022377  0.0
C  C40  1  0.72434749  0.75471413  0.86575876  1  0.751554  0.000134  3.664231  0.0  0.67501  5.1e-05  4.002324  0.0  0.705492  2.3e-05  3.974752  0.0  0.314402  0.653163  7e-05  4.022471  0.0
C  C41  1  0.77564841  0.25564964  0.63430611  1  0.748813  0.000136  3.669025  0.0  0.671829  5.2e-05  4.007285  0.0  0.703324  2.4e-05  3.978131  0.0  0.314412  0.650322  6.9e-05  4.026985  0.0
C  C42  1  0.69807820  0.88698915  0.08440864  1  0.661387  -0.002263  3.839897  -0.004  0.619634  -0.001625  4.137825  -0.003  0.661944  -0.00153  4.127596  -0.003  0.22395  0.589335  -0.001752  4.145211  -0.003
C  C43  1  0.80234505  0.38800830  0.41572964  1  0.661196  -0.002235  3.840064  -0.004  0.619999  -0.001595  4.137086  -0.003  0.662267  -0.001507  4.126876  -0.003  0.223837  0.589736  -0.001715  4.144504  -0.003
C  C44  1  0.30291403  0.11201437  0.91582339  1  0.66032  -0.002248  3.842731  -0.004  0.619507  -0.001599  4.139023  -0.003  0.661812  -0.001506  4.128797  -0.003  0.223776  0.589221  -0.001722  4.146415  -0.003
C  C45  1  0.19731540  0.61348069  0.58424258  1  0.661555  -0.002236  3.840063  -0.004  0.620303  -0.001598  4.137198  -0.003  0.662703  -0.001505  4.12709  -0.003  0.224017  0.590006  -0.001725  4.144577  -0.003
N  N46  1  0.99959089  0.04780691  0.09953007  1  -0.357677  0.04862  3.246842  0.06  -0.337808  0.040214  3.554844  0.053  -0.368145  0.036103  3.57442  0.049  -0.362688  -0.316742  0.035694  3.542116  0.045
N  N47  1  0.50056741  0.54878675  0.40056089  1  -0.356939  0.048675  3.24645  0.06  -0.336885  0.040258  3.554054  0.053  -0.367077  0.036135  3.573644  0.049  -0.361888  -0.315809  0.03574  3.54131  0.045
N  N48  1  0.00149394  0.95090363  0.90080282  1  -0.356284  0.04881  3.246819  0.061  -0.336532  0.04032  3.554787  0.053  -0.366831  0.036174  3.574332  0.049  -0.362032  -0.315417  0.035813  3.54201  0.046
N  N49  1  0.49879594  0.45240189  0.59934728  1  -0.357619  0.048729  3.247922  0.06  -0.338098  0.040267  3.555361  0.053  -0.368251  0.036141  3.574909  0.049  -0.362753  -0.316949  0.035749  3.542667  0.046
N  N50  1  0.00508045  0.12799030  0.20918312  1  -0.364012  -0.063519  3.2644  -0.082  -0.347206  -0.049435  3.576199  -0.067  -0.381884  -0.040638  3.597772  -0.058  -0.359124  -0.324419  -0.049118  3.56107  -0.064
N  N51  1  0.49467467  0.62814253  0.29081376  1  -0.364282  -0.063511  3.265488  -0.082  -0.347202  -0.049387  3.576992  -0.067  -0.38184  -0.040606  3.59844  -0.058  -0.359226  -0.324353  -0.049076  3.561811  -0.064
N  N52  1  0.99541714  0.87135221  0.79107411  1  -0.364191  -0.063342  3.263998  -0.082  -0.346643  -0.049294  3.57508  -0.066  -0.382333  -0.040544  3.596585  -0.057  -0.359272  -0.323855  -0.048994  3.560054  -0.064
N  N53  1  0.50426742  0.37187312  0.70896279  1  -0.364369  -0.063394  3.265711  -0.082  -0.34738  -0.049369  3.576323  -0.067  -0.381874  -0.040593  3.597473  -0.058  -0.359225  -0.324565  -0.049056  3.561346  -0.064
O  O54  1  0.74373370  0.12130791  0.30820956  1  -0.566257  -0.103246  2.027245  -0.143  -0.55627  -0.061335  2.305046  -0.092  -0.602474  -0.044511  2.294606  -0.071  -0.320401  -0.525963  -0.066534  2.312383  -0.096
O  O55  1  0.75603879  0.62113104  0.19179522  1  -0.566129  -0.103385  2.0272  -0.143  -0.556117  -0.06143  2.304855  -0.092  -0.602363  -0.044592  2.294537  -0.071  -0.320331  -0.525729  -0.066648  2.312099  -0.096
O  O56  1  0.25650137  0.87843810  0.69196221  1  -0.567104  -0.10294  2.028591  -0.142  -0.556751  -0.061289  2.306331  -0.092  -0.603954  -0.04452  2.295649  -0.071  -0.320151  -0.52636  -0.066485  2.313611  -0.096
O  O57  1  0.24294116  0.37818324  0.80795537  1  -0.566604  -0.102959  2.027163  -0.143  -0.556588  -0.061257  2.304867  -0.092  -0.602786  -0.04448  2.294384  -0.071  -0.320688  -0.526256  -0.066431  2.312191  -0.096
O  O58  1  0.74730606  0.88355781  0.02125682  1  -0.537726  0.068723  2.037828  0.092  -0.525518  0.048918  2.315986  0.071  -0.568242  0.04077  2.306343  0.062  -0.305718  -0.493783  0.045916  2.321257  0.065
O  O59  1  0.75367839  0.38531966  0.47894796  1  -0.537351  0.068745  2.036861  0.092  -0.525743  0.048887  2.315233  0.071  -0.568206  0.040743  2.30543  0.062  -0.305729  -0.494047  0.045884  2.320612  0.065
O  O60  1  0.25438615  0.11479759  0.97904489  1  -0.537106  0.068756  2.037968  0.092  -0.525646  0.048887  2.316307  0.071  -0.568217  0.040735  2.306354  0.062  -0.305809  -0.493913  0.045897  2.321666  0.065
O  O61  1  0.24639493  0.61672909  0.52107153  1  -0.537716  0.068766  2.03755  0.092  -0.526226  0.048954  2.315888  0.072  -0.568698  0.040796  2.30602  0.062  -0.30621  -0.494481  0.045951  2.321222  0.065
O  O62  1  0.53869708  0.81341800  0.10391954  1  -0.586302  -0.047459  2.121168  -0.066  -0.549241  -0.03537  2.388797  -0.053  -0.593362  -0.028309  2.373794  -0.044  -0.30846  -0.518516  -0.035419  2.398356  -0.051
O  O63  1  0.96129434  0.31383631  0.39613899  1  -0.587276  -0.047501  2.119829  -0.066  -0.550147  -0.035416  2.38686  -0.053  -0.594144  -0.028318  2.37169  -0.044  -0.308574  -0.519469  -0.035465  2.396462  -0.051
O  O64  1  0.46150132  0.18647574  0.89610391  1  -0.586512  -0.047539  2.11935  -0.066  -0.54949  -0.035419  2.385892  -0.053  -0.593546  -0.028327  2.370865  -0.044  -0.308592  -0.518837  -0.035487  2.395494  -0.051
O  O65  1  0.03827600  0.68754221  0.60382702  1  -0.586247  -0.047695  2.119264  -0.066  -0.549147  -0.035529  2.386351  -0.053  -0.59434  -0.028421  2.371084  -0.044  -0.308389  -0.518416  -0.035595  2.39596  -0.051
O  O66  1  0.51420311  0.97617170  0.24878684  1  -0.604111  -0.02148  2.041575  -0.03  -0.581054  -0.011073  2.303906  -0.017  -0.615931  -0.005473  2.291165  -0.009  -0.309809  -0.555016  -0.016029  2.310746  -0.023
O  O67  1  0.98572761  0.47619767  0.25134132  1  -0.603857  -0.021361  2.044125  -0.03  -0.580719  -0.011008  2.306341  -0.017  -0.615802  -0.005431  2.293887  -0.009  -0.309558  -0.554702  -0.01595  2.313255  -0.023
O  O68  1  0.48631278  0.02316957  0.75142937  1  -0.603662  -0.021263  2.041751  -0.03  -0.580857  -0.010901  2.304042  -0.016  -0.615571  -0.005348  2.291116  -0.009  -0.30975  -0.554902  -0.015837  2.311028  -0.023
O  O69  1  0.01316114  0.52331772  0.74856963  1  -0.603832  -0.021377  2.042197  -0.03  -0.580524  -0.010973  2.303947  -0.016  -0.616398  -0.005393  2.291388  -0.009  -0.309509  -0.554566  -0.015923  2.310911  -0.023
O  O70  1  0.30567597  0.20602243  0.32725642  1  -0.808291  -0.032002  1.984074  -0.043  -0.777168  -0.026825  2.207319  -0.039  -0.806547  -0.021972  2.164915  -0.034  -0.588474  -0.757624  -0.027587  2.236901  -0.038
O  O71  1  0.19408748  0.70552767  0.17256066  1  -0.809046  -0.032076  1.982899  -0.044  -0.777921  -0.026886  2.20572  -0.039  -0.807048  -0.022016  2.16322  -0.034  -0.588232  -0.758329  -0.027668  2.235297  -0.038
O  O72  1  0.69418842  0.79398681  0.67306884  1  -0.807672  -0.03245  1.984485  -0.044  -0.776796  -0.027098  2.207603  -0.039  -0.807202  -0.022187  2.164668  -0.034  -0.588665  -0.757302  -0.027886  2.237159  -0.039
O  O73  1  0.80534834  0.29325399  0.82688119  1  -0.808679  -0.032338  1.981809  -0.044  -0.776995  -0.027038  2.206835  -0.039  -0.806102  -0.022149  2.163984  -0.034  -0.588663  -0.757408  -0.027812  2.236525  -0.039
O  O74  1  0.20471262  0.73087741  0.03196051  1  -0.822046  -0.00217  1.841232  -0.002  -0.786266  -0.001714  2.006842  -0.002  -0.806142  -0.001377  1.975398  -0.001  -0.56891  -0.772334  -0.00184  2.029116  -0.002
O  O75  1  0.29641498  0.23278065  0.46789042  1  -0.822094  -0.002164  1.842281  -0.002  -0.785871  -0.001701  2.008543  -0.002  -0.805684  -0.001366  1.977209  -0.001  -0.568984  -0.771927  -0.001829  2.030745  -0.002
O  O76  1  0.79767766  0.26739719  0.96749559  1  -0.821077  -0.00215  1.844328  -0.002  -0.784977  -0.0017  2.010447  -0.002  -0.804855  -0.001365  1.978744  -0.001  -0.568422  -0.771042  -0.001824  2.032576  -0.002
O  O77  1  0.70243760  0.76960970  0.53243667  1  -0.82086  -0.00215  1.8428  -0.002  -0.784683  -0.001708  2.008713  -0.002  -0.80445  -0.001372  1.977308  -0.001  -0.568247  -0.770749  -0.001836  2.030922  -0.002
F  F78  1  0.22102909  0.36852904  0.08921708  1  -0.261591  0.000128  1.123177  0.0  -0.228976  9.6e-05  1.289398  0.0  -0.237412  5.6e-05  1.2714  0.0  -0.110089  -0.223113  0.000117  1.302237  0.0
F  F79  1  0.27814012  0.86949801  0.41039889  1  -0.261771  0.00013  1.121487  0.0  -0.22915  9.8e-05  1.288063  0.0  -0.237069  5.8e-05  1.26948  0.0  -0.110335  -0.223301  0.000116  1.300896  0.0
F  F80  1  0.77921216  0.63008237  0.91071928  1  -0.261867  0.000127  1.123146  0.0  -0.228968  9.5e-05  1.2892  0.0  -0.237248  5.6e-05  1.271034  0.0  -0.1102  -0.22315  0.000116  1.302093  0.0
F  F81  1  0.72105025  0.13162241  0.58905573  1  -0.261455  0.000127  1.124086  0.0  -0.228941  9.5e-05  1.290421  0.0  -0.236821  5.5e-05  1.27176  0.0  -0.110175  -0.223085  0.000112  1.303189  0.0
F  F82  1  0.43363704  0.16426014  0.10644428  1  -0.231842  0.000162  1.204591  0.0  -0.199892  0.000119  1.384132  0.0  -0.209694  7.3e-05  1.36893  0.0  -0.093571  -0.193159  0.000133  1.394963  0.0
F  F83  1  0.06623689  0.66457368  0.39365543  1  -0.23169  0.000163  1.203753  0.0  -0.199577  0.00012  1.383641  0.0  -0.208882  7.2e-05  1.367826  0.0  -0.093502  -0.192832  0.000132  1.394448  0.0
F  F84  1  0.56747537  0.83532182  0.89426050  1  -0.232275  0.000166  1.203233  0.0  -0.1999  0.000123  1.382807  0.0  -0.209583  7.4e-05  1.367449  0.0  -0.093753  -0.193199  0.000137  1.393682  0.0
F  F85  1  0.93286122  0.33641391  0.60613849  1  -0.231094  0.000163  1.205085  0.0  -0.199162  0.000121  1.384845  0.0  -0.208381  7.3e-05  1.368921  0.0  -0.093107  -0.192426  0.000133  1.395577  0.0
F  F86  1  0.34462326  0.31971336  0.19270879  1  -0.242916  0.000283  1.219363  0.0  -0.195971  0.000307  1.390928  0.0  -0.207038  0.000319  1.375324  0.0  -0.083723  -0.187522  0.000261  1.40199  0.0
F  F87  1  0.15449818  0.81925256  0.30700344  1  -0.242129  0.000283  1.218379  0.0  -0.195291  0.000304  1.39043  0.0  -0.210904  0.00032  1.378823  0.0  -0.083468  -0.186814  0.000257  1.401443  0.0
F  F88  1  0.65467069  0.68071433  0.80750544  1  -0.243139  0.000285  1.219672  0.0  -0.199219  0.000312  1.394105  0.0  -0.211488  0.000324  1.379677  0.0  -0.083395  -0.190207  0.000266  1.404644  0.0
F  F89  1  0.84465904  0.18084498  0.69249524  1  -0.242382  0.000286  1.219867  0.0  -0.195611  0.000312  1.391621  0.0  -0.211851  0.000327  1.380393  0.0  -0.083875  -0.187185  0.000266  1.402638  0.0
