# generated using pymatgen
data_ZnH25C26NO4
_symmetry_space_group_name_H-M   'P 1'
_cell_length_a   8.90186792
_cell_length_b   18.23254395
_cell_length_c   19.69322924
_cell_angle_alpha   88.79663962
_cell_angle_beta   88.43560349
_cell_angle_gamma   79.59758178
_symmetry_Int_Tables_number   1
_chemical_formula_structural   ZnH25C26NO4
_chemical_formula_sum   'Zn2 H50 C52 N2 O8'
_cell_volume   3142.15769143
_cell_formula_units_Z   2
loop_
 _symmetry_equiv_pos_site_id
 _symmetry_equiv_pos_as_xyz
  1  'x, y, z'
loop_
 _atom_site_type_symbol
 _atom_site_label
 _atom_site_symmetry_multiplicity
 _atom_site_fract_x
 _atom_site_fract_y
 _atom_site_fract_z
 _atom_site_occupancy
 _atom_site_pbe_bader_charge
 _atom_site_pbe_bader_spin_density
 _atom_site_pbe_cm5_charge
 _atom_site_pbe_ddec_charge
 _atom_site_pbe_ddec_spin_density
 _atom_site_pbe_ddec_sum_bond_order
 _atom_site_pbe_magmom
Zn  Zn0  1  0.48736685  0.57849174  0.49854693  1  1.287632  0  0.664564  0.821566  0  2.429955  0
Zn  Zn1  1  0.51319798  0.42196339  0.50208498  1  1.288986  0  0.664397  0.820686  0  2.437741  0
H  H2  1  0.03535606  0.41482418  0.49626689  1  0.099653  0  0.106035  0.122306  0  1.001984  0
H  H3  1  0.51174110  0.61553646  0.28095882  1  0.090366  0  0.101603  0.106161  0  1.003641  0
H  H4  1  0.48572850  0.38349290  0.84702476  1  0.054909  0  0.09659  0.094545  0  1.011981  0
H  H5  1  0.51248288  0.61641254  0.15408008  1  0.058309  0  0.096929  0.094734  0  1.009548  0
H  H6  1  0.51214012  0.61706507  0.84167671  1  0.053344  0  0.09674  0.094905  0  1.009992  0
H  H7  1  0.48615324  0.38281883  0.15842634  1  0.041021  0  0.09654  0.093903  0  1.01219  0
H  H8  1  0.51028199  0.61632720  0.71485629  1  0.093603  0  0.101748  0.106491  0  1.002505  0
H  H9  1  0.48848400  0.38284462  0.28524804  1  0.08827  0  0.100715  0.104292  0  1.004132  0
H  H10  1  0.67242674  0.56903268  0.93433594  1  0.060935  0  0.100126  0.099953  0  1.00288  0
H  H11  1  0.32612794  0.43124085  0.06628496  1  0.049918  0  0.099974  0.099263  0  1.003425  0
H  H12  1  0.67225049  0.56861660  0.05986897  1  0.060735  0  0.100391  0.100389  0  1.002239  0
H  H13  1  0.96500169  0.58627133  0.50480311  1  0.087999  0  0.104533  0.117814  0  1.013407  0
H  H14  1  0.32621598  0.43167398  0.94075942  1  0.051777  0  0.100216  0.100233  0  1.002812  0
H  H15  1  0.27531806  0.71337466  0.53583153  1  0.108251  0  0.12366  0.105763  0  0.991045  0
H  H16  1  0.69660163  0.29171249  0.43925576  1  0.120408  0  0.125411  0.106248  0  0.978853  0
H  H17  1  0.98079103  0.83723608  0.34131692  1  0.002662  0  0.081938  0.104316  0  1.008221  0
H  H18  1  0.06987726  0.83737297  0.42078941  1  0.006991  0  0.079145  0.10079  0  1.039032  0
H  H19  1  0.12304223  0.76043671  0.36600883  1  0.053001  0  0.093313  0.127292  0  0.989946  0
H  H20  1  0.95195590  0.72519334  0.45849538  1  0.051266  0  0.091929  0.084712  0  0.979692  0
H  H21  1  0.86050766  0.72872124  0.38005884  1  0.016255  0  0.094372  0.086197  0  0.9671  0
H  H22  1  0.72915206  0.86221303  0.40577050  1  0.011382  0  0.093949  0.092558  0  0.977394  0
H  H23  1  0.81105154  0.85329037  0.48559176  1  0.025106  0  0.091882  0.088069  0  0.99111  0
H  H24  1  0.71694108  0.67314421  0.45834417  1  0.134377  0  0.122988  0.100632  0  1.018736  0
H  H25  1  0.96963676  0.15641779  0.61495951  1  0.006399  0  0.080038  0.099406  0  1.035007  0
H  H26  1  0.07983479  0.15355604  0.68902261  1  0.02149  0  0.082536  0.104351  0  1.008983  0
H  H27  1  0.93105051  0.23073985  0.67330240  1  0.033899  0  0.092428  0.123282  0  0.991563  0
H  H28  1  0.18580652  0.26553271  0.64548284  1  0.016395  0  0.093611  0.084198  0  0.970425  0
H  H29  1  0.07634882  0.26911895  0.57191143  1  0.041187  0  0.093909  0.086905  0  0.972913  0
H  H30  1  0.21315352  0.13995770  0.54155592  1  0.029273  0  0.093502  0.091676  0  0.991163  0
H  H31  1  0.31961019  0.13542841  0.61497052  1  0.046941  0  0.094494  0.09296  0  0.978042  0
H  H32  1  0.06942725  0.99219868  0.61208160  1  0.023523  0  0.083132  0.108772  0  1.013318  0
H  H33  1  0.98361807  0.91462955  0.63641283  1  0.022611  0  0.082571  0.105328  0  1.006233  0
H  H34  1  0.08729818  0.95576072  0.69636654  1  0.047616  0  0.088011  0.11373  0  1.001709  0
H  H35  1  0.31034804  0.32317981  0.56330209  1  0.124778  0  0.125213  0.101774  0  1.005596  0
H  H36  1  0.24774211  0.83674172  0.65336215  1  0.012717  0  0.09195  0.082659  0  0.968919  0
H  H37  1  0.33074626  0.91412621  0.62808451  1  0.023111  0  0.083932  0.071699  0  1.001401  0
H  H38  1  0.20388376  0.91613863  0.51465995  1  0.03857  0  0.090187  0.083628  0  1.020433  0
H  H39  1  0.12855559  0.83650957  0.54040580  1  0.004561  0  0.095491  0.091673  0  0.986516  0
H  H40  1  0.96294331  0.00776650  0.41571993  1  0.017402  0  0.085098  0.113105  0  1.003909  0
H  H41  1  0.04828573  0.08369232  0.38610086  1  0.002742  0  0.085224  0.111636  0  0.999055  0
H  H42  1  0.10486646  0.03814685  0.46426643  1  0.020613  0  0.079087  0.101076  0  1.048974  0
H  H43  1  0.92817207  0.15948968  0.48711730  1  0.014578  0  0.089916  0.0799  0  0.981481  0
H  H44  1  0.84334229  0.08373308  0.51508033  1  0.01133  0  0.083144  0.066328  0  1.012379  0
H  H45  1  0.70274899  0.09200567  0.40368267  1  0.038681  0  0.091331  0.089891  0  1.000222  0
H  H46  1  0.62521084  0.91860143  0.59175644  1  0.082172  0  0.106391  0.105663  0  0.991815  0
H  H47  1  0.78045353  0.17216567  0.38137494  1  0.052051  0  0.098598  0.098826  0  0.968426  0
H  H48  1  0.38045295  0.08174663  0.40527230  1  0.085151  0  0.107913  0.109365  0  0.986757  0
H  H49  1  0.62264143  0.05515043  0.59298487  1  0.064763  0  0.106349  0.10615  0  0.989934  0
H  H50  1  0.38137024  0.94522004  0.40446655  1  0.039743  0  0.108066  0.110803  0  0.982703  0
H  H51  1  0.48626971  0.38373838  0.72017753  1  0.085864  0  0.100291  0.10357  0  1.007163  0
C  C52  1  0.50134633  0.49913237  0.36675107  1  1.564811  0  0.20989  0.5885  0  4.18112  0
C  C53  1  0.61151506  0.26511692  0.46630390  1  0.512117  0  0.052881  0.032492  0  3.911235  0
C  C54  1  0.36911265  0.81484002  0.52092139  1  0.010445  0  -0.002348  0.034911  0  3.967732  0
C  C55  1  0.61578773  0.18835833  0.46336829  1  -0.034768  0  -0.002431  0.036325  0  3.969912  0
C  C56  1  0.50076393  0.84164011  0.49812694  1  -0.086976  0  0.009211  -0.009024  0  3.927178  0
C  C57  1  0.50148329  0.15896198  0.49981547  1  0.018441  0  0.009358  -0.01086  0  3.933208  0
C  C58  1  0.63032245  0.79153719  0.47410916  1  -0.017362  0  -0.001104  0.035437  0  3.936926  0
C  C59  1  0.38727047  0.20661297  0.53708944  1  -0.02108  0  -0.001316  0.034354  0  3.943732  0
C  C60  1  0.62207123  0.71574409  0.47541594  1  0.497249  0  0.048932  0.02978  0  3.896808  0
C  C61  1  0.39442691  0.28249936  0.53631100  1  0.490372  0  0.050404  0.031793  0  3.903857  0
C  C62  1  0.57117519  0.95444813  0.55090352  1  -0.033995  0  -0.086583  -0.131361  0  3.999527  0
C  C63  1  0.49802667  0.49964302  0.63387334  1  1.601547  0  0.21124  0.592906  0  4.178524  0
C  C64  1  0.43410308  0.04592072  0.44618627  1  -0.036442  0  -0.086445  -0.1323  0  3.998689  0
C  C65  1  0.57004757  0.03095521  0.55150649  1  -0.114763  0  -0.086359  -0.127985  0  3.992092  0
C  C66  1  0.43444319  0.96943848  0.44577423  1  -0.042911  0  -0.086334  -0.131395  0  3.996738  0
C  C67  1  0.79830072  0.47718581  0.49773652  1  1.589004  0  0.209102  0.632267  0  4.17791  0
C  C68  1  0.20213704  0.52436391  0.50294326  1  1.575327  0  0.208902  0.631071  0  4.178851  0
C  C69  1  0.50146015  0.07745820  0.49915704  1  -0.006168  0  -0.00401  0.076588  0  4.015271  0
C  C70  1  0.50252831  0.92299221  0.49821252  1  -0.007233  0  -0.004613  0.075618  0  4.015607  0
C  C71  1  0.96672609  0.47067650  0.49844765  1  -0.092573  0  -0.083524  -0.17081  0  3.89571  0
C  C72  1  0.03384187  0.53049563  0.50247714  1  -0.008915  0  -0.082993  -0.170309  0  3.899871  0
C  C73  1  0.49058734  0.43459355  0.74759244  1  -0.00273  0  -0.088055  -0.088305  0  4.001335  0
C  C74  1  0.59433198  0.53972082  0.96316858  1  -0.07527  0  -0.09408  -0.130635  0  4.005707  0
C  C75  1  0.50758527  0.56481807  0.25330142  1  -0.021165  0  -0.088093  -0.091157  0  3.999311  0
C  C76  1  0.48988776  0.43489771  0.81821427  1  -0.097344  0  -0.097239  -0.14408  0  4.00836  0
C  C77  1  0.50840935  0.56486581  0.18266589  1  -0.069442  0  -0.096669  -0.141564  0  4.004479  0
C  C78  1  0.49912196  0.50029362  0.85329509  1  -0.046419  0  -0.007656  0.072698  0  4.013649  0
C  C79  1  0.49941266  0.49960580  0.14733807  1  -0.039071  0  -0.008327  0.071488  0  4.014244  0
C  C80  1  0.50770577  0.56556443  0.81517508  1  -0.12974  0  -0.096429  -0.141702  0  4.002735  0
C  C81  1  0.49071159  0.43415443  0.18518574  1  -0.124662  0  -0.096389  -0.141605  0  4.004885  0
C  C82  1  0.50592018  0.56560420  0.74454883  1  0.021262  0  -0.08765  -0.089884  0  3.997206  0
C  C83  1  0.49264725  0.43374651  0.25581403  1  0.03852  0  -0.087493  -0.088622  0  3.996118  0
C  C84  1  0.49799506  0.50002071  0.71002759  1  -0.036189  0  -0.020971  -0.035019  0  3.968332  0
C  C85  1  0.40422266  0.46051890  0.03743639  1  -0.066546  0  -0.09387  -0.129933  0  4.007171  0
C  C86  1  0.50058006  0.49915993  0.29059633  1  -0.063276  0  -0.020101  -0.031707  0  3.963897  0
C  C87  1  0.76875036  0.82063782  0.44602673  1  0.017234  0  -0.156893  -0.187418  0  3.973079  0
C  C88  1  0.90201399  0.76361334  0.41779309  1  -0.01568  0  -0.163465  -0.095554  0  3.961614  0
C  C89  1  0.02592552  0.80163043  0.38464824  1  -0.063383  0  -0.244393  -0.355153  0  3.974543  0
C  C90  1  0.26411985  0.17507135  0.57613084  1  -0.038434  0  -0.157216  -0.187925  0  3.978238  0
C  C91  1  0.13672417  0.23063285  0.61023074  1  0.00708  0  -0.163805  -0.09769  0  3.970129  0
C  C92  1  0.02293716  0.19078647  0.64907041  1  -0.0648  0  -0.242725  -0.35089  0  3.978493  0
C  C93  1  0.22630038  0.86507897  0.54638432  1  0.001207  0  -0.158634  -0.195762  0  3.981419  0
C  C94  1  0.23083702  0.88744525  0.62102269  1  0.016723  0  -0.163771  -0.08756  0  3.951474  0
C  C95  1  0.08497927  0.94038225  0.64283437  1  -0.10093  0  -0.243138  -0.348053  0  3.974  0
C  C96  1  0.59426582  0.53947496  0.03384276  1  -0.074065  0  -0.094805  -0.13297  0  4.005389  0
C  C97  1  0.74360954  0.14006829  0.42473858  1  -0.037468  0  -0.158097  -0.193578  0  3.971282  0
C  C98  1  0.88208620  0.11133924  0.46926595  1  0.016963  0  -0.163596  -0.088106  0  3.957416  0
C  C99  1  0.00641548  0.05728971  0.43187515  1  -0.041925  0  -0.246068  -0.356368  0  3.976478  0
C  C100  1  0.40424651  0.46078026  0.96679279  1  -0.01867  0  -0.09472  -0.13243  0  4.007586  0
C  C101  1  0.49929851  0.49984232  0.07241456  1  0.053496  0  -0.01149  0.063005  0  4.015938  0
C  C102  1  0.49936171  0.50032275  0.92820012  1  0.045081  0  -0.011642  0.062542  0  4.016846  0
C  C103  1  0.37379787  0.73796664  0.51954906  1  0.510729  0  0.052492  0.031051  0  3.91437  0
N  N104  1  0.49678260  0.69000864  0.49767228  1  -1.242078  0  -0.32115  -0.180215  0  3.571648  0
N  N105  1  0.50435203  0.31057571  0.50195295  1  -1.262706  0  -0.322966  -0.181626  0  3.577991  0
O  O106  1  0.48556462  0.56241128  0.39499388  1  -1.168551  0  -0.323558  -0.553865  0  2.315918  0
O  O107  1  0.50871084  0.43638815  0.60594864  1  -1.177703  0  -0.323985  -0.55502  0  2.315626  0
O  O108  1  0.51748525  0.43596708  0.39725131  1  -1.165094  0  -0.322999  -0.555809  0  2.318793  0
O  O109  1  0.48774120  0.56241875  0.60305488  1  -1.171692  0  -0.323797  -0.556586  0  2.315714  0
O  O110  1  0.71917201  0.54271373  0.49539423  1  -1.177229  0  -0.318223  -0.556939  0  2.347362  0
O  O111  1  0.28183625  0.45899003  0.50312684  1  -1.175958  0  -0.31825  -0.55646  0  2.343266  0
O  O112  1  0.74666873  0.41625547  0.50000152  1  -1.162616  0  -0.323036  -0.550644  0  2.268229  0
O  O113  1  0.25304089  0.58554394  0.50249135  1  -1.158903  0  -0.32101  -0.550121  0  2.272956  0
