# generated using pymatgen
data_Al4H19C26ClO22
_symmetry_space_group_name_H-M   'P 1'
_cell_length_a   6.64994355
_cell_length_b   13.48928979
_cell_length_c   16.98879887
_cell_angle_alpha   90.03899075
_cell_angle_beta   88.65894239
_cell_angle_gamma   88.72029461
_symmetry_Int_Tables_number   1
_chemical_formula_structural   Al4H19C26ClO22
_chemical_formula_sum   'Al4 H19 C26 Cl1 O22'
_cell_volume   1523.14797653
_cell_formula_units_Z   1
loop_
 _symmetry_equiv_pos_site_id
 _symmetry_equiv_pos_as_xyz
  1  'x, y, z'
loop_
 _atom_site_type_symbol
 _atom_site_label
 _atom_site_symmetry_multiplicity
 _atom_site_fract_x
 _atom_site_fract_y
 _atom_site_fract_z
 _atom_site_occupancy
 _atom_site_pbe_bader_charge
 _atom_site_pbe_bader_spin_density
 _atom_site_pbe_cm5_charge
 _atom_site_pbe_ddec_charge
 _atom_site_pbe_ddec_spin_density
 _atom_site_pbe_ddec_sum_bond_order
 _atom_site_pbe_magmom
Al  Al0  1  0.88086397  0.50466998  0.50495416  1  2.50242  0  0.397119  1.646613  0  2.576802  0
Al  Al1  1  0.38187384  0.50303213  0.50068246  1  2.498678  0  0.3966  1.645631  0  2.575311  0
Al  Al2  1  0.38683746  0.99742792  0.00300213  1  2.499642  0  0.395599  1.635152  0  2.584546  0
Al  Al3  1  0.88738190  0.99571513  0.00300173  1  2.501897  0  0.396183  1.638081  0  2.588002  0
H  H4  1  0.40890690  0.21793212  0.17755580  1  0.129641  0  0.117973  0.121935  0  0.973367  0
H  H5  1  0.96471967  0.17181808  0.21515295  1  0.161626  0  0.112458  0.137346  0  1.040599  0
H  H6  1  0.41316698  0.30101635  0.30180540  1  0.144104  0  0.111368  0.108337  0  1.008076  0
H  H7  1  0.85624582  0.30691197  0.69861470  1  0.136464  0  0.114526  0.111711  0  0.997752  0
H  H8  1  0.85011839  0.22082029  0.82126518  1  0.129297  0  0.112906  0.113833  0  0.984045  0
H  H9  1  0.29977290  0.17120565  0.78936344  1  0.169977  0  0.111048  0.135778  0  1.040459  0
H  H10  1  0.93399190  0.79347631  0.18417866  1  0.077175  0  0.115528  0.115934  0  0.97639  0
H  H11  1  0.47498804  0.81381926  0.21127966  1  0.048518  0  0.112322  0.126016  0  0.989552  0
H  H12  1  0.94074025  0.68883820  0.30291883  1  0.077849  0  0.110388  0.104958  0  0.981829  0
H  H13  1  0.47791720  0.70763363  0.30823122  1  0.060784  0  0.11009  0.126568  0  0.991886  0
H  H14  1  0.51710059  0.76568790  0.82264348  1  0.104809  0  0.113925  0.14307  0  0.994069  0
H  H15  1  0.91642280  0.70719622  0.67177022  1  0.160606  0  0.114993  0.125114  0  0.987281  0
H  H16  1  0.45635951  0.71045941  0.70130097  1  0.098361  0  0.110552  0.127446  0  1.001046  0
H  H17  1  0.82965526  0.41987425  0.30832367  1  0.068415  0  0.107391  0.04297  0  0.975558  0
H  H18  1  0.43573697  0.41830462  0.69783141  1  0.082048  0  0.109395  0.046545  0  0.972613  0
H  H19  1  0.64290969  0.37621498  0.47891124  1  0.640948  0  0.357143  0.437394  0  0.841786  0
H  H20  1  0.12820562  0.62907820  0.47458215  1  0.635251  0  0.354948  0.433945  0  0.847791  0
H  H21  1  0.63657653  0.11672828  0.96677216  1  0.607005  0  0.35475  0.433464  0  0.849734  0
H  H22  1  0.14754863  0.87601282  0.96783398  1  0.627886  0  0.349476  0.428117  0  0.860748  0
C  C23  1  0.64033547  0.61989520  0.39358338  1  1.54739  0  0.256775  0.676099  0  4.124704  0
C  C24  1  0.60994781  0.62191094  0.60883826  1  1.5758  0  0.261206  0.675774  0  4.114521  0
C  C25  1  0.12648449  0.39497562  0.61393374  1  1.563803  0  0.265597  0.640371  0  4.115458  0
C  C26  1  0.14325097  0.39005058  0.39257217  1  1.564854  0  0.262158  0.641556  0  4.11442  0
C  C27  1  0.26470703  0.22471832  0.20970194  1  -0.016899  0  -0.067492  -0.035567  0  3.963093  0
C  C28  1  0.10918261  0.17157148  0.18369450  1  -0.018302  0  -0.06904  -0.198368  0  3.820131  0
C  C29  1  0.26354353  0.28654731  0.27915689  1  -0.123328  0  -0.042294  -0.006862  0  3.884319  0
C  C30  1  0.10767447  0.33373952  0.31875568  1  -0.005803  0  -0.022741  -0.157166  0  3.902402  0
C  C31  1  0.00362694  0.28976148  0.72348609  1  -0.043015  0  -0.04057  -0.006841  0  3.880147  0
C  C32  1  0.16121612  0.33618383  0.68702108  1  -0.023606  0  -0.020066  -0.154219  0  3.897139  0
C  C33  1  0.99745384  0.22615278  0.79175237  1  -0.071568  0  -0.067714  -0.031825  0  3.965436  0
C  C34  1  0.15302028  0.17080787  0.81909904  1  -0.015783  0  -0.07278  -0.200026  0  3.826528  0
C  C35  1  0.79061618  0.77920486  0.21440072  1  0.060293  0  -0.067115  -0.030519  0  3.974673  0
C  C36  1  0.62426779  0.82261098  0.18452213  1  -0.063402  0  -0.075871  -0.213058  0  3.859673  0
C  C37  1  0.79373567  0.71535889  0.28315873  1  -0.015909  0  -0.065156  -0.014251  0  3.975051  0
C  C38  1  0.62997166  0.68512631  0.32432771  1  -0.032731  0  -0.087607  -0.238258  0  3.882405  0
C  C39  1  0.79545353  0.79575352  0.76966864  1  0.063011  0  0.030323  0.188015  0  4.030243  0
C  C40  1  0.65330554  0.80860305  0.82742681  1  -0.007245  0  -0.091935  -0.301968  0  3.832698  0
C  C41  1  0.77672226  0.72841951  0.70317955  1  -0.127175  0  -0.069555  -0.07747  0  3.964577  0
C  C42  1  0.60474220  0.69153743  0.67618227  1  0.030761  0  -0.081983  -0.216424  0  3.867775  0
C  C43  1  0.65492119  0.87529029  0.89618314  1  1.590299  0  0.25739  0.696209  0  4.108942  0
C  C44  1  0.62874627  0.88523970  0.11324366  1  1.572506  0  0.261281  0.670267  0  4.125898  0
C  C45  1  0.12078388  0.11075222  0.11119334  1  1.559748  0  0.265467  0.675116  0  4.107406  0
C  C46  1  0.14289570  0.10967980  0.89127847  1  1.536812  0  0.258795  0.671192  0  4.113726  0
C  C47  1  0.89399527  0.34448139  0.29555931  1  0.943548  0  0.103244  0.302982  0  3.962664  0
C  C48  1  0.37149149  0.34520338  0.71336342  1  0.929968  0  0.10509  0.304881  0  3.956339  0
Cl  Cl49  1  0.02030064  0.85845169  0.76668175  1  -0.17979  0  0.015464  -0.052897  0  1.476773  0
O  O50  1  0.44326976  0.58429123  0.59045913  1  -1.248435  0  -0.236173  -0.585463  0  2.302062  0
O  O51  1  0.81154783  0.58560987  0.41429987  1  -1.263873  0  -0.244417  -0.615435  0  2.338754  0
O  O52  1  0.98257573  0.40271592  0.43504705  1  -1.262215  0  -0.239647  -0.616402  0  2.370049  0
O  O53  1  0.77885627  0.60479733  0.57378212  1  -1.266172  0  -0.237042  -0.598594  0  2.344945  0
O  O54  1  0.95252289  0.42784951  0.59685703  1  -1.248225  0  -0.229686  -0.568973  0  2.311396  0
O  O55  1  0.47130521  0.60263400  0.42824673  1  -1.259704  0  -0.245789  -0.61634  0  2.31264  0
O  O56  1  0.63468265  0.44191624  0.50200664  1  -1.444067  0  -0.446859  -0.991246  0  2.187754  0
O  O57  1  0.28632346  0.40596399  0.57179349  1  -1.259665  0  -0.235142  -0.600486  0  2.372385  0
O  O58  1  0.31687886  0.41959376  0.41004331  1  -1.250854  0  -0.236894  -0.583852  0  2.304217  0
O  O59  1  0.12950380  0.56511193  0.50048794  1  -1.436168  0  -0.448239  -0.988915  0  2.195557  0
O  O60  1  0.79683354  0.89981339  0.07831158  1  -1.252354  0  -0.233756  -0.586994  0  2.32983  0
O  O61  1  0.48341632  0.89307825  0.92956385  1  -1.242665  0  -0.243269  -0.603956  0  2.283962  0
O  O62  1  0.31447817  0.07721717  0.91375363  1  -1.251908  0  -0.239266  -0.599065  0  2.309693  0
O  O63  1  0.45799328  0.91933035  0.09189905  1  -1.250229  0  -0.234069  -0.581545  0  2.306858  0
O  O64  1  0.28951402  0.09705046  0.07538095  1  -1.257896  0  -0.233919  -0.590035  0  2.319746  0
O  O65  1  0.82264405  0.90849760  0.91764221  1  -1.251991  0  -0.239928  -0.607706  0  2.382503  0
O  O66  1  0.63538614  0.05748767  0.99908458  1  -1.409749  0  -0.446704  -0.985245  0  2.184744  0
O  O67  1  0.95330840  0.07640216  0.08988371  1  -1.245604  0  -0.229755  -0.57636  0  2.301986  0
O  O68  1  0.97364820  0.09443932  0.92556255  1  -1.252604  0  -0.239388  -0.604271  0  2.312214  0
O  O69  1  0.14055446  0.93459637  0.00103879  1  -1.430876  0  -0.44878  -0.987707  0  2.188699  0
O  O70  1  0.78914072  0.28226122  0.26467965  1  -1.089453  0  -0.247278  -0.349259  0  2.168408  0
O  O71  1  0.47361876  0.28424980  0.74957070  1  -1.082933  0  -0.251552  -0.354852  0  2.163605  0
