# generated using pymatgen
data_ZnH14C22(N3O2)2
_symmetry_space_group_name_H-M   'P 1'
_cell_length_a   12.84372026
_cell_length_b   13.65459368
_cell_length_c   13.55484100
_cell_angle_alpha   90.00237894
_cell_angle_beta   89.99831137
_cell_angle_gamma   103.44177535
_symmetry_Int_Tables_number   1
_chemical_formula_structural   ZnH14C22(N3O2)2
_chemical_formula_sum   'Zn4 H56 C88 N24 O16'
_cell_volume   2312.07160775
_cell_formula_units_Z   4
loop_
 _symmetry_equiv_pos_site_id
 _symmetry_equiv_pos_as_xyz
  1  'x, y, z'
loop_
 _atom_site_type_symbol
 _atom_site_label
 _atom_site_symmetry_multiplicity
 _atom_site_fract_x
 _atom_site_fract_y
 _atom_site_fract_z
 _atom_site_occupancy
 _atom_site_pbe_bader_charge
 _atom_site_pbe_bader_spin_density
 _atom_site_pbe_cm5_charge
 _atom_site_pbe_ddec_charge
 _atom_site_pbe_ddec_spin_density
 _atom_site_pbe_ddec_sum_bond_order
 _atom_site_pbe_magmom
Zn  Zn0  1  0.28300817  0.72559143  0.87729120  1  1.268844  0  0.681297  0.748918  0  2.435517  0
Zn  Zn1  1  0.71699592  0.77441750  0.37727882  1  1.268575  0  0.681261  0.748867  0  2.435704  0
Zn  Zn2  1  0.71699425  0.27441083  0.12271057  1  1.268874  0  0.681266  0.748929  0  2.435426  0
Zn  Zn3  1  0.28299890  0.22558551  0.62272221  1  1.268708  0  0.681251  0.748874  0  2.435463  0
H  H4  1  0.76154758  0.50109666  0.89109701  1  0.110816  0  0.10851  0.116696  0  1.038074  0
H  H5  1  0.23845019  0.99891051  0.39108823  1  0.1108  0  0.108503  0.116685  0  1.038012  0
H  H6  1  0.23843332  0.49891310  0.10890476  1  0.110489  0  0.108421  0.116649  0  1.038022  0
H  H7  1  0.76156006  0.00108876  0.60890247  1  0.110563  0  0.108475  0.116704  0  1.038013  0
H  H8  1  0.56250602  0.47716072  0.90905376  1  0.101516  0  0.10276  0.099326  0  1.027099  0
H  H9  1  0.43749414  0.02285280  0.40904159  1  0.101325  0  0.102709  0.099329  0  1.027039  0
H  H10  1  0.43748120  0.52287163  0.09094875  1  0.101092  0  0.102693  0.099333  0  1.027103  0
H  H11  1  0.56251123  0.97713291  0.59094985  1  0.101207  0  0.102706  0.099323  0  1.027063  0
H  H12  1  0.48893105  0.63320606  0.93634351  1  0.115677  0  0.106069  0.114311  0  1.037919  0
H  H13  1  0.51107302  0.86681029  0.43634371  1  0.115685  0  0.106037  0.114206  0  1.038067  0
H  H14  1  0.51107404  0.36682933  0.06365162  1  0.115722  0  0.106018  0.11416  0  1.038066  0
H  H15  1  0.48892456  0.13317541  0.56365953  1  0.115692  0  0.10602  0.114127  0  1.038087  0
H  H16  1  0.61538719  0.79964339  0.93670673  1  0.110568  0  0.112655  0.087957  0  1.025144  0
H  H17  1  0.38461903  0.70037222  0.43671824  1  0.110983  0  0.11272  0.088039  0  1.025086  0
H  H18  1  0.38463320  0.20038450  0.06329651  1  0.111264  0  0.112726  0.087961  0  1.025127  0
H  H19  1  0.61536917  0.29961647  0.56328722  1  0.110788  0  0.112718  0.087974  0  1.025123  0
H  H20  1  0.95701548  0.40694070  0.86696218  1  0.155484  0  0.112979  0.140199  0  1.032154  0
H  H21  1  0.04299362  0.09304045  0.36695733  1  0.155306  0  0.112954  0.140176  0  1.032122  0
H  H22  1  0.04298421  0.59304726  0.13302409  1  0.155489  0  0.112993  0.140158  0  1.032087  0
H  H23  1  0.95700493  0.90694600  0.63306140  1  0.155342  0  0.112898  0.140222  0  1.032186  0
H  H24  1  0.05700004  0.27063866  0.85020593  1  0.123242  0  0.112006  0.113969  0  0.963761  0
H  H25  1  0.94301825  0.22935243  0.35017797  1  0.123314  0  0.111946  0.113936  0  0.963741  0
H  H26  1  0.94301356  0.72935836  0.14979584  1  0.123257  0  0.111992  0.113982  0  0.963718  0
H  H27  1  0.05698140  0.77063854  0.64982675  1  0.123263  0  0.111973  0.114021  0  0.963772  0
H  H28  1  0.25841673  0.31898963  0.83241860  1  0.127961  0  0.108762  0.120895  0  1.021258  0
H  H29  1  0.74160118  0.18100082  0.33240235  1  0.128175  0  0.108717  0.120918  0  1.02128  0
H  H30  1  0.74159519  0.68101642  0.16757948  1  0.127839  0  0.108786  0.120957  0  1.021274  0
H  H31  1  0.25839844  0.81899316  0.66759572  1  0.128037  0  0.108727  0.120967  0  1.021193  0
H  H32  1  0.35042507  0.50203165  0.83549312  1  0.07894  0  0.121698  0.09181  0  0.973083  0
H  H33  1  0.64958715  0.99796072  0.33547282  1  0.079155  0  0.12176  0.091889  0  0.973051  0
H  H34  1  0.64957723  0.49797964  0.16450422  1  0.078968  0  0.12172  0.091855  0  0.973005  0
H  H35  1  0.35041213  0.00202874  0.66451567  1  0.079147  0  0.121717  0.091867  0  0.973012  0
H  H36  1  0.03018030  0.96421449  0.92337773  1  0.104381  0  0.114559  0.124522  0  1.000696  0
H  H37  1  0.96981738  0.53577729  0.42336452  1  0.104293  0  0.114511  0.124405  0  1.000746  0
H  H38  1  0.96983037  0.03578328  0.07659895  1  0.104213  0  0.114609  0.124609  0  1.000858  0
H  H39  1  0.03016940  0.46421516  0.57660922  1  0.104184  0  0.114603  0.124503  0  1.000887  0
H  H40  1  0.17011894  0.12944863  0.93675496  1  0.110547  0  0.109162  0.10603  0  1.013674  0
H  H41  1  0.82987068  0.37055082  0.43675306  1  0.110583  0  0.109159  0.106045  0  1.013737  0
H  H42  1  0.82988920  0.87054838  0.06324238  1  0.110753  0  0.109148  0.106012  0  1.013687  0
H  H43  1  0.17011995  0.62944465  0.56323986  1  0.110335  0  0.109197  0.106077  0  1.013556  0
H  H44  1  0.36280257  0.12536477  0.91482497  1  0.107097  0  0.112577  0.114269  0  1.020958  0
H  H45  1  0.63718801  0.37464217  0.41482640  1  0.104479  0  0.112562  0.11427  0  1.020928  0
H  H46  1  0.63720951  0.87462924  0.08519598  1  0.107084  0  0.112524  0.114171  0  1.021041  0
H  H47  1  0.36280143  0.62535480  0.58518348  1  0.107052  0  0.112566  0.114231  0  1.020904  0
H  H48  1  0.41117341  0.95713676  0.89773788  1  0.152661  0  0.124212  0.110031  0  1.004145  0
H  H49  1  0.58882518  0.54287140  0.39772749  1  0.152698  0  0.124243  0.110045  0  1.004186  0
H  H50  1  0.58884037  0.04286101  0.10226905  1  0.152835  0  0.124286  0.110166  0  1.004129  0
H  H51  1  0.41116215  0.45712331  0.60226912  1  0.152802  0  0.124248  0.110119  0  1.004165  0
H  H52  1  0.31605329  0.66047694  0.23923024  1  0.113741  0  0.108793  0.128853  0  0.995167  0
H  H53  1  0.68392682  0.83952469  0.73922145  1  0.113843  0  0.108742  0.128848  0  0.995159  0
H  H54  1  0.68392515  0.33954185  0.76077521  1  0.113849  0  0.108799  0.128889  0  0.994999  0
H  H55  1  0.31608641  0.16047083  0.26078401  1  0.114044  0  0.108731  0.128817  0  0.995204  0
H  H56  1  0.51057901  0.73613049  0.10377861  1  0.095585  0  0.101363  0.111839  0  1.039133  0
H  H57  1  0.48941191  0.76387903  0.60375585  1  0.095981  0  0.101474  0.111871  0  1.038995  0
H  H58  1  0.48941026  0.26389433  0.89624455  1  0.095968  0  0.101434  0.111858  0  1.03897  0
H  H59  1  0.51060289  0.23610068  0.39625551  1  0.095799  0  0.101379  0.111796  0  1.038907  0
C  C60  1  0.05188729  0.61041151  0.87329713  1  1.10836  0  0.273297  0.368683  0  3.994421  0
C  C61  1  0.94811182  0.88958297  0.37329345  1  1.104563  0  0.273417  0.368975  0  3.994374  0
C  C62  1  0.94810779  0.38958622  0.12670243  1  1.104433  0  0.273413  0.369027  0  3.994369  0
C  C63  1  0.05188197  0.11040950  0.62671053  1  1.107886  0  0.273435  0.368854  0  3.994815  0
C  C64  1  0.10329883  0.52490838  0.86075150  1  0.431633  0  0.120477  0.128919  0  3.975854  0
C  C65  1  0.89670408  0.97508415  0.36075210  1  0.435341  0  0.120195  0.12872  0  3.976124  0
C  C66  1  0.89669859  0.47508936  0.13924511  1  0.435692  0  0.120419  0.128918  0  3.975906  0
C  C67  1  0.10329008  0.02490983  0.63925040  1  0.432064  0  0.120335  0.128938  0  3.975985  0
C  C68  1  0.14997086  0.87890463  0.90637961  1  0.488793  0  0.118872  0.12597  0  3.994666  0
C  C69  1  0.85002907  0.62109105  0.40636593  1  0.488811  0  0.118816  0.125999  0  3.994251  0
C  C70  1  0.85003880  0.12109539  0.09360741  1  0.48809  0  0.11901  0.126508  0  3.994424  0
C  C71  1  0.14995890  0.37889990  0.59362477  1  0.488833  0  0.118895  0.126154  0  3.994555  0
C  C72  1  0.07398821  0.77994341  0.89733459  1  1.110427  0  0.270703  0.35966  0  4.019346  0
C  C73  1  0.92601898  0.72004894  0.39732295  1  1.110403  0  0.270816  0.359863  0  4.018794  0
C  C74  1  0.92601719  0.22005510  0.10265611  1  1.110219  0  0.270752  0.359524  0  4.019422  0
C  C75  1  0.07398076  0.27993601  0.60266111  1  1.110199  0  0.270758  0.359656  0  4.019353  0
C  C76  1  0.90792939  0.67731232  0.89994716  1  1.047459  0  0.27035  0.366611  0  3.966172  0
C  C77  1  0.09207398  0.82268388  0.39994320  1  1.047409  0  0.270279  0.366704  0  3.965976  0
C  C78  1  0.09206803  0.32268542  0.10004871  1  1.047175  0  0.270291  0.366772  0  3.966196  0
C  C79  1  0.90792348  0.17731085  0.60005046  1  1.046996  0  0.270261  0.366682  0  3.966139  0
C  C80  1  0.79043897  0.66209926  0.90836835  1  0.540561  0  0.112752  0.116826  0  4.014639  0
C  C81  1  0.20956607  0.83790478  0.40837355  1  0.54061  0  0.112708  0.116704  0  4.01468  0
C  C82  1  0.20956667  0.33790979  0.09162235  1  0.540751  0  0.112742  0.116613  0  4.014923  0
C  C83  1  0.79043662  0.16209221  0.59162379  1  0.54064  0  0.11269  0.116697  0  4.014649  0
C  C84  1  0.72507054  0.56461316  0.90235387  1  -0.045426  0  -0.07286  -0.126277  0  3.907922  0
C  C85  1  0.27492951  0.93539517  0.40235174  1  -0.045729  0  -0.072868  -0.126223  0  3.908004  0
C  C86  1  0.27491981  0.43540338  0.09764200  1  -0.045565  0  -0.072869  -0.126264  0  3.907741  0
C  C87  1  0.72507267  0.06459656  0.59764560  1  -0.045695  0  -0.072808  -0.126205  0  3.907754  0
C  C88  1  0.61482310  0.55232942  0.91263414  1  0.021509  0  -0.07227  -0.037773  0  3.969108  0
C  C89  1  0.38517526  0.94768606  0.41262944  1  0.021039  0  -0.072206  -0.037771  0  3.969114  0
C  C90  1  0.38517213  0.44770069  0.08736763  1  0.021111  0  -0.072191  -0.037728  0  3.968939  0
C  C91  1  0.61482754  0.05230191  0.58737159  1  0.021437  0  -0.072274  -0.03783  0  3.969247  0
C  C92  1  0.57417977  0.63733220  0.92682699  1  -0.090163  0  -0.078524  -0.116222  0  3.931993  0
C  C93  1  0.42582428  0.86268606  0.42682940  1  -0.089798  0  -0.078512  -0.116159  0  3.931829  0
C  C94  1  0.42582343  0.36269867  0.07317035  1  -0.089958  0  -0.078529  -0.116168  0  3.932002  0
C  C95  1  0.57417986  0.13730417  0.57317458  1  -0.090268  0  -0.078522  -0.116138  0  3.931934  0
C  C96  1  0.64609267  0.73183871  0.92997149  1  0.462123  0  0.047096  0.090332  0  3.970135  0
C  C97  1  0.35391470  0.76817440  0.42998596  1  0.461881  0  0.04709  0.090335  0  3.969942  0
C  C98  1  0.35392075  0.26818615  0.07002585  1  0.46176  0  0.04709  0.090379  0  3.969991  0
C  C99  1  0.64607853  0.23181581  0.57002318  1  0.462278  0  0.047145  0.090492  0  3.969995  0
C  C100  1  0.04410356  0.42504356  0.85960968  1  0.036769  0  -0.068011  -0.125543  0  3.877967  0
C  C101  1  0.95590388  0.07494259  0.35960513  1  0.037037  0  -0.067871  -0.125439  0  3.878011  0
C  C102  1  0.95589605  0.57495042  0.14038693  1  0.036467  0  -0.067974  -0.125509  0  3.877902  0
C  C103  1  0.04409188  0.92504838  0.64040992  1  0.036537  0  -0.067832  -0.125443  0  3.877652  0
C  C104  1  0.10037704  0.34948859  0.85013910  1  -0.12192  0  -0.067069  -0.02984  0  3.949405  0
C  C105  1  0.89963813  0.15050249  0.35012011  1  -0.121777  0  -0.066993  -0.029835  0  3.949057  0
C  C106  1  0.89963202  0.65051218  0.14986045  1  -0.121822  0  -0.067067  -0.029798  0  3.948971  0
C  C107  1  0.10035900  0.84948772  0.64988756  1  -0.121971  0  -0.067087  -0.030024  0  3.949144  0
C  C108  1  0.21160172  0.37569067  0.84122025  1  0.015424  0  -0.075413  -0.115838  0  3.939193  0
C  C109  1  0.78841072  0.12430084  0.34120548  1  0.015318  0  -0.075364  -0.11577  0  3.939071  0
C  C110  1  0.78840534  0.62431462  0.15878004  1  0.015635  0  -0.075451  -0.116057  0  3.939073  0
C  C111  1  0.21158600  0.87569088  0.65879481  1  0.015638  0  -0.075368  -0.115929  0  3.939282  0
C  C112  1  0.26354054  0.47785413  0.84269125  1  0.529815  0  0.057216  0.105178  0  3.945423  0
C  C113  1  0.73646645  0.02213441  0.34268398  1  0.529528  0  0.057099  0.105019  0  3.945598  0
C  C114  1  0.73646124  0.52215190  0.15730683  1  0.529654  0  0.057201  0.105211  0  3.945103  0
C  C115  1  0.26353049  0.97785505  0.65731705  1  0.529112  0  0.057222  0.105205  0  3.945488  0
C  C116  1  0.11569231  0.96788433  0.91907778  1  -0.009824  0  -0.068898  -0.132766  0  3.914204  0
C  C117  1  0.88430501  0.53211181  0.41906311  1  -0.00981  0  -0.068858  -0.13273  0  3.914051  0
C  C118  1  0.88431872  0.03211494  0.08090997  1  -0.009171  0  -0.068943  -0.133182  0  3.914176  0
C  C119  1  0.11567911  0.46787612  0.58092390  1  -0.009811  0  -0.068879  -0.132759  0  3.913957  0
C  C120  1  0.19291026  0.05839050  0.92421299  1  -0.043518  0  -0.056425  -0.013357  0  3.923592  0
C  C121  1  0.80708587  0.44160851  0.42420953  1  -0.043502  0  -0.056391  -0.013296  0  3.923623  0
C  C122  1  0.80710214  0.94160802  0.07578067  1  -0.043883  0  -0.056326  -0.013069  0  3.923075  0
C  C123  1  0.19290095  0.55838093  0.57578486  1  -0.043183  0  -0.056451  -0.013271  0  3.923  0
C  C124  1  0.30054010  0.05620740  0.91530613  1  -0.051223  0  -0.06204  -0.085116  0  3.903178  0
C  C125  1  0.69945738  0.44379279  0.41530135  1  -0.048548  0  -0.062038  -0.085144  0  3.902975  0
C  C126  1  0.69947175  0.94378886  0.08470670  1  -0.050751  0  -0.062105  -0.085209  0  3.90341  0
C  C127  1  0.30053032  0.55620343  0.58470189  1  -0.050543  0  -0.062082  -0.085247  0  3.90313  0
C  C128  1  0.32840998  0.96381404  0.90465626  1  0.536689  0  0.062987  0.104147  0  3.89911  0
C  C129  1  0.67159239  0.53619137  0.40464918  1  0.536486  0  0.06298  0.104088  0  3.899185  0
C  C130  1  0.67159990  0.03618373  0.09534772  1  0.536115  0  0.062942  0.104057  0  3.89927  0
C  C131  1  0.32840073  0.46380787  0.59535185  1  0.535926  0  0.062947  0.104071  0  3.898922  0
C  C132  1  0.29875505  0.69296507  0.08079183  1  1.531732  0  0.192124  0.6018  0  4.227172  0
C  C133  1  0.70124215  0.80704814  0.58078119  1  1.531451  0  0.192306  0.602221  0  4.226756  0
C  C134  1  0.70123471  0.30705223  0.91921215  1  1.531296  0  0.192394  0.602313  0  4.226355  0
C  C135  1  0.29876621  0.19294661  0.41922279  1  1.531731  0  0.192232  0.602044  0  4.226699  0
C  C136  1  0.36158898  0.68534530  0.17218914  1  -0.0255  0  -0.083285  -0.175554  0  3.891775  0
C  C137  1  0.63840591  0.81466370  0.67217171  1  -0.024935  0  -0.083178  -0.175732  0  3.891349  0
C  C138  1  0.63840311  0.31467200  0.82782739  1  -0.024742  0  -0.083239  -0.175719  0  3.891222  0
C  C139  1  0.36160672  0.18533256  0.32783595  1  -0.024767  0  -0.083192  -0.175652  0  3.891479  0
C  C140  1  0.46900287  0.70934007  0.17230765  1  -0.1158  0  -0.090941  -0.187383  0  3.920606  0
C  C141  1  0.53097771  0.79066138  0.67228337  1  -0.116887  0  -0.091008  -0.187111  0  3.919675  0
C  C142  1  0.53097360  0.29068022  0.82771182  1  -0.116138  0  -0.091009  -0.187299  0  3.919731  0
C  C143  1  0.46903508  0.20932284  0.32772061  1  -0.11629  0  -0.090955  -0.187145  0  3.919592  0
C  C144  1  0.53644766  0.70471715  0.26081005  1  1.55642  0  0.19382  0.600307  0  4.2237  0
C  C145  1  0.46354377  0.79527624  0.76080187  1  1.555439  0  0.193694  0.59999  0  4.223876  0
C  C146  1  0.46355015  0.29529489  0.73919614  1  1.555916  0  0.193886  0.60036  0  4.223685  0
C  C147  1  0.53646641  0.20471324  0.23920064  1  1.554744  0  0.193613  0.59991  0  4.224179  0
N  N148  1  0.11792404  0.70246982  0.87550989  1  -1.246219  0  -0.321365  -0.376647  0  3.522202  0
N  N149  1  0.88208415  0.79752702  0.37550051  1  -1.246063  0  -0.321392  -0.376764  0  3.522325  0
N  N150  1  0.88207898  0.29753170  0.12447933  1  -1.246036  0  -0.321408  -0.376712  0  3.522656  0
N  N151  1  0.11791087  0.20246094  0.62448576  1  -1.246003  0  -0.321454  -0.376679  0  3.522726  0
N  N152  1  0.25436275  0.87691308  0.90007851  1  -1.203913  0  -0.305792  -0.250903  0  3.506177  0
N  N153  1  0.74563898  0.62308915  0.40006858  1  -1.203797  0  -0.305763  -0.250805  0  3.506172  0
N  N154  1  0.74564731  0.12308544  0.09991809  1  -1.203546  0  -0.305919  -0.251159  0  3.506357  0
N  N155  1  0.25435065  0.37690858  0.59992876  1  -1.203653  0  -0.305834  -0.250974  0  3.506169  0
N  N156  1  0.94616829  0.59458505  0.88339508  1  -1.165007  0  -0.292165  -0.373685  0  3.199377  0
N  N157  1  0.05383872  0.90541432  0.38339197  1  -1.164795  0  -0.292204  -0.373956  0  3.199015  0
N  N158  1  0.05383496  0.40541420  0.11660447  1  -1.164889  0  -0.29215  -0.373928  0  3.199249  0
N  N159  1  0.94615485  0.09458040  0.61661422  1  -1.164691  0  -0.292103  -0.373784  0  3.199276  0
N  N160  1  0.96944343  0.77131145  0.91085065  1  -1.149989  0  -0.293994  -0.377167  0  3.201224  0
N  N161  1  0.03056126  0.72868516  0.41084594  1  -1.15014  0  -0.29403  -0.37727  0  3.200984  0
N  N162  1  0.03056074  0.22869157  0.08912899  1  -1.149743  0  -0.293989  -0.377203  0  3.201309  0
N  N163  1  0.96943761  0.27130581  0.58914181  1  -1.150006  0  -0.294009  -0.377286  0  3.201082  0
N  N164  1  0.21104804  0.55092071  0.85281463  1  -1.207086  0  -0.298319  -0.254754  0  3.439277  0
N  N165  1  0.78895528  0.94906927  0.35280683  1  -1.207282  0  -0.298181  -0.25465  0  3.439442  0
N  N166  1  0.78894760  0.44907929  0.14718935  1  -1.207029  0  -0.298349  -0.254806  0  3.439042  0
N  N167  1  0.21104144  0.05092245  0.64719051  1  -1.206444  0  -0.298292  -0.254779  0  3.439305  0
N  N168  1  0.75205801  0.74496773  0.92214061  1  -1.160782  0  -0.310949  -0.283506  0  3.324052  0
N  N169  1  0.24795292  0.75503984  0.42215675  1  -1.160567  0  -0.310947  -0.283535  0  3.324095  0
N  N170  1  0.24795631  0.25504811  0.07785230  1  -1.160357  0  -0.310897  -0.283392  0  3.324176  0
N  N171  1  0.75204028  0.24495338  0.57784796  1  -1.16038  0  -0.310951  -0.283584  0  3.324177  0
O  O172  1  0.35473155  0.70503468  0.99965121  1  -1.167464  0  -0.338606  -0.558936  0  2.35833  0
O  O173  1  0.64526692  0.79496363  0.49963949  1  -1.167546  0  -0.338643  -0.559044  0  2.358095  0
O  O174  1  0.64525322  0.29496228  0.00035793  1  -1.167587  0  -0.338722  -0.559136  0  2.357672  0
O  O175  1  0.35473807  0.20503638  0.50036375  1  -1.167702  0  -0.338601  -0.55893  0  2.358011  0
O  O176  1  0.20005836  0.68645712  0.08630697  1  -1.149368  0  -0.337152  -0.559128  0  2.078411  0
O  O177  1  0.79994535  0.81357061  0.58628647  1  -1.14916  0  -0.337275  -0.559358  0  2.078227  0
O  O178  1  0.79993924  0.31358578  0.91370513  1  -1.149131  0  -0.337272  -0.559319  0  2.078046  0
O  O179  1  0.20005913  0.18640833  0.41371235  1  -1.149256  0  -0.33722  -0.559253  0  2.077919  0
O  O180  1  0.63247267  0.76433298  0.25487186  1  -1.165166  0  -0.344139  -0.573385  0  2.303711  0
O  O181  1  0.36751778  0.73565568  0.75486828  1  -1.164406  0  -0.344179  -0.573396  0  2.303536  0
O  O182  1  0.36752415  0.23566552  0.74513507  1  -1.165167  0  -0.344152  -0.573489  0  2.30353  0
O  O183  1  0.63249036  0.26434132  0.24514012  1  -1.164541  0  -0.344118  -0.573337  0  2.303478  0
O  O184  1  0.50264571  0.64859897  0.33205327  1  -1.176295  0  -0.318894  -0.544261  0  2.121324  0
O  O185  1  0.49735483  0.85139928  0.83204501  1  -1.175898  0  -0.318803  -0.544147  0  2.121391  0
O  O186  1  0.49735655  0.35141533  0.66795662  1  -1.176281  0  -0.318953  -0.54429  0  2.121339  0
O  O187  1  0.50265546  0.14859698  0.16795454  1  -1.175968  0  -0.318731  -0.544037  0  2.121599  0
