# generated using pymatgen
data_CoH6C12(NO2)2
_symmetry_space_group_name_H-M   'P 1'
_cell_length_a   10.65577568
_cell_length_b   12.51063588
_cell_length_c   13.68292029
_cell_angle_alpha   89.99942502
_cell_angle_beta   111.47847342
_cell_angle_gamma   90.00012788
_symmetry_Int_Tables_number   1
_chemical_formula_structural   CoH6C12(NO2)2
_chemical_formula_sum   'Co4 H24 C48 N8 O16'
_cell_volume   1697.40466275
_cell_formula_units_Z   4
loop_
 _symmetry_equiv_pos_site_id
 _symmetry_equiv_pos_as_xyz
  1  'x, y, z'
loop_
 _atom_site_type_symbol
 _atom_site_label
 _atom_site_symmetry_multiplicity
 _atom_site_fract_x
 _atom_site_fract_y
 _atom_site_fract_z
 _atom_site_occupancy
 _atom_site_pbe_bader_charge
 _atom_site_pbe_bader_spin_density
 _atom_site_pbe_cm5_charge
 _atom_site_pbe_ddec_charge
 _atom_site_pbe_ddec_spin_density
 _atom_site_pbe_ddec_sum_bond_order
 _atom_site_pbe_magmom
Co  Co0  1  0.91443663  0.56059764  0.98160165  1  1.192118  2.596461  0.613907  0.763938  2.8159  2.764083  2.578
Co  Co1  1  0.08560230  0.06067046  0.51844849  1  1.190647  2.596713  0.613495  0.763379  2.81584  2.761655  2.579
Co  Co2  1  0.08543341  0.43945165  0.01839944  1  1.187318  2.596372  0.613331  0.763129  2.816106  2.760115  2.579
Co  Co3  1  0.91455506  0.93949473  0.48165215  1  1.188032  2.596203  0.613422  0.763542  2.815989  2.760237  2.579
H  H4  1  0.03722124  0.77898579  0.78522314  1  0.146459  0.000606  0.115435  0.129851  0.000326  0.984368  0.0
H  H5  1  0.96273574  0.27897873  0.71479112  1  0.147057  0.000607  0.115485  0.130093  0.000327  0.984478  0.0
H  H6  1  0.96274869  0.22102513  0.21479722  1  0.146906  0.000606  0.115496  0.130033  0.000326  0.984402  0.0
H  H7  1  0.03719996  0.72103459  0.28520914  1  0.146073  0.000605  0.11537  0.129791  0.000325  0.984376  0.0
H  H8  1  0.40847829  0.91943134  0.79259610  1  0.093751  0.000393  0.106929  0.111716  0.00015  1.004394  0.0
H  H9  1  0.59148455  0.41941099  0.70741269  1  0.094089  0.000393  0.107041  0.111919  0.00015  1.00439  0.0
H  H10  1  0.59149787  0.08057239  0.20739170  1  0.093691  0.000391  0.106959  0.111727  0.000149  1.004368  0.0
H  H11  1  0.40844593  0.58054717  0.29261823  1  0.093868  0.000393  0.106906  0.111682  0.00015  1.004347  0.0
H  H12  1  0.41453333  0.64609486  0.98835000  1  0.100306  0.000344  0.107656  0.113065  0.000131  1.000606  0.0
H  H13  1  0.58547067  0.14614136  0.51159866  1  0.100596  0.000345  0.107727  0.113072  0.00013  1.000622  0.0
H  H14  1  0.58548364  0.35382973  0.01156405  1  0.100333  0.000345  0.107834  0.113206  0.000131  1.000737  0.0
H  H15  1  0.41450243  0.85386717  0.48839557  1  0.10077  0.000345  0.107761  0.113117  0.000131  1.000598  0.0
H  H16  1  0.59854549  0.95624557  0.97651855  1  0.086892  0.000153  0.11661  0.082548  2.2e-05  0.985375  0.0
H  H17  1  0.40142069  0.45624609  0.52342216  1  0.086656  0.000153  0.116513  0.082544  2.2e-05  0.985558  0.0
H  H18  1  0.40142207  0.04373098  0.02337834  1  0.086352  0.000153  0.11642  0.08245  2.2e-05  0.985504  0.0
H  H19  1  0.59857072  0.54373525  0.47654811  1  0.086317  0.000153  0.116529  0.082578  2.2e-05  0.985393  0.0
H  H20  1  0.96038245  0.79539974  0.04120139  1  0.104042  0.000546  0.136571  0.087699  9.2e-05  0.966829  0.0
H  H21  1  0.03962079  0.29535266  0.45877468  1  0.103829  0.000549  0.136605  0.087726  9.2e-05  0.966832  0.0
H  H22  1  0.03963515  0.20463356  0.95878080  1  0.103749  0.000547  0.13664  0.087835  9.2e-05  0.966685  0.0
H  H23  1  0.96035646  0.70462149  0.54120028  1  0.103788  0.000546  0.136526  0.087599  9.2e-05  0.966745  0.0
H  H24  1  0.60988960  0.61774592  0.91624064  1  0.124581  0.001486  0.12928  0.104419  0.000512  0.968321  0.001
H  H25  1  0.39014380  0.11775697  0.58369628  1  0.124392  0.00149  0.129287  0.104491  0.000513  0.96819  0.001
H  H26  1  0.39017690  0.38221544  0.08366501  1  0.124809  0.001483  0.129219  0.104424  0.00051  0.968009  0.001
H  H27  1  0.60982205  0.88225075  0.41633313  1  0.124324  0.001483  0.129233  0.104414  0.00051  0.96787  0.001
C  C28  1  0.14285052  0.62774977  0.93138656  1  1.533101  -0.0114  0.218027  0.575568  -0.015146  4.156437  -0.01
C  C29  1  0.85720748  0.12780087  0.56866771  1  1.533126  -0.011411  0.218473  0.575954  -0.015158  4.155652  -0.01
C  C30  1  0.85717797  0.37222278  0.06863751  1  1.533768  -0.011429  0.218308  0.575819  -0.015183  4.15593  -0.01
C  C31  1  0.14286131  0.87226920  0.43137599  1  1.532633  -0.011384  0.218399  0.576436  -0.015135  4.156311  -0.01
C  C32  1  0.21878185  0.70631439  0.89251008  1  0.005824  0.010483  -0.012217  -0.016785  0.005522  3.99031  0.008
C  C33  1  0.78121973  0.20635136  0.60749578  1  0.006506  0.010494  -0.012336  -0.016976  0.005527  3.989901  0.008
C  C34  1  0.78120545  0.29366216  0.10747362  1  0.005851  0.010492  -0.012196  -0.016819  0.005526  3.990104  0.008
C  C35  1  0.21878049  0.79368514  0.39252818  1  0.00548  0.010479  -0.012247  -0.016774  0.005521  3.990458  0.008
C  C36  1  0.14692761  0.78091446  0.81693967  1  -0.036865  -0.002866  -0.06538  -0.088947  -0.003517  3.89305  -0.002
C  C37  1  0.85305044  0.28094034  0.68309891  1  -0.037941  -0.002871  -0.065286  -0.088987  -0.003523  3.893024  -0.002
C  C38  1  0.85306149  0.21906608  0.18308401  1  -0.037922  -0.002872  -0.065296  -0.088891  -0.003525  3.892579  -0.002
C  C39  1  0.14690023  0.71908017  0.31693490  1  -0.036092  -0.002865  -0.065257  -0.08895  -0.003516  3.893034  -0.002
C  C40  1  0.21550705  0.85610594  0.77971953  1  -0.004985  0.01147  -0.011482  -0.013213  0.006028  3.980579  0.009
C  C41  1  0.78441653  0.35613931  0.72028439  1  -0.003873  0.011471  -0.011711  -0.013904  0.006029  3.981413  0.009
C  C42  1  0.78445490  0.14387700  0.22028245  1  -0.003576  0.011474  -0.011659  -0.013827  0.00603  3.980829  0.009
C  C43  1  0.21544847  0.64389799  0.27971452  1  -0.005795  0.011469  -0.011532  -0.013318  0.006027  3.980665  0.009
C  C44  1  0.13763499  0.92304782  0.68701009  1  1.544269  -0.009006  0.21581  0.573696  -0.011974  4.160762  -0.009
C  C45  1  0.86234876  0.42301397  0.81305438  1  1.543633  -0.009033  0.215611  0.573554  -0.012016  4.160353  -0.009
C  C46  1  0.86238514  0.07702385  0.31306784  1  1.543729  -0.009007  0.215731  0.574011  -0.011974  4.159891  -0.009
C  C47  1  0.13758370  0.57697377  0.18698296  1  1.544502  -0.008983  0.215617  0.573692  -0.011953  4.16027  -0.009
C  C48  1  0.35638238  0.86014478  0.82235034  1  -0.055904  -0.004045  -0.076418  -0.140235  -0.004634  3.925924  -0.002
C  C49  1  0.64355552  0.36013922  0.67761967  1  -0.057879  -0.00406  -0.076313  -0.140148  -0.004652  3.926872  -0.002
C  C50  1  0.64357275  0.13984296  0.17760437  1  -0.052995  -0.004058  -0.076254  -0.139947  -0.004648  3.926028  -0.002
C  C51  1  0.35634997  0.63984851  0.32236386  1  -0.051957  -0.00404  -0.076362  -0.140205  -0.004628  3.925617  -0.002
C  C52  1  0.42960663  0.78453357  0.89746967  1  -0.046572  0.0029  -0.011626  0.057435  0.001311  4.060057  0.002
C  C53  1  0.57035665  0.28451432  0.60249739  1  -0.04622  0.002898  -0.01155  0.057926  0.00131  4.061009  0.002
C  C54  1  0.57037785  0.21544937  0.10247448  1  -0.050062  0.002898  -0.011422  0.057834  0.001309  4.060932  0.002
C  C55  1  0.42956194  0.71543425  0.39749138  1  -0.050489  0.002897  -0.01134  0.057963  0.001309  4.060056  0.002
C  C56  1  0.35988426  0.70613205  0.93065461  1  -0.009277  -0.004526  -0.076255  -0.137958  -0.005104  3.924748  -0.003
C  C57  1  0.64009843  0.20617001  0.56929465  1  -0.00963  -0.004537  -0.07652  -0.138183  -0.005115  3.92472  -0.003
C  C58  1  0.64011451  0.29381413  0.06926223  1  -0.009694  -0.004537  -0.076784  -0.138406  -0.005114  3.925136  -0.003
C  C59  1  0.35985957  0.79383931  0.43069084  1  -0.009527  -0.004524  -0.076668  -0.138339  -0.005101  3.925271  -0.003
C  C60  1  0.57834081  0.78690425  0.93902574  1  -0.012651  0.003476  0.001255  -0.01798  0.001723  4.008057  0.003
C  C61  1  0.42166494  0.28692597  0.56093160  1  -0.012229  0.003482  0.001341  -0.018385  0.001726  4.009028  0.003
C  C62  1  0.42169429  0.21304593  0.06089644  1  -0.011104  0.003468  0.001233  -0.018232  0.00172  4.009536  0.003
C  C63  1  0.57829296  0.71306576  0.43907214  1  -0.010854  0.003471  0.001098  -0.018323  0.001721  4.007898  0.003
C  C64  1  0.65138227  0.88143407  0.97569385  1  0.607157  -0.00157  0.067392  0.082932  -0.001826  3.939268  -0.001
C  C65  1  0.34858800  0.38145288  0.52425969  1  0.607051  -0.001572  0.067516  0.08293  -0.001828  3.939638  -0.001
C  C66  1  0.34860433  0.11853049  0.02423118  1  0.606957  -0.001564  0.067482  0.082672  -0.001818  3.939423  -0.001
C  C67  1  0.65138009  0.61854285  0.47572651  1  0.606409  -0.001567  0.067263  0.082545  -0.001822  3.939204  -0.001
C  C68  1  0.85060349  0.79443263  0.01247283  1  1.122532  -0.001147  0.190367  0.249109  -0.001784  3.92735  -0.001
C  C69  1  0.14940580  0.29442458  0.48750645  1  1.122478  -0.001149  0.190344  0.249274  -0.001788  3.927338  -0.001
C  C70  1  0.14942527  0.20555431  0.98750088  1  1.123236  -0.001144  0.190342  0.24904  -0.001781  3.92746  -0.001
C  C71  1  0.85057536  0.70556396  0.51249156  1  1.12344  -0.001147  0.190425  0.249459  -0.001784  3.927384  -0.001
C  C72  1  0.65613180  0.69549726  0.94345674  1  0.520939  0.000241  0.077286  0.085772  -0.00036  3.86941  0.0
C  C73  1  0.34391041  0.19550932  0.55650684  1  0.51991  0.000244  0.077396  0.085986  -0.00036  3.870221  0.0
C  C74  1  0.34394159  0.30446091  0.05648086  1  0.518463  0.000242  0.077243  0.085901  -0.000362  3.869961  0.0
C  C75  1  0.65607664  0.80448801  0.44352210  1  0.520078  0.000238  0.077316  0.085973  -0.000365  3.869437  0.0
N  N76  1  0.79108990  0.69937467  0.97957103  1  -1.247836  0.048636  -0.307695  -0.225967  0.02741  3.459305  0.038
N  N77  1  0.20897557  0.19939411  0.52038825  1  -1.246905  0.048695  -0.307721  -0.226045  0.027441  3.460891  0.038
N  N78  1  0.20899664  0.30058589  0.02036524  1  -1.246536  0.048564  -0.307412  -0.226107  0.027366  3.459215  0.038
N  N79  1  0.79102981  0.80060323  0.47961527  1  -1.247343  0.048549  -0.307391  -0.226421  0.02736  3.45948  0.038
N  N80  1  0.78623714  0.88594672  0.01234169  1  -1.25567  0.004798  -0.317856  -0.287568  0.0024  3.263249  0.004
N  N81  1  0.21373581  0.38595155  0.48760726  1  -1.255278  0.004802  -0.317743  -0.287316  0.002402  3.262996  0.004
N  N82  1  0.21375046  0.11402264  0.98758509  1  -1.255971  0.004791  -0.317948  -0.287355  0.002396  3.262737  0.004
N  N83  1  0.78624550  0.61401781  0.51236375  1  -1.255435  0.004792  -0.317829  -0.287409  0.002397  3.262361  0.004
O  O84  1  0.02527822  0.65546212  0.92635719  1  -1.126211  0.08565  -0.300542  -0.524132  0.04429  2.379658  0.077
O  O85  1  0.97480959  0.15556131  0.57378141  1  -1.125406  0.085785  -0.301041  -0.524515  0.044331  2.378144  0.077
O  O86  1  0.97477492  0.34445288  0.07377994  1  -1.126055  0.085887  -0.300838  -0.524053  0.044381  2.378311  0.078
O  O87  1  0.02532651  0.84452235  0.42632992  1  -1.12556  0.085684  -0.300577  -0.524311  0.044296  2.37938  0.077
O  O88  1  0.19817557  0.53851115  0.96775485  1  -1.123476  0.092563  -0.306233  -0.514595  0.048284  2.327774  0.081
O  O89  1  0.80193340  0.03858333  0.53223673  1  -1.123566  0.092611  -0.306143  -0.514306  0.048317  2.329052  0.081
O  O90  1  0.80194235  0.46146860  0.03216707  1  -1.12362  0.092652  -0.306187  -0.514683  0.048341  2.32976  0.081
O  O91  1  0.19816688  0.96152191  0.46777219  1  -1.123684  0.092573  -0.306372  -0.515115  0.048289  2.327805  0.081
O  O92  1  0.01978933  0.88950297  0.63182197  1  -1.134667  0.079256  -0.301118  -0.538574  0.040516  2.386984  0.074
O  O93  1  0.98023873  0.38941915  0.86827677  1  -1.13335  0.079402  -0.30099  -0.538552  0.040589  2.386261  0.074
O  O94  1  0.98028404  0.11060467  0.36830930  1  -1.134262  0.079268  -0.301231  -0.539192  0.040522  2.385815  0.074
O  O95  1  0.01970794  0.61048466  0.13175004  1  -1.135158  0.079158  -0.301064  -0.538821  0.040474  2.386872  0.073
O  O96  1  0.19323064  0.00476372  0.66418804  1  -1.12535  0.095027  -0.309397  -0.51136  0.04966  2.294735  0.082
O  O97  1  0.80686966  0.50474746  0.83592414  1  -1.126053  0.095082  -0.309436  -0.511154  0.049688  2.296658  0.082
O  O98  1  0.80685412  0.99532393  0.33589096  1  -1.125555  0.094965  -0.309166  -0.510943  0.049621  2.295895  0.082
O  O99  1  0.19320471  0.49526346  0.16420960  1  -1.125775  0.094978  -0.309423  -0.511242  0.049628  2.294383  0.082
