# generated using pymatgen
data_ZnH14C13N(O2F)4
_symmetry_space_group_name_H-M   'P 1'
_cell_length_a   9.78398451
_cell_length_b   15.40992450
_cell_length_c   15.20278837
_cell_angle_alpha   89.93457495
_cell_angle_beta   90.71092855
_cell_angle_gamma   89.63513190
_symmetry_Int_Tables_number   1
_chemical_formula_structural   ZnH14C13N(O2F)4
_chemical_formula_sum   'Zn4 H56 C52 N4 O32 F16'
_cell_volume   2291.90680884
_cell_formula_units_Z   4
loop_
 _symmetry_equiv_pos_site_id
 _symmetry_equiv_pos_as_xyz
  1  'x, y, z'
loop_
 _atom_site_type_symbol
 _atom_site_label
 _atom_site_symmetry_multiplicity
 _atom_site_fract_x
 _atom_site_fract_y
 _atom_site_fract_z
 _atom_site_occupancy
 _atom_site_pbe_bader_charge
 _atom_site_pbe_bader_spin_density
 _atom_site_pbe_cm5_charge
 _atom_site_pbe_ddec_charge
 _atom_site_pbe_ddec_spin_density
 _atom_site_pbe_ddec_sum_bond_order
 _atom_site_pbe_magmom
Zn  Zn0  1  0.63641636  0.49466626  0.99894230  1  1.293515  0  0.682054  0.85802  0  2.300006  0
Zn  Zn1  1  0.34444234  0.49725721  0.00566583  1  1.28233  0  0.679193  0.842221  0  2.315801  0
Zn  Zn2  1  0.65866996  0.99956719  0.51124893  1  1.316636  0  0.688694  0.86729  0  2.262383  0
Zn  Zn3  1  0.36320267  0.99727697  0.49126281  1  1.288082  0  0.683161  0.847491  0  2.302488  0
H  H4  1  0.72728999  0.30604083  0.18535786  1  0.110198  0  0.09711  0.134095  0  1.011651  0
H  H5  1  0.57265957  0.38089705  0.29458077  1  0.109621  0  0.105964  0.141564  0  0.959632  0
H  H6  1  0.58545675  0.61098572  0.30135165  1  0.083102  0  0.107238  0.144106  0  0.953518  0
H  H7  1  0.72673369  0.68746126  0.19380408  1  0.07099  0  0.100898  0.128184  0  1.003117  0
H  H8  1  0.41987228  0.89070013  0.80881578  1  0.07779  0  0.103771  0.13666  0  0.964998  0
H  H9  1  0.26713243  0.81629761  0.69487798  1  0.086015  0  0.093553  0.122311  0  1.022036  0
H  H10  1  0.25795872  0.19510289  0.69025190  1  0.083207  0  0.099892  0.127362  0  0.989228  0
H  H11  1  0.41153412  0.11949050  0.79370605  1  0.083999  0  0.1025  0.135979  0  0.961663  0
H  H12  1  0.65597583  0.22040155  0.12137738  1  0.046706  0  0.101579  0.125084  0  0.970379  0
H  H13  1  0.39224053  0.38370304  0.27494018  1  0.043342  0  0.098417  0.112666  0  0.9856  0
H  H14  1  0.40598641  0.60013942  0.28376809  1  0.010474  0  0.098476  0.112077  0  0.993809  0
H  H15  1  0.65131132  0.77410715  0.13215580  1  0.048423  0  0.103856  0.121682  0  0.974378  0
H  H16  1  0.60006685  0.89522191  0.79222890  1  0.063816  0  0.101288  0.115929  0  0.979147  0
H  H17  1  0.34248875  0.73260666  0.63109656  1  0.069822  0  0.103725  0.130355  0  0.962612  0
H  H18  1  0.32547868  0.27879574  0.62286415  1  0.027153  0  0.104216  0.123144  0  0.972227  0
H  H19  1  0.58924492  0.10768259  0.77073622  1  0.048936  0  0.101228  0.118207  0  0.992993  0
H  H20  1  0.67376659  0.64368117  0.77246297  1  0.094135  0  0.099771  0.118681  0  0.993139  0
H  H21  1  0.53319522  0.61251638  0.70599127  1  0.053667  0  0.09735  0.104264  0  0.973732  0
H  H22  1  0.52884916  0.39788140  0.69605435  1  0.043776  0  0.097446  0.101819  0  0.977839  0
H  H23  1  0.67382585  0.36102648  0.75652443  1  0.087413  0  0.101744  0.113422  0  0.979399  0
H  H24  1  0.46800252  0.10088076  0.19410796  1  0.053668  0  0.094925  0.100527  0  0.978021  0
H  H25  1  0.32607511  0.13225572  0.25758369  1  0.097957  0  0.099087  0.115531  0  0.990475  0
H  H26  1  0.32107866  0.85693808  0.27364372  1  0.085959  0  0.102275  0.113873  0  0.978811  0
H  H27  1  0.46170658  0.89098393  0.21041578  1  0.042075  0  0.099525  0.105213  0  0.974376  0
H  H28  1  0.39743835  0.21270411  0.09754419  1  0.043687  0  0.094416  0.106724  0  0.979615  0
H  H29  1  0.29326334  0.26180517  0.17744455  1  0.047808  0  0.091499  0.09924  0  0.983723  0
H  H30  1  0.29099388  0.73008688  0.19106121  1  0.037506  0  0.092963  0.098873  0  0.985893  0
H  H31  1  0.39210289  0.78178522  0.11113187  1  0.06406  0  0.098289  0.112322  0  0.970598  0
H  H32  1  0.70353295  0.77394307  0.69425742  1  0.072267  0  0.092778  0.10193  0  0.981588  0
H  H33  1  0.60037439  0.72579596  0.61222082  1  0.073664  0  0.096254  0.108637  0  0.977861  0
H  H34  1  0.58242445  0.28665213  0.59601081  1  0.030597  0  0.096228  0.109438  0  0.976489  0
H  H35  1  0.69277776  0.23353125  0.67189120  1  0.069452  0  0.097526  0.109951  0  0.974984  0
H  H36  1  0.12427012  0.40981538  0.90906930  1  0.129488  0  0.117761  0.129059  0  0.981723  0
H  H37  1  0.88747171  0.44383647  0.89000511  1  0.124851  0  0.118451  0.12  0  0.962657  0
H  H38  1  0.86282603  0.36802771  0.97531226  1  0.105837  0  0.120693  0.128541  0  0.951794  0
H  H39  1  0.10025841  0.36643273  0.01521422  1  0.118742  0  0.11885  0.123005  0  0.955507  0
H  H40  1  0.09555997  0.96202098  0.37056073  1  0.101335  0  0.114649  0.113823  0  0.967773  0
H  H41  1  0.86445741  0.91814708  0.39598746  1  0.156708  0  0.11547  0.127834  0  0.995477  0
H  H42  1  0.90741257  0.86458304  0.49526051  1  0.096075  0  0.11577  0.11841  0  0.959251  0
H  H43  1  0.13573570  0.87183008  0.43864736  1  0.115157  0  0.117053  0.126806  0  0.963234  0
H  H44  1  0.71074655  0.82094016  0.88895199  1  0.605447  0  0.333383  0.366744  0  0.875581  0
H  H45  1  0.19673826  0.63401549  0.72074560  1  0.601239  0  0.336221  0.378211  0  0.85956  0
H  H46  1  0.21239644  0.37528972  0.69478224  1  0.578466  0  0.331878  0.36598  0  0.877223  0
H  H47  1  0.71397997  0.17362647  0.85505855  1  0.592913  0  0.328128  0.360092  0  0.888828  0
H  H48  1  0.80249147  0.12362884  0.21327985  1  0.60103  0  0.333564  0.37446  0  0.864212  0
H  H49  1  0.28448738  0.31116093  0.37185760  1  0.578601  0  0.33256  0.365716  0  0.877487  0
H  H50  1  0.29016100  0.66620981  0.37749364  1  0.597733  0  0.328658  0.360532  0  0.885327  0
H  H51  1  0.77557725  0.86534320  0.20323892  1  0.614978  0  0.332104  0.365729  0  0.875799  0
H  H52  1  0.22225393  0.65560873  0.95796208  1  0.669519  0  0.308187  0.382851  0  0.942108  0
H  H53  1  0.77357533  0.64766614  0.04433864  1  0.664229  0  0.316883  0.373094  0  0.927693  0
H  H54  1  0.92379285  0.58144660  0.18932322  1  0.64092  0  0.335045  0.39094  0  0.877338  0
H  H55  1  0.20956906  0.58898702  0.14326214  1  0.661128  0  0.313318  0.383879  0  0.928357  0
H  H56  1  0.22609762  0.14202765  0.55343201  1  0.674693  0  0.304845  0.363588  0  0.972953  0
H  H57  1  0.77470402  0.15639790  0.46132296  1  0.675648  0  0.312524  0.385141  0  0.926421  0
H  H58  1  0.00283210  0.07862944  0.67686385  1  0.667516  0  0.336636  0.393585  0  0.869298  0
H  H59  1  0.26239006  0.97755920  0.65715403  1  0.673526  0  0.310114  0.38847  0  0.939809  0
C  C60  1  0.49477444  0.62035515  0.12229576  1  1.571865  0  0.235821  0.618933  0  4.032812  0
C  C61  1  0.49667007  0.37632407  0.11693917  1  1.570005  0  0.224932  0.595624  0  4.088887  0
C  C62  1  0.48899249  0.12504764  0.61256201  1  1.576174  0  0.231387  0.604791  0  4.053541  0
C  C63  1  0.50014857  0.88759502  0.63013437  1  1.584408  0  0.232218  0.609312  0  4.051227  0
C  C64  1  0.07148003  0.41992313  0.97117629  1  0.17361  0  -0.078267  -0.091921  0  3.807453  0
C  C65  1  0.91542780  0.42788638  0.95801649  1  0.20596  0  -0.076237  -0.088272  0  3.820541  0
C  C66  1  0.07988661  0.93343051  0.43550341  1  0.201319  0  -0.078183  -0.086303  0  3.821975  0
C  C67  1  0.92676286  0.92256187  0.45583632  1  0.181085  0  -0.08208  -0.098515  0  3.813231  0
C  C68  1  0.47521805  0.61981308  0.88705507  1  1.610422  0  0.233555  0.64933  0  4.03235  0
C  C69  1  0.48682505  0.38302521  0.87974618  1  1.604969  0  0.228037  0.629055  0  4.072027  0
C  C70  1  0.52438380  0.11108256  0.37679514  1  1.601391  0  0.233254  0.651008  0  4.032441  0
C  C71  1  0.51666177  0.87419824  0.39288907  1  1.602305  0  0.228956  0.629279  0  4.078054  0
C  C72  1  0.53077444  0.77815929  0.85692065  1  1.008262  0  0.177351  0.513907  0  3.820646  0
C  C73  1  0.33784462  0.70661630  0.77125440  1  1.01016  0  0.17342  0.511734  0  3.827137  0
C  C74  1  0.33609955  0.30386502  0.76351281  1  1.004321  0  0.174874  0.512109  0  3.806681  0
C  C75  1  0.53566323  0.22575875  0.84024618  1  1.008322  0  0.175523  0.512755  0  3.820557  0
C  C76  1  0.66043849  0.19609850  0.26177490  1  1.015524  0  0.172953  0.510617  0  3.828978  0
C  C77  1  0.46528122  0.26844976  0.34294805  1  1.01402  0  0.176148  0.513827  0  3.823631  0
C  C78  1  0.46475713  0.71730647  0.35273658  1  1.002956  0  0.175528  0.511206  0  3.823982  0
C  C79  1  0.65785972  0.79429301  0.27357281  1  0.99468  0  0.173287  0.508004  0  3.816253  0
C  C80  1  0.64577805  0.25772939  0.18254684  1  -0.07926  0  -0.173174  -0.357896  0  3.865503  0
C  C81  1  0.48380156  0.34169166  0.27564138  1  -0.073873  0  -0.161557  -0.347751  0  3.852972  0
C  C82  1  0.49108192  0.64647273  0.28432198  1  -0.009992  0  -0.164638  -0.348529  0  3.862232  0
C  C83  1  0.64321275  0.73516897  0.19252753  1  -0.049372  0  -0.172068  -0.358253  0  3.894194  0
C  C84  1  0.51018400  0.85251683  0.79035616  1  -0.072876  0  -0.16201  -0.34664  0  3.85567  0
C  C85  1  0.35120213  0.76918941  0.69290322  1  -0.063239  0  -0.172697  -0.352751  0  3.862769  0
C  C86  1  0.34152482  0.24178277  0.68406314  1  -0.043669  0  -0.171427  -0.356483  0  3.886152  0
C  C87  1  0.50369072  0.15424694  0.77348096  1  -0.059977  0  -0.165831  -0.353486  0  3.871498  0
C  C88  1  0.57845746  0.66693310  0.74233932  1  -0.03929  0  -0.163878  -0.161909  0  3.857868  0
C  C89  1  0.57513102  0.34124698  0.72887682  1  -0.050643  0  -0.158751  -0.153473  0  3.855486  0
C  C90  1  0.42089985  0.15556283  0.22893844  1  -0.065129  0  -0.164435  -0.161681  0  3.864194  0
C  C91  1  0.41654917  0.83515531  0.24392053  1  -0.040473  0  -0.15771  -0.152755  0  3.846434  0
C  C92  1  0.47824329  0.69138177  0.81674551  1  0.042569  0  -0.014828  -0.202534  0  3.707225  0
C  C93  1  0.48082948  0.31517236  0.80568691  1  0.042596  0  -0.014565  -0.203875  0  3.695346  0
C  C94  1  0.52004036  0.18111219  0.30489662  1  0.034951  0  -0.014996  -0.203794  0  3.705113  0
C  C95  1  0.51700858  0.80667136  0.31862299  1  0.047627  0  -0.013291  -0.201829  0  3.694111  0
C  C96  1  0.50487856  0.30216633  0.18318773  1  0.043823  0  -0.012338  0.076922  0  3.795738  0
C  C97  1  0.50475162  0.68962110  0.19307898  1  0.046123  0  -0.014354  0.063744  0  3.809974  0
C  C98  1  0.49081885  0.81417812  0.69694994  1  0.046139  0  -0.013651  0.067108  0  3.802204  0
C  C99  1  0.48028863  0.19577103  0.68199660  1  0.040378  0  -0.014139  0.067571  0  3.809725  0
C  C100  1  0.39465760  0.23313353  0.16667003  1  -0.017931  0  -0.166027  -0.196661  0  3.875802  0
C  C101  1  0.39140399  0.75912327  0.17968924  1  -0.03452  0  -0.160096  -0.190599  0  3.844689  0
C  C102  1  0.60278864  0.74530180  0.68164127  1  -0.080187  0  -0.165202  -0.19523  0  3.873679  0
C  C103  1  0.59190316  0.26440903  0.66453600  1  -0.015544  0  -0.159422  -0.191204  0  3.832456  0
C  C104  1  0.06736821  0.58128126  0.96318742  1  1.422293  0  0.25494  0.465453  0  3.911874  0
C  C105  1  0.90757238  0.58553403  0.97711880  1  1.38223  0  0.253924  0.456881  0  3.935076  0
C  C106  1  0.91592105  0.48974991  0.10654892  1  1.382814  0  0.259617  0.464328  0  3.904103  0
C  C107  1  0.07699236  0.50324183  0.10558928  1  1.401445  0  0.25067  0.444649  0  3.965446  0
C  C108  1  0.09009028  0.08622209  0.48060206  1  1.394773  0  0.250527  0.454085  0  3.934217  0
C  C109  1  0.93066667  0.08270501  0.46501139  1  1.419549  0  0.257289  0.471617  0  3.905877  0
C  C110  1  0.93893042  0.99107412  0.59920469  1  1.395668  0  0.252664  0.454185  0  3.946763  0
C  C111  1  0.09540406  0.96785604  0.59140986  1  1.374749  0  0.251295  0.449758  0  3.949256  0
N  N112  1  0.12553728  0.50156281  0.01303925  1  -0.936633  0  -0.328215  -0.352323  0  3.371139  0
N  N113  1  0.85919248  0.50018579  0.01392216  1  -0.919666  0  -0.319401  -0.351539  0  3.3613  0
N  N114  1  0.14322626  0.99488824  0.50117823  1  -0.933886  0  -0.326669  -0.359081  0  3.362445  0
N  N115  1  0.87738606  0.99929904  0.50885161  1  -0.934494  0  -0.319478  -0.339714  0  3.32045  0
O  O116  1  0.59745094  0.60742762  0.07380280  1  -1.178427  0  -0.296632  -0.540221  0  2.386065  0
O  O117  1  0.38232503  0.57839162  0.11650314  1  -1.190244  0  -0.308488  -0.563426  0  2.345709  0
O  O118  1  0.38172747  0.39055006  0.08025210  1  -1.161479  0  -0.3099  -0.531981  0  2.388297  0
O  O119  1  0.60447872  0.42066918  0.10568884  1  -1.170741  0  -0.321277  -0.543341  0  2.365585  0
O  O120  1  0.59931780  0.08241572  0.61015708  1  -1.169075  0  -0.302187  -0.518763  0  2.348305  0
O  O121  1  0.38546299  0.11258453  0.56141264  1  -1.187131  0  -0.307985  -0.553037  0  2.412971  0
O  O122  1  0.39529900  0.93721985  0.61679068  1  -1.210177  0  -0.321291  -0.587666  0  2.406466  0
O  O123  1  0.61174373  0.89652611  0.59134837  1  -1.158733  0  -0.292088  -0.508422  0  2.383118  0
O  O124  1  0.57983183  0.57229810  0.89361640  1  -1.166974  0  -0.297987  -0.523035  0  2.387226  0
O  O125  1  0.36995179  0.61198492  0.93554128  1  -1.178798  0  -0.308031  -0.569401  0  2.437152  0
O  O126  1  0.37711051  0.42150158  0.90009394  1  -1.161746  0  -0.302967  -0.51317  0  2.385765  0
O  O127  1  0.60432827  0.39515694  0.91416939  1  -1.154734  0  -0.312043  -0.533596  0  2.33951  0
O  O128  1  0.62747307  0.10667555  0.42889809  1  -1.167217  0  -0.304636  -0.569818  0  2.423207  0
O  O129  1  0.42194447  0.06175102  0.38095905  1  -1.163884  0  -0.303785  -0.526432  0  2.358445  0
O  O130  1  0.40135718  0.88611341  0.42936821  1  -1.161369  0  -0.316377  -0.535227  0  2.356758  0
O  O131  1  0.62592653  0.91360160  0.41109259  1  -1.155017  0  -0.296191  -0.510129  0  2.384338  0
O  O132  1  0.66606553  0.76491390  0.88293716  1  -1.115153  0  -0.368323  -0.503565  0  2.255853  0
O  O133  1  0.28586337  0.62571986  0.74895956  1  -1.118663  0  -0.376907  -0.522412  0  2.248177  0
O  O134  1  0.28107164  0.38441353  0.74075815  1  -1.088297  0  -0.374143  -0.507749  0  2.245997  0
O  O135  1  0.67569661  0.23208721  0.85761673  1  -1.105878  0  -0.374559  -0.507564  0  2.242337  0
O  O136  1  0.71426805  0.11488658  0.24089125  1  -1.113993  0  -0.38024  -0.524643  0  2.244665  0
O  O137  1  0.33035457  0.25513567  0.36686166  1  -1.085911  0  -0.369466  -0.503944  0  2.262563  0
O  O138  1  0.32596020  0.72484752  0.37224703  1  -1.10747  0  -0.374556  -0.509676  0  2.245355  0
O  O139  1  0.71388871  0.87430093  0.25227953  1  -1.123312  0  -0.370522  -0.503139  0  2.249124  0
O  O140  1  0.12712725  0.65637938  0.98333800  1  -1.171886  0  -0.365542  -0.497886  0  2.325948  0
O  O141  1  0.87086945  0.65389466  0.02742764  1  -1.171253  0  -0.363862  -0.49155  0  2.311248  0
O  O142  1  0.85359964  0.54200207  0.16605850  1  -1.132284  0  -0.359285  -0.492139  0  2.289728  0
O  O143  1  0.10916239  0.57731570  0.14946916  1  -1.186578  0  -0.367975  -0.535219  0  2.336929  0
O  O144  1  0.12405760  0.14483109  0.54237348  1  -1.195282  0  -0.369146  -0.507431  0  2.34616  0
O  O145  1  0.86843611  0.15610166  0.48913937  1  -1.174363  0  -0.361311  -0.489469  0  2.308487  0
O  O146  1  0.91622211  0.06360806  0.64768986  1  -1.158756  0  -0.356261  -0.480775  0  2.277287  0
O  O147  1  0.16583760  0.00261949  0.65968779  1  -1.202249  0  -0.374087  -0.545994  0  2.319568  0
F  F148  1  0.45610389  0.79968928  0.93422792  1  -0.622885  0  -0.163845  -0.266377  0  1.214699  0
F  F149  1  0.24546822  0.74721867  0.83103503  1  -0.620274  0  -0.151498  -0.251393  0  1.233958  0
F  F150  1  0.24771509  0.26467576  0.82661663  1  -0.622779  0  -0.164907  -0.264145  0  1.197529  0
F  F151  1  0.47099825  0.20488585  0.92110308  1  -0.622757  0  -0.160255  -0.261296  0  1.210827  0
F  F152  1  0.75178415  0.23701112  0.32265318  1  -0.621534  0  -0.150689  -0.250477  0  1.239934  0
F  F153  1  0.53933080  0.29137490  0.42109595  1  -0.626821  0  -0.161248  -0.264703  0  1.22119  0
F  F154  1  0.53519359  0.69454682  0.43208646  1  -0.621547  0  -0.157984  -0.25842  0  1.209658  0
F  F155  1  0.75016811  0.75139992  0.33363620  1  -0.623241  0  -0.163766  -0.260209  0  1.193286  0
F  F156  1  0.08970326  0.55865881  0.87531588  1  -0.603939  0  -0.108838  -0.192853  0  1.33267  0
F  F157  1  0.84734525  0.59118290  0.89361711  1  -0.606837  0  -0.109521  -0.191478  0  1.356361  0
F  F158  1  0.89137344  0.40392160  0.12805395  1  -0.608369  0  -0.098374  -0.173104  0  1.350653  0
F  F159  1  0.13735014  0.43228829  0.14853152  1  -0.61216  0  -0.118641  -0.202025  0  1.338587  0
F  F160  1  0.14976477  0.10624697  0.40014961  1  -0.603935  0  -0.111854  -0.190982  0  1.34569  0
F  F161  1  0.90818509  0.06668845  0.37526423  1  -0.608236  0  -0.10812  -0.198133  0  1.354992  0
F  F162  1  0.87508299  0.92052075  0.63864663  1  -0.605713  0  -0.12014  -0.202959  0  1.323362  0
F  F163  1  0.11028306  0.87731241  0.59267910  1  -0.60836  0  -0.102458  -0.18478  0  1.326864  0
