# generated using pymatgen
data_AgSb2H18C24S6NO3
_symmetry_space_group_name_H-M   'P 1'
_cell_length_a   8.65147165
_cell_length_b   13.32377391
_cell_length_c   14.63460785
_cell_angle_alpha   117.09110186
_cell_angle_beta   93.67809448
_cell_angle_gamma   90.00721209
_symmetry_Int_Tables_number   1
_chemical_formula_structural   AgSb2H18C24S6NO3
_chemical_formula_sum   'Ag2 Sb4 H36 C48 S12 N2 O6'
_cell_volume   1497.93941974
_cell_formula_units_Z   2
loop_
 _symmetry_equiv_pos_site_id
 _symmetry_equiv_pos_as_xyz
  1  'x, y, z'
loop_
 _atom_site_type_symbol
 _atom_site_label
 _atom_site_symmetry_multiplicity
 _atom_site_fract_x
 _atom_site_fract_y
 _atom_site_fract_z
 _atom_site_occupancy
 _atom_site_hle17_bader_spin_density
 _atom_site_hle17_ddec_charge
 _atom_site_hle17_ddec_spin_density
 _atom_site_hle17_ddec_sum_bond_order
 _atom_site_hle17_magmom
 _atom_site_hse06_10hf_bader_spin_density
 _atom_site_hse06_10hf_ddec_charge
 _atom_site_hse06_10hf_ddec_spin_density
 _atom_site_hse06_10hf_ddec_sum_bond_order
 _atom_site_hse06_10hf_magmom
 _atom_site_hse06_bader_spin_density
 _atom_site_hse06_ddec_charge
 _atom_site_hse06_ddec_spin_density
 _atom_site_hse06_ddec_sum_bond_order
 _atom_site_hse06_magmom
 _atom_site_pbe_bader_spin_density
 _atom_site_pbe_cm5_charge
 _atom_site_pbe_ddec_charge
 _atom_site_pbe_ddec_spin_density
 _atom_site_pbe_ddec_sum_bond_order
 _atom_site_pbe_magmom
Ag  Ag0  1  0.14481292  0.95206967  0.09575892  1  0  0.217792  0  1.867711  0  0  0.083041  0  2.390145  0  0  0.10676  0  2.343779  0  0  0.347401  0.067758  0  2.421084  0
Ag  Ag1  1  0.64471638  0.14368435  0.09578264  1  0  0.217358  0  1.869159  0  0  0.0827  0  2.391548  0  0  0.106442  0  2.345277  0  0  0.347407  0.067368  0  2.422525  0
Sb  Sb2  1  0.17316762  0.93787082  0.27261763  1  0  0.684805  0  3.26912  0  0  0.60734  0  3.787422  0  0  0.609482  0  3.783486  0  0  0.346963  0.601744  0  3.790388  0
Sb  Sb3  1  0.67334227  0.33475360  0.27259103  1  0  0.684474  0  3.270188  0  0  0.607026  0  3.788325  0  0  0.609175  0  3.784413  0  0  0.34675  0.601425  0  3.791334  0
Sb  Sb4  1  0.21903002  0.78066279  0.92115868  1  0  0.691849  0  3.277098  0  0  0.61707  0  3.793455  0  0  0.620267  0  3.788201  0  0  0.345207  0.610794  0  3.797237  0
Sb  Sb5  1  0.71874088  0.14046247  0.92115114  1  0  0.692213  0  3.276432  0  0  0.617515  0  3.7927  0  0  0.620533  0  3.787721  0  0  0.34526  0.611361  0  3.796302  0
H  H6  1  0.97851412  0.16565864  0.32185427  1  0  0.102013  0  0.960416  0  0  0.114469  0  1.023492  0  0  0.116898  0  1.022526  0  0  0.099365  0.112845  0  1.024041  0
H  H7  1  0.47863086  0.15605782  0.32150324  1  0  0.101525  0  0.960487  0  0  0.113923  0  1.02366  0  0  0.116363  0  1.02272  0  0  0.099158  0.112279  0  1.024228  0
H  H8  1  0.84780850  0.29760677  0.49114320  1  0  0.091509  0  0.989718  0  0  0.097736  0  1.060432  0  0  0.099723  0  1.060767  0  0  0.090927  0.096306  0  1.060327  0
H  H9  1  0.34827449  0.19307385  0.49083783  1  0  0.091422  0  0.990305  0  0  0.097844  0  1.060716  0  0  0.099766  0  1.061117  0  0  0.090886  0.096418  0  1.060589  0
H  H10  1  0.89657820  0.22845849  0.63495727  1  0  0.113756  0  0.985564  0  0  0.116638  0  1.058469  0  0  0.119961  0  1.05651  0  0  0.096669  0.114292  0  1.059853  0
H  H11  1  0.39672402  0.40610155  0.63470203  1  0  0.114215  0  0.984279  0  0  0.116702  0  1.057651  0  0  0.120126  0  1.055572  0  0  0.096646  0.114298  0  1.059092  0
H  H12  1  0.53848186  0.91445668  0.22112999  1  0  0.102785  0  0.990162  0  0  0.112407  0  1.057048  0  0  0.115512  0  1.054493  0  0  0.099444  0.110216  0  1.058807  0
H  H13  1  0.03873710  0.30680886  0.22146679  1  0  0.102602  0  0.990107  0  0  0.112147  0  1.057087  0  0  0.115333  0  1.054494  0  0  0.099463  0.109897  0  1.058933  0
H  H14  1  0.78135157  0.91556829  0.33901018  1  0  0.105109  0  0.965409  0  0  0.112833  0  1.030587  0  0  0.114864  0  1.031272  0  0  0.097017  0.111386  0  1.030182  0
H  H15  1  0.28143041  0.42373385  0.33946877  1  0  0.105691  0  0.964911  0  0  0.113531  0  1.029928  0  0  0.115533  0  1.030691  0  0  0.097417  0.112114  0  1.029514  0
H  H16  1  0.70259550  0.95570215  0.52488327  1  0  0.110042  0  0.997348  0  0  0.110968  0  1.073874  0  0  0.114103  0  1.072413  0  0  0.09366  0.108767  0  1.074886  0
H  H17  1  0.20250268  0.56951668  0.52532074  1  0  0.110016  0  0.997212  0  0  0.110932  0  1.073834  0  0  0.114054  0  1.072432  0  0  0.093412  0.108742  0  1.074805  0
H  H18  1  0.99139510  0.70101075  0.10678536  1  0  0.097722  0  0.959728  0  0  0.111398  0  1.022003  0  0  0.11373  0  1.020395  0  0  0.099636  0.109746  0  1.023141  0
H  H19  1  0.49231504  0.40574595  0.10633688  1  0  0.097512  0  0.959135  0  0  0.111238  0  1.021458  0  0  0.11355  0  1.019898  0  0  0.099785  0.109639  0  1.022545  0
H  H20  1  0.87340183  0.54167210  0.14507648  1  0  0.104302  0  0.953247  0  0  0.117798  0  1.008365  0  0  0.119472  0  1.009502  0  0  0.101374  0.116637  0  1.007639  0
H  H21  1  0.37398007  0.60323068  0.14466099  1  0  0.104182  0  0.953803  0  0  0.117666  0  1.008809  0  0  0.119431  0  1.009841  0  0  0.101478  0.116454  0  1.008128  0
H  H22  1  0.92731407  0.59012253  0.34054294  1  0  0.102586  0  1.039895  0  0  0.10534  0  1.114646  0  0  0.107152  0  1.115357  0  0  0.089458  0.104048  0  1.114171  0
H  H23  1  0.42684030  0.75014414  0.34031277  1  0  0.10262  0  1.040485  0  0  0.105843  0  1.114387  0  0  0.107672  0  1.115096  0  0  0.089586  0.104537  0  1.113926  0
H  H24  1  0.54509311  0.78897011  0.05522837  1  0  0.10464  0  0.998662  0  0  0.111656  0  1.069192  0  0  0.115333  0  1.066007  0  0  0.098013  0.109086  0  1.07135  0
H  H25  1  0.04466038  0.26704290  0.05565420  1  0  0.105228  0  0.997396  0  0  0.112207  0  1.067998  0  0  0.115848  0  1.064875  0  0  0.097933  0.109602  0  1.070243  0
H  H26  1  0.69254883  0.61787760  0.05781151  1  0  0.108843  0  0.947956  0  0  0.123509  0  1.0021  0  0  0.125706  0  1.001953  0  0  0.10693  0.121965  0  1.002255  0
H  H27  1  0.19146700  0.44084134  0.05792184  1  0  0.108824  0  0.947644  0  0  0.123496  0  1.001837  0  0  0.12568  0  1.001721  0  0  0.106551  0.121949  0  1.001993  0
H  H28  1  0.55769776  0.42189679  0.92165823  1  0  0.112835  0  1.00174  0  0  0.117361  0  1.071803  0  0  0.119658  0  1.071873  0  0  0.095164  0.11575  0  1.071708  0
H  H29  1  0.05653112  0.49977282  0.92128167  1  0  0.112927  0  1.001871  0  0  0.117643  0  1.071735  0  0  0.119841  0  1.071972  0  0  0.095439  0.116039  0  1.071643  0
H  H30  1  0.85300654  0.73331176  0.94404927  1  0  0.103663  0  0.974703  0  0  0.115324  0  1.037783  0  0  0.117902  0  1.036479  0  0  0.099122  0.113538  0  1.038638  0
H  H31  1  0.35270811  0.21057261  0.94402641  1  0  0.104314  0  0.97501  0  0  0.115987  0  1.037767  0  0  0.118472  0  1.036602  0  0  0.099493  0.114245  0  1.038607  0
H  H32  1  0.66382007  0.56972174  0.80993340  1  0  0.099619  0  0.986418  0  0  0.106908  0  1.053725  0  0  0.108723  0  1.054699  0  0  0.093654  0.105609  0  1.053145  0
H  H33  1  0.16344348  0.24003513  0.81001360  1  0  0.099306  0  0.985954  0  0  0.106762  0  1.053553  0  0  0.108497  0  1.054621  0  0  0.09346  0.105497  0  1.052907  0
H  H34  1  0.80691126  0.43271000  0.64663920  1  0  0.116309  0  0.99108  0  0  0.124818  0  1.055006  0  0  0.127555  0  1.053779  0  0  0.099372  0.122924  0  1.055798  0
H  H35  1  0.30650727  0.21384896  0.64669622  1  0  0.116474  0  0.991237  0  0  0.125036  0  1.054947  0  0  0.127813  0  1.053623  0  0  0.099412  0.123118  0  1.055785  0
H  H36  1  0.22290905  0.97285418  0.83608733  1  0  0.102891  0  0.945766  0  0  0.116985  0  1.002912  0  0  0.119446  0  1.001976  0  0  0.100599  0.11529  0  1.003501  0
H  H37  1  0.72299389  0.86307556  0.83613161  1  0  0.103101  0  0.945981  0  0  0.117339  0  1.002944  0  0  0.11981  0  1.001964  0  0  0.100697  0.115632  0  1.003581  0
H  H38  1  0.35373001  0.95844019  0.67299549  1  0  0.099807  0  0.974147  0  0  0.106592  0  1.042838  0  0  0.108818  0  1.04303  0  0  0.09285  0.10503  0  1.042757  0
H  H39  1  0.85416781  0.71449419  0.67317020  1  0  0.099309  0  0.974494  0  0  0.106356  0  1.042797  0  0  0.108621  0  1.042889  0  0  0.09282  0.104769  0  1.042781  0
H  H40  1  0.49652745  0.76472263  0.57892338  1  0  0.118761  0  0.976683  0  0  0.125988  0  1.042015  0  0  0.129162  0  1.040088  0  0  0.099056  0.12375  0  1.043365  0
H  H41  1  0.99666763  0.81423179  0.57913645  1  0  0.118395  0  0.97645  0  0  0.125648  0  1.041756  0  0  0.128847  0  1.039773  0  0  0.098947  0.123393  0  1.04312  0
C  C42  1  0.05712163  0.06354394  0.39623163  1  0  -0.304142  0  3.650313  0  0  -0.260832  0  3.932103  0  0  -0.264121  0  3.956513  0  0  -0.118599  -0.257473  0  3.914979  0
C  C43  1  0.55693258  0.33266521  0.39602066  1  0  -0.303901  0  3.649973  0  0  -0.260629  0  3.931882  0  0  -0.263909  0  3.95629  0  0  -0.118288  -0.257274  0  3.914766  0
C  C44  1  0.98249973  0.15237725  0.39009728  1  0  -0.064565  0  3.792427  0  0  -0.085536  0  4.034644  0  0  -0.085156  0  4.055728  0  0  -0.109109  -0.085643  0  4.019858  0
C  C45  1  0.48253692  0.23755552  0.38980525  1  0  -0.063242  0  3.79078  0  0  -0.084205  0  4.033103  0  0  -0.083845  0  4.054178  0  0  -0.108644  -0.084292  0  4.018312  0
C  C46  1  0.91321986  0.22434761  0.48220137  1  0  -0.072127  0  3.779584  0  0  -0.084778  0  4.025488  0  0  -0.087866  0  4.047804  0  0  -0.112514  -0.082697  0  4.010257  0
C  C47  1  0.41350587  0.25749870  0.48192190  1  0  -0.072684  0  3.78003  0  0  -0.085435  0  4.025741  0  0  -0.088486  0  4.04816  0  0  -0.112523  -0.083338  0  4.010458  0
C  C48  1  0.93629871  0.19022614  0.55765264  1  0  -0.170219  0  3.69279  0  0  -0.180434  0  3.961423  0  0  -0.180282  0  3.978764  0  0  -0.107639  -0.180316  0  3.949494  0
C  C49  1  0.43653787  0.36707738  0.55743197  1  0  -0.170822  0  3.692633  0  0  -0.180708  0  3.961355  0  0  -0.180682  0  3.978674  0  0  -0.107834  -0.180524  0  3.949471  0
C  C50  1  0.39494319  0.94460211  0.34788209  1  0  -0.311695  0  3.65672  0  0  -0.264535  0  3.931516  0  0  -0.268565  0  3.956546  0  0  -0.120862  -0.260659  0  3.913896  0
C  C51  1  0.89502265  0.40334766  0.34813620  1  0  -0.311541  0  3.65556  0  0  -0.264243  0  3.930109  0  0  -0.268262  0  3.955197  0  0  -0.121118  -0.260364  0  3.912424  0
C  C52  1  0.53188656  0.92676306  0.29955344  1  0  -0.065095  0  3.789686  0  0  -0.084577  0  4.029159  0  0  -0.083766  0  4.048945  0  0  -0.10765  -0.084892  0  4.015217  0
C  C53  1  0.03204964  0.37292286  0.29990585  1  0  -0.065494  0  3.788066  0  0  -0.084943  0  4.0278  0  0  -0.084216  0  4.047541  0  0  -0.107909  -0.08521  0  4.013949  0
C  C54  1  0.66370805  0.92850385  0.36352057  1  0  -0.062222  0  3.755064  0  0  -0.074339  0  3.999172  0  0  -0.077116  0  4.020547  0  0  -0.106204  -0.072491  0  3.984589  0
C  C55  1  0.16378488  0.43523438  0.36397411  1  0  -0.061984  0  3.753493  0  0  -0.074237  0  3.997807  0  0  -0.077007  0  4.01922  0  0  -0.106136  -0.072431  0  3.98321  0
C  C56  1  0.62606545  0.94848778  0.46016022  1  0  -0.171568  0  3.703147  0  0  -0.183889  0  3.976969  0  0  -0.183609  0  3.994116  0  0  -0.107421  -0.183875  0  3.965231  0
C  C57  1  0.12600304  0.51195494  0.46057223  1  0  -0.172707  0  3.703307  0  0  -0.184877  0  3.976842  0  0  -0.184619  0  3.993961  0  0  -0.107463  -0.18485  0  3.965118  0
C  C58  1  0.07580242  0.78904367  0.26810060  1  0  -0.304826  0  3.654003  0  0  -0.260386  0  3.933905  0  0  -0.264369  0  3.959185  0  0  -0.120511  -0.256545  0  3.916124  0
C  C59  1  0.57607347  0.47895064  0.26779576  1  0  -0.304956  0  3.65266  0  0  -0.260369  0  3.932354  0  0  -0.264395  0  3.957759  0  0  -0.120317  -0.256502  0  3.914531  0
C  C60  1  0.00146611  0.70202272  0.18169130  1  0  -0.060507  0  3.804666  0  0  -0.083958  0  4.051871  0  0  -0.082235  0  4.071725  0  0  -0.108257  -0.084922  0  4.037962  0
C  C61  1  0.50199416  0.47958064  0.18132817  1  0  -0.060106  0  3.804394  0  0  -0.083656  0  4.051695  0  0  -0.081915  0  4.071582  0  0  -0.108444  -0.084669  0  4.037796  0
C  C62  1  0.93660102  0.61706072  0.20229441  1  0  -0.085029  0  3.780226  0  0  -0.096723  0  4.026523  0  0  -0.101088  0  4.049023  0  0  -0.110257  -0.093893  0  4.011225  0
C  C63  1  0.43686395  0.58504846  0.20194342  1  0  -0.085059  0  3.782004  0  0  -0.09676  0  4.028258  0  0  -0.101185  0  4.050744  0  0  -0.110913  -0.093882  0  4.012986  0
C  C64  1  0.96307476  0.63994658  0.30364927  1  0  -0.153288  0  3.712175  0  0  -0.165556  0  3.980416  0  0  -0.164657  0  3.999928  0  0  -0.104412  -0.165949  0  3.967123  0
C  C65  1  0.46281410  0.66346709  0.30338286  1  0  -0.153313  0  3.713246  0  0  -0.165908  0  3.981472  0  0  -0.165024  0  4.001008  0  0  -0.103964  -0.166278  0  3.968121  0
C  C66  1  0.38316023  0.66809426  0.93499588  1  0  -0.319205  0  3.670656  0  0  -0.274417  0  3.951827  0  0  -0.27826  0  3.977493  0  0  -0.125352  -0.270572  0  3.933594  0
C  C67  1  0.88294303  0.26678541  0.93495736  1  0  -0.318714  0  3.671462  0  0  -0.273873  0  3.952398  0  0  -0.277686  0  3.978035  0  0  -0.125251  -0.270067  0  3.934242  0
C  C68  1  0.51010505  0.70110594  0.00595762  1  0  -0.075845  0  3.800813  0  0  -0.099383  0  4.049932  0  0  -0.099065  0  4.069662  0  0  -0.114337  -0.09941  0  4.036073  0
C  C69  1  0.00964149  0.30523876  0.00609442  1  0  -0.07607  0  3.80242  0  0  -0.099567  0  4.051223  0  0  -0.09919  0  4.070994  0  0  -0.113819  -0.099603  0  4.037439  0
C  C70  1  0.59023600  0.60844152  0.00691748  1  0  -0.068934  0  3.769618  0  0  -0.081901  0  4.017487  0  0  -0.084293  0  4.037451  0  0  -0.104528  -0.080324  0  4.003841  0
C  C71  1  0.08935996  0.39894407  0.00694744  1  0  -0.068808  0  3.771796  0  0  -0.081851  0  4.019722  0  0  -0.084232  0  4.039652  0  0  -0.103902  -0.08026  0  4.00606  0
C  C72  1  0.52238222  0.50612994  0.93760212  1  0  -0.176206  0  3.712274  0  0  -0.189328  0  3.985057  0  0  -0.188934  0  4.00246  0  0  -0.106887  -0.189383  0  3.973215  0
C  C73  1  0.02144927  0.43152527  0.93737472  1  0  -0.176699  0  3.7129  0  0  -0.189902  0  3.985576  0  0  -0.189455  0  4.002942  0  0  -0.107479  -0.189965  0  3.973738  0
C  C74  1  0.03528605  0.66058778  0.83848805  1  0  -0.307634  0  3.658415  0  0  -0.262071  0  3.935527  0  0  -0.265796  0  3.960875  0  0  -0.120064  -0.258371  0  3.917727  0
C  C75  1  0.53496784  0.17783682  0.83848865  1  0  -0.308243  0  3.658666  0  0  -0.262972  0  3.936445  0  0  -0.266651  0  3.961646  0  0  -0.12077  -0.259285  0  3.918683  0
C  C76  1  0.88696745  0.66742374  0.87089117  1  0  -0.07298  0  3.795791  0  0  -0.092923  0  4.039541  0  0  -0.092975  0  4.060769  0  0  -0.111783  -0.092742  0  4.024672  0
C  C77  1  0.38663507  0.20332753  0.87088073  1  0  -0.073092  0  3.797786  0  0  -0.092922  0  4.041621  0  0  -0.092866  0  4.062838  0  0  -0.111472  -0.09281  0  4.026784  0
C  C78  1  0.78513498  0.57909969  0.79891653  1  0  -0.080066  0  3.788139  0  0  -0.093512  0  4.039171  0  0  -0.096451  0  4.060796  0  0  -0.114055  -0.09155  0  4.024448  0
C  C79  1  0.28475932  0.21964377  0.79893824  1  0  -0.079857  0  3.786945  0  0  -0.093785  0  4.037912  0  0  -0.09668  0  4.059591  0  0  -0.114238  -0.091825  0  4.023179  0
C  C80  1  0.85735784  0.50611412  0.71339949  1  0  -0.184397  0  3.730649  0  0  -0.199855  0  4.006354  0  0  -0.199255  0  4.02322  0  0  -0.111248  -0.200063  0  3.994815  0
C  C81  1  0.35695753  0.20718830  0.71343505  1  0  -0.18506  0  3.730146  0  0  -0.200502  0  4.006052  0  0  -0.199841  0  4.0228  0  0  -0.111404  -0.200764  0  3.99463  0
C  C82  1  0.31042298  0.80667927  0.80163640  1  0  -0.300931  0  3.659174  0  0  -0.25566  0  3.937708  0  0  -0.259613  0  3.963922  0  0  -0.119459  -0.251829  0  3.919299  0
C  C83  1  0.81002339  0.99490806  0.80161865  1  0  -0.301568  0  3.660686  0  0  -0.25616  0  3.93886  0  0  -0.260077  0  3.964959  0  0  -0.119508  -0.252354  0  3.920523  0
C  C84  1  0.28830211  0.90086393  0.78631028  1  0  -0.068138  0  3.815809  0  0  -0.091826  0  4.065015  0  0  -0.091529  0  4.086958  0  0  -0.111436  -0.091845  0  4.049635  0
C  C85  1  0.78828142  0.88538462  0.78638029  1  0  -0.068464  0  3.816117  0  0  -0.092419  0  4.065598  0  0  -0.092108  0  4.087494  0  0  -0.111614  -0.092449  0  4.050228  0
C  C86  1  0.35762935  0.89273714  0.69772372  1  0  -0.084787  0  3.790663  0  0  -0.099855  0  4.045471  0  0  -0.103218  0  4.067697  0  0  -0.114344  -0.097593  0  4.030274  0
C  C87  1  0.85776678  0.80493606  0.69784211  1  0  -0.084515  0  3.789229  0  0  -0.099872  0  4.044424  0  0  -0.103236  0  4.066642  0  0  -0.114663  -0.097608  0  4.029227  0
C  C88  1  0.43159012  0.79275317  0.64699945  1  0  -0.163347  0  3.696443  0  0  -0.175663  0  3.966297  0  0  -0.17506  0  3.983309  0  0  -0.104802  -0.175889  0  3.954671  0
C  C89  1  0.93154755  0.85426332  0.64712105  1  0  -0.162899  0  3.697511  0  0  -0.175189  0  3.967307  0  0  -0.174622  0  3.984401  0  0  -0.104698  -0.175377  0  3.955608  0
S  S90  1  0.04134540  0.06990507  0.51546602  1  0  0.14343  0  2.780207  0  0  0.150087  0  3.125899  0  0  0.14767  0  3.135239  0  0  0.065077  0.15147  0  3.11942  0
S  S91  1  0.54123254  0.44544452  0.51531023  1  0  0.143342  0  2.780881  0  0  0.150022  0  3.126431  0  0  0.147635  0  3.135793  0  0  0.064784  0.151385  0  3.119946  0
S  S92  1  0.43021836  0.96462978  0.47241675  1  0  0.132498  0  2.795065  0  0  0.14088  0  3.138672  0  0  0.138733  0  3.147395  0  0  0.060767  0.142083  0  3.132612  0
S  S93  1  0.93010294  0.50790515  0.47268491  1  0  0.133191  0  2.795039  0  0  0.141649  0  3.138518  0  0  0.139509  0  3.147247  0  0  0.061064  0.142848  0  3.132453  0
S  S94  1  0.06700722  0.76398755  0.37323047  1  0  0.143769  0  2.737366  0  0  0.14851  0  3.072857  0  0  0.145883  0  3.082599  0  0  0.060593  0.150068  0  3.066061  0
S  S95  1  0.56661478  0.60903968  0.37299115  1  0  0.143803  0  2.737195  0  0  0.148505  0  3.072893  0  0  0.145894  0  3.082651  0  0  0.060461  0.150054  0  3.066084  0
S  S96  1  0.36288381  0.52281110  0.87076534  1  0  0.144656  0  2.785007  0  0  0.153614  0  3.12501  0  0  0.150822  0  3.135406  0  0  0.065975  0.155218  0  3.117768  0
S  S97  1  0.86238257  0.34750779  0.87045292  1  0  0.144789  0  2.786913  0  0  0.153791  0  3.12735  0  0  0.150998  0  3.137693  0  0  0.066021  0.155395  0  3.120139  0
S  S98  1  0.04796531  0.54579616  0.71997595  1  0  0.151844  0  2.76403  0  0  0.158278  0  3.103774  0  0  0.156012  0  3.113448  0  0  0.065153  0.159552  0  3.097064  0
S  S99  1  0.54756457  0.17412687  0.71999485  1  0  0.152401  0  2.764371  0  0  0.158919  0  3.104162  0  0  0.156629  0  3.11384  0  0  0.065411  0.160202  0  3.09745  0
S  S100  1  0.41737699  0.70944212  0.70767427  1  0  0.147584  0  2.734983  0  0  0.155374  0  3.07014  0  0  0.15247  0  3.080113  0  0  0.064861  0.157074  0  3.063186  0
S  S101  1  0.91700614  0.99823529  0.70771465  1  0  0.147757  0  2.736743  0  0  0.155586  0  3.071756  0  0  0.152685  0  3.081725  0  0  0.064943  0.157277  0  3.06481  0
N  N102  1  0.78178005  0.94550184  0.10885595  1  0  0.670412  0  4.123054  0  0  0.700836  0  4.403405  0  0  0.729344  0  4.412117  0  0  0.088464  0.692972  0  4.381509  0
N  N103  1  0.28159591  0.16347498  0.10885080  1  0  0.669218  0  4.123951  0  0  0.712934  0  4.385925  0  0  0.728933  0  4.411896  0  0  0.089437  0.693689  0  4.379865  0
O  O104  1  0.87822301  0.01242638  0.09890590  1  0  -0.44132  0  1.873585  0  0  -0.409247  0  2.135437  0  0  -0.427547  0  2.123293  0  0  -0.211297  -0.400149  0  2.138996  0
O  O105  1  0.37800461  0.08654684  0.09883055  1  0  -0.440715  0  1.872559  0  0  -0.412794  0  2.129277  0  0  -0.426999  0  2.121835  0  0  -0.211391  -0.399943  0  2.137227  0
O  O106  1  0.63837953  0.96722348  0.10815650  1  0  -0.4212  0  1.831735  0  0  -0.386833  0  2.059392  0  0  -0.40543  0  2.05113  0  0  -0.189479  -0.377826  0  2.060613  0
O  O107  1  0.13816873  0.14096626  0.10793531  1  0  -0.421658  0  1.831683  0  0  -0.391636  0  2.054247  0  0  -0.405967  0  2.050638  0  0  -0.190321  -0.378928  0  2.059991  0
O  O108  1  0.82707323  0.86148204  0.11888336  1  0  -0.434984  0  1.779523  0  0  -0.425426  0  1.997366  0  0  -0.440622  0  1.99294  0  0  -0.169988  -0.418649  0  1.995502  0
O  O109  1  0.32698863  0.25762899  0.11916255  1  0  -0.434612  0  1.779636  0  0  -0.42985  0  1.992114  0  0  -0.440819  0  1.992901  0  0  -0.170314  -0.419139  0  1.994881  0
