# generated using pymatgen
data_CuH20C16(BrN4)2
_symmetry_space_group_name_H-M   'P 1'
_cell_length_a   7.26456791
_cell_length_b   11.44437197
_cell_length_c   12.92325702
_cell_angle_alpha   110.18415386
_cell_angle_beta   90.00045089
_cell_angle_gamma   89.99957533
_symmetry_Int_Tables_number   1
_chemical_formula_structural   CuH20C16(BrN4)2
_chemical_formula_sum   'Cu2 H40 C32 Br4 N16'
_cell_volume   1008.43742880
_cell_formula_units_Z   2
loop_
 _symmetry_equiv_pos_site_id
 _symmetry_equiv_pos_as_xyz
  1  'x, y, z'
loop_
 _atom_site_type_symbol
 _atom_site_label
 _atom_site_symmetry_multiplicity
 _atom_site_fract_x
 _atom_site_fract_y
 _atom_site_fract_z
 _atom_site_occupancy
 _atom_site_hle17_ddec_charge
 _atom_site_hle17_ddec_spin_density
 _atom_site_hle17_ddec_sum_bond_order
 _atom_site_hle17_magmom
 _atom_site_hse06_10hf_ddec_charge
 _atom_site_hse06_10hf_ddec_spin_density
 _atom_site_hse06_10hf_ddec_sum_bond_order
 _atom_site_hse06_10hf_magmom
 _atom_site_hse06_ddec_charge
 _atom_site_hse06_ddec_spin_density
 _atom_site_hse06_ddec_sum_bond_order
 _atom_site_hse06_magmom
 _atom_site_pbe_cm5_charge
 _atom_site_pbe_ddec_charge
 _atom_site_pbe_ddec_spin_density
 _atom_site_pbe_ddec_sum_bond_order
 _atom_site_pbe_magmom
Cu  Cu0  1  0.55622671  0.32738516  0.41929702  1  0.780315  -0.588772  1.873601  -0.381  0.78427  -0.721626  2.269118  -0.525  0.869429  -0.831125  2.201059  -0.627  0.754387  0.73793  -0.633918  2.313546  -0.451
Cu  Cu1  1  0.05622218  0.67262616  0.58070182  1  0.780383  0.588786  1.873384  0.381  0.784327  0.721636  2.268934  0.525  0.86943  0.831122  2.200925  0.627  0.75437  0.738021  0.633906  2.313395  0.451
H  H2  1  0.28714588  0.39206764  0.55665635  1  0.288285  -0.000282  0.928906  0.001  0.282448  -0.00101  0.984861  0.0  0.288552  -0.000666  0.982582  0.0  0.286278  0.278334  -0.001213  0.986615  0.0
H  H3  1  0.78713915  0.60794292  0.44334562  1  0.288194  0.000286  0.9289  -0.001  0.282419  0.001012  0.984795  0.0  0.288524  0.000667  0.982515  0.0  0.286341  0.278305  0.001214  0.986553  0.0
H  H4  1  0.48980636  0.44000230  0.61460899  1  0.289154  0.00208  0.947565  0.002  0.275336  0.00098  1.017599  0.001  0.282104  0.00099  1.014159  0.001  0.28532  0.270696  0.000977  1.020468  0.0
H  H5  1  0.98980629  0.56000482  0.38539283  1  0.289194  -0.002079  0.947417  -0.002  0.275365  -0.00098  1.017494  -0.001  0.282135  -0.000991  1.014049  -0.001  0.285337  0.270733  -0.000976  1.020358  0.0
H  H6  1  0.82411787  0.33374337  0.29448237  1  0.287253  -0.000339  0.941098  0.001  0.27755  -0.000968  1.002441  0.0  0.284146  -0.000662  0.999329  0.0  0.28621  0.273016  -0.001178  1.00494  0.0
H  H7  1  0.32411375  0.66625963  0.70551667  1  0.287235  0.000337  0.941045  -0.001  0.277505  0.000968  1.002441  0.0  0.284102  0.000662  0.999323  0.0  0.286205  0.272972  0.001178  1.004942  0.0
H  H8  1  0.62120929  0.34095174  0.23644387  1  0.283019  0.000952  0.909014  0.001  0.272298  -2.5e-05  0.974614  0.0  0.27883  0.000196  0.970942  0.001  0.288706  0.267901  -0.000205  0.977297  0.0
H  H9  1  0.12120054  0.65905285  0.76355242  1  0.282909  -0.000953  0.908983  -0.001  0.272234  2.4e-05  0.974559  0.0  0.278763  -0.000196  0.970887  -0.001  0.288651  0.267834  0.000205  0.977238  0.0
H  H10  1  0.30192533  0.13057130  0.45648368  1  0.100725  0.000256  0.993597  0.0  0.113458  0.000233  1.071161  0.0  0.115212  0.000235  1.070427  0.0  0.078416  0.112011  0.00022  1.071968  0.0
H  H11  1  0.80189897  0.86943272  0.54350397  1  0.10073  -0.000256  0.993577  0.0  0.113425  -0.000233  1.071193  0.0  0.115185  -0.000235  1.070457  0.0  0.07844  0.11199  -0.00022  1.071987  0.0
H  H12  1  0.13857387  0.20176036  0.56260107  1  0.106769  -0.000146  0.952541  0.0  0.128119  -0.000116  1.011441  0.0  0.129675  -6.8e-05  1.011537  0.0  0.082723  0.127063  -0.000156  1.011232  0.0
H  H13  1  0.63856617  0.79823115  0.43738278  1  0.106776  0.000146  0.952578  0.0  0.128074  0.000116  1.011559  0.0  0.129628  6.8e-05  1.011657  0.0  0.082715  0.127023  0.000156  1.011349  0.0
H  H14  1  0.28563502  0.08231555  0.57349428  1  0.106611  0.000154  0.952151  0.0  0.129303  9.5e-05  1.009343  0.0  0.130419  8e-05  1.009738  0.0  0.084983  0.128418  0.000102  1.00916  0.0
H  H15  1  0.78562162  0.91768666  0.42649119  1  0.106727  -0.000148  0.952144  0.0  0.129429  -9.5e-05  1.009297  0.0  0.130547  -8e-05  1.009692  0.0  0.085032  0.128547  -0.000102  1.009117  0.0
H  H16  1  0.55957491  0.21781231  0.58933593  1  0.042638  -0.001033  0.918562  -0.002  0.055352  -0.000824  0.980182  -0.001  0.055186  -0.000552  0.97942  -0.001  0.105227  0.055159  -0.001015  0.981014  -0.002
H  H17  1  0.05955574  0.78219713  0.41066699  1  0.042632  0.001036  0.918649  0.002  0.055332  0.000823  0.980236  0.001  0.055165  0.000552  0.979476  0.001  0.105199  0.055137  0.001015  0.981069  0.002
H  H18  1  0.21507916  0.45832955  0.74322573  1  0.08588  -0.000556  0.98468  0.0  0.095586  -0.00057  1.052404  0.0  0.098436  -0.000472  1.050674  0.0  0.093844  0.093577  -0.000631  1.053632  0.0
H  H19  1  0.71508718  0.54166728  0.25677325  1  0.085904  0.000554  0.984725  0.0  0.095599  0.00057  1.05245  0.0  0.098449  0.000473  1.050718  0.0  0.093865  0.093593  0.000631  1.053686  0.0
H  H20  1  0.18647418  0.52723382  0.94659510  1  0.09455  -2.6e-05  0.989443  0.0  0.100639  -8e-06  1.060211  0.0  0.103163  -4e-06  1.059853  0.0  0.090053  0.098766  -1.2e-05  1.060634  0.0
H  H21  1  0.68647197  0.47275938  0.05340728  1  0.094553  3e-05  0.989369  0.0  0.100679  9e-06  1.060088  0.0  0.103203  4e-06  1.059731  0.0  0.090064  0.098807  1.2e-05  1.060517  0.0
H  H22  1  0.52452504  0.21896630  0.94999925  1  0.097292  -3.8e-05  0.984715  0.0  0.105136  -3.6e-05  1.051328  0.0  0.106973  -2.2e-05  1.052484  0.0  0.095034  0.103753  -4.8e-05  1.050679  0.0
H  H23  1  0.02452160  0.78102743  0.04999328  1  0.097226  4.3e-05  0.984836  0.0  0.105112  3.6e-05  1.051396  0.0  0.106935  2.2e-05  1.052566  0.0  0.094994  0.103752  4.8e-05  1.050716  0.0
H  H24  1  0.56653065  0.15749388  0.74767264  1  0.083447  2.8e-05  0.981755  0.0  0.092018  -1.9e-05  1.049356  0.0  0.094689  -9e-06  1.04828  0.0  0.092169  0.090076  -2.8e-05  1.050244  0.0
H  H25  1  0.06653062  0.84250717  0.25232232  1  0.083354  -3e-05  0.981853  0.0  0.091942  1.9e-05  1.049438  0.0  0.094613  9e-06  1.048365  0.0  0.092124  0.090004  2.8e-05  1.050321  0.0
H  H26  1  0.79294222  0.09928399  0.33933292  1  0.102755  0.000273  0.969677  0.0  0.117814  0.000294  1.042113  0.0  0.119255  0.000293  1.040819  0.0  0.083603  0.116388  0.000287  1.04345  0.0
H  H27  1  0.29296361  0.90073120  0.66067823  1  0.102768  -0.000269  0.969745  0.0  0.117809  -0.000295  1.042196  0.0  0.119248  -0.000293  1.040903  0.0  0.083618  0.11638  -0.000286  1.043532  0.0
H  H28  1  0.85261882  0.99499053  0.20588528  1  0.107686  0.000108  0.96944  0.0  0.127602  6.5e-05  1.034317  0.0  0.128776  5.9e-05  1.035459  0.0  0.085791  0.126792  6.5e-05  1.033502  0.0
H  H29  1  0.35263065  0.00501142  0.79412982  1  0.10768  -0.000112  0.969475  0.0  0.127623  -6.5e-05  1.034304  0.0  0.128795  -5.9e-05  1.035448  0.0  0.085786  0.126814  -6.5e-05  1.03349  0.0
H  H30  1  0.98253711  0.13341449  0.26754701  1  0.107915  -0.000196  0.961603  0.0  0.130855  -0.000196  1.01913  0.0  0.13218  -0.000148  1.0199  0.0  0.087742  0.130095  -0.000226  1.018411  0.0
H  H31  1  0.48253924  0.86658797  0.73246805  1  0.107788  0.000194  0.961707  0.0  0.13076  0.000196  1.019192  0.0  0.132084  0.000148  1.019965  0.0  0.087732  0.130001  0.000226  1.018471  0.0
H  H32  1  0.57613952  0.12037690  0.19873477  1  0.041676  -0.000557  0.944366  -0.001  0.052462  -0.000483  1.012224  -0.001  0.05225  -0.000314  1.012678  -0.001  0.102298  0.05247  -0.000601  1.01214  -0.001
H  H33  1  0.07613969  0.87963248  0.80126821  1  0.041713  0.000557  0.944286  0.001  0.052494  0.000483  1.012137  0.001  0.052281  0.000314  1.012593  0.001  0.102264  0.052499  0.000601  1.012048  0.001
H  H34  1  0.91814718  0.32421746  0.13068069  1  0.089674  -0.000602  0.995932  0.0  0.095688  -0.000625  1.068433  0.0  0.098703  -0.000511  1.067038  0.0  0.094446  0.093665  -0.000698  1.069356  0.0
H  H35  1  0.41814794  0.67578057  0.86931571  1  0.089684  0.000601  0.995914  0.0  0.095661  0.000625  1.068439  0.0  0.098678  0.000511  1.067044  0.0  0.094413  0.093631  0.000698  1.069367  0.0
H  H36  1  0.00511165  0.29774629  0.93975930  1  0.104385  -8e-06  0.973434  0.0  0.111729  1e-06  1.039394  0.0  0.114295  3e-06  1.03908  0.0  0.09629  0.10984  -1e-06  1.039767  0.0
H  H37  1  0.50510681  0.70224097  0.06024122  1  0.104445  4e-06  0.97344  0.0  0.111794  -1e-06  1.039396  0.0  0.114357  -4e-06  1.039083  0.0  0.09632  0.109927  1e-06  1.039746  0.0
H  H38  1  0.74952850  0.93550274  0.82553003  1  0.104124  0.000167  0.978375  0.0  0.111823  5.1e-05  1.045631  0.0  0.115489  -4.2e-05  1.043621  0.0  0.09902  0.109406  0.000131  1.046914  0.0
H  H39  1  0.24951187  0.06448838  0.17447896  1  0.104068  -0.000168  0.978364  0.0  0.111764  -5.1e-05  1.045631  0.0  0.115431  4.2e-05  1.04362  0.0  0.099  0.109353  -0.000131  1.046919  0.0
H  H40  1  0.65132012  0.96491352  0.01682806  1  0.095063  3.1e-05  0.973004  0.0  0.105228  -3e-06  1.035065  0.0  0.106743  -2e-06  1.036831  0.0  0.098796  0.104132  -3e-06  1.033926  0.0
H  H41  1  0.15131353  0.03508350  0.98317997  1  0.095108  -2.9e-05  0.972873  0.0  0.105289  3e-06  1.03492  0.0  0.106805  2e-06  1.036685  0.0  0.09881  0.104193  2e-06  1.033778  0.0
C  C42  1  0.27816797  0.16260547  0.54574769  1  -0.345321  0.000292  3.670846  0.0  -0.419663  0.000241  3.902928  0.0  -0.423065  0.000198  3.912335  0.0  -0.250294  -0.417003  0.000255  3.896482  0.0
C  C43  1  0.77814490  0.83740234  0.45424178  1  -0.345411  -0.000306  3.670899  0.0  -0.419695  -0.00024  3.902952  0.0  -0.423101  -0.000197  3.912347  0.0  -0.25035  -0.417053  -0.000254  3.89649  0.0
C  C44  1  0.42160649  0.25996281  0.60663105  1  0.208177  0.00157  3.613378  0.004  0.192602  -0.000107  3.853481  0.002  0.198963  0.000462  3.868662  0.002  0.003316  0.188765  -0.000532  3.843113  0.001
C  C45  1  0.92159337  0.74004360  0.39336561  1  0.208066  -0.00157  3.613354  -0.004  0.192583  0.000107  3.853265  -0.002  0.198944  -0.000462  3.868441  -0.002  0.00327  0.188747  0.000532  3.842904  -0.001
C  C46  1  0.39615890  0.30419619  0.73092528  1  0.031182  -0.00576  3.708047  -0.006  0.050188  -0.003788  3.940283  -0.004  0.049664  -0.002835  3.963512  -0.003  -0.01385  0.05061  -0.004341  3.92424  -0.005
C  C47  1  0.89615562  0.69580844  0.26906840  1  0.031219  0.005735  3.707999  0.006  0.050256  0.00379  3.940104  0.004  0.04973  0.002834  3.963332  0.003  -0.013903  0.050679  0.004341  3.924073  0.005
C  C48  1  0.28812059  0.40749336  0.78809337  1  -0.094476  -0.001475  3.739191  -0.001  -0.115846  -0.00101  3.988313  -0.001  -0.117867  -0.000761  4.008686  -0.001  -0.095679  -0.114289  -0.001147  3.974217  -0.001
C  C49  1  0.78810812  0.59251161  0.21190457  1  -0.094498  0.001499  3.739361  0.001  -0.115874  0.001009  3.988485  0.001  -0.117892  0.000762  4.008855  0.001  -0.095669  -0.114318  0.001147  3.974408  0.001
C  C50  1  0.26901058  0.44595857  0.90244708  1  -0.128866  0.000652  3.798701  0.001  -0.148735  0.000151  4.049804  0.0  -0.15088  0.000132  4.070854  0.0  -0.106251  -0.147175  0.000144  4.03563  0.0
C  C51  1  0.76899425  0.55404274  0.09755429  1  -0.128941  -0.000681  3.798816  -0.001  -0.148854  -0.000153  4.049928  0.0  -0.151001  -0.000133  4.070979  0.0  -0.106331  -0.147282  -0.000145  4.035735  0.0
C  C52  1  0.35482103  0.37776530  0.95958876  1  0.077594  -0.001127  3.741179  -0.001  0.09427  -0.000407  4.00263  0.0  0.096622  -0.000235  4.024039  0.0  -0.023451  0.092489  -0.000558  3.988232  -0.001
C  C53  1  0.85482650  0.62222084  0.04040680  1  0.077739  0.001147  3.741018  0.001  0.094402  0.000408  4.002504  0.0  0.096757  0.000236  4.023907  0.0  -0.023348  0.09262  0.000558  3.988115  0.001
C  C54  1  0.45982821  0.27259156  0.90479660  1  -0.122664  -4.7e-05  3.781226  0.0  -0.142528  -0.00016  4.030433  0.0  -0.14453  -7.2e-05  4.052234  0.0  -0.102846  -0.141026  -0.000245  4.015772  0.0
C  C55  1  0.95983732  0.72739052  0.09519122  1  -0.122622  2.4e-05  3.781107  0.0  -0.142529  0.00016  4.030354  0.0  -0.144517  7.1e-05  4.052161  0.0  -0.102817  -0.141044  0.000244  4.015674  0.0
C  C56  1  0.48104844  0.23790536  0.79081685  1  -0.100943  -0.001024  3.756592  -0.001  -0.12159  -0.000724  4.005982  -0.001  -0.124518  -0.000489  4.027862  -0.001  -0.092531  -0.119614  -0.000896  3.991196  -0.001
C  C57  1  0.98104631  0.76209527  0.20917444  1  -0.100977  0.00105  3.756592  0.001  -0.12163  0.000723  4.005946  0.001  -0.12456  0.00049  4.027822  0.001  -0.092529  -0.119658  0.000896  3.991174  0.001
C  C58  1  0.84365910  0.09331812  0.25775701  1  -0.345385  0.000176  3.674419  0.0  -0.425942  0.000128  3.912036  0.0  -0.429229  0.000131  3.921742  0.0  -0.250337  -0.423423  0.000126  3.905352  0.0
C  C59  1  0.34366226  0.90668572  0.74225321  1  -0.345248  -0.000173  3.67474  0.0  -0.425807  -0.000126  3.912362  0.0  -0.429088  -0.000131  3.922069  0.0  -0.250333  -0.423293  -0.000126  3.905678  0.0
C  C60  1  0.71423838  0.16143580  0.20451367  1  0.200111  0.000895  3.628846  0.003  0.186202  -0.000503  3.865458  0.001  0.192116  5.5e-05  3.880655  0.002  0.001624  0.182531  -0.000908  3.855003  0.001
C  C61  1  0.21423757  0.83856848  0.79548991  1  0.199996  -0.000887  3.628982  -0.003  0.186083  0.000503  3.865625  -0.001  0.192002  -5.5e-05  3.880807  -0.002  0.00162  0.182404  0.000908  3.855154  -0.001
C  C62  1  0.77485793  0.14741123  0.08820045  1  0.028775  -0.005229  3.695331  -0.005  0.048212  -0.003775  3.924647  -0.004  0.04796  -0.002923  3.946912  -0.003  -0.013033  0.048465  -0.00425  3.909252  -0.004
C  C63  1  0.27485166  0.85258540  0.91180184  1  0.028854  0.005217  3.695239  0.005  0.048279  0.003776  3.924566  0.004  0.048028  0.002919  3.946834  0.003  -0.013097  0.048539  0.004251  3.909152  0.004
C  C64  1  0.87661689  0.23929289  0.06493032  1  -0.105918  -0.001143  3.74096  -0.001  -0.12475  -0.001032  3.987206  -0.001  -0.126985  -0.000774  4.007313  -0.001  -0.096279  -0.123076  -0.001192  3.973249  -0.001
C  C65  1  0.37661341  0.76069875  0.93507244  1  -0.105862  0.001163  3.740933  0.001  -0.12467  0.001032  3.987224  0.001  -0.1269  0.000777  4.007317  0.001  -0.09618  -0.122991  0.001192  3.973253  0.001
C  C66  1  0.92869087  0.22486368  0.95717063  1  -0.119983  0.000402  3.775912  0.0  -0.140435  9.8e-05  4.026757  0.0  -0.142126  8.3e-05  4.046916  0.0  -0.10067  -0.139157  9.2e-05  4.013119  0.0
C  C67  1  0.42867363  0.77512128  0.04282954  1  -0.120164  -0.00041  3.776033  0.0  -0.140634  -9.9e-05  4.026895  0.0  -0.142332  -8.6e-05  4.047065  0.0  -0.100721  -0.139374  -9.2e-05  4.013242  0.0
C  C68  1  0.88056144  0.11587922  0.87224419  1  0.079541  -0.000561  3.736178  -0.001  0.094307  -0.000248  4.000792  0.0  0.096912  -0.000135  4.02228  0.0  -0.01935  0.092383  -0.000352  3.986331  0.0
C  C69  1  0.38055508  0.88410496  0.12776249  1  0.07967  0.000577  3.736054  0.001  0.094443  0.00025  4.000676  0.0  0.097057  0.000138  4.022148  0.0  -0.019262  0.092514  0.000352  3.986233  0.0
C  C70  1  0.78286191  0.02115616  0.89283560  1  -0.124597  -0.000124  3.773709  0.0  -0.143278  -0.000272  4.022413  0.0  -0.145417  -0.000239  4.041818  0.0  -0.099217  -0.141705  -0.000299  4.009125  0.0
C  C71  1  0.28284726  0.97883019  0.10717208  1  -0.12456  0.00012  3.773533  0.0  -0.143226  0.000272  4.022219  0.0  -0.145369  0.000237  4.041624  0.0  -0.099308  -0.141662  0.000298  4.008952  0.0
C  C72  1  0.72989040  0.03817145  0.00086041  1  -0.094971  -0.00084  3.721815  -0.001  -0.110355  -0.000686  3.963004  -0.001  -0.112757  -0.000466  3.984462  -0.001  -0.088359  -0.108715  -0.000842  3.948435  -0.001
C  C73  1  0.22987991  0.96182346  0.99914888  1  -0.095169  0.00084  3.721825  0.001  -0.110574  0.000686  3.963027  0.001  -0.112977  0.000469  3.984488  0.001  -0.088365  -0.108935  0.000842  3.948461  0.001
Br  Br74  1  0.31855952  0.42737880  0.11528865  1  -0.053984  -0.000205  1.301844  0.0  -0.039504  -0.000165  1.55745  0.0  -0.044548  -4.7e-05  1.552544  0.0  0.055438  -0.035582  -0.00028  1.560869  0.0
Br  Br75  1  0.81854549  0.57261862  0.88471330  1  -0.05403  0.000205  1.301932  0.0  -0.039542  0.000163  1.557562  0.0  -0.044581  4.8e-05  1.552642  0.0  0.055399  -0.035628  0.000283  1.560981  0.0
Br  Br76  1  0.94900508  0.09770036  0.72492488  1  -0.055013  -0.000164  1.286133  0.0  -0.036683  -0.00015  1.534652  0.0  -0.043247  -9.6e-05  1.528514  0.0  0.070683  -0.032123  -0.000194  1.539108  0.0
Br  Br77  1  0.44900052  0.90228360  0.27507353  1  -0.054977  0.00016  1.286324  0.0  -0.03665  0.00015  1.534862  0.0  -0.043217  9.3e-05  1.528723  0.0  0.070715  -0.03208  0.000199  1.539317  0.0
N  N78  1  0.42048231  0.36365137  0.56247429  1  -0.634662  -0.083234  3.162497  -0.093  -0.609162  -0.062793  3.421104  -0.075  -0.642777  -0.054341  3.425129  -0.068  -0.640204  -0.589394  -0.064602  3.420079  -0.074
N  N79  1  0.92047378  0.63635597  0.43752575  1  -0.634481  0.083233  3.162205  0.093  -0.609101  0.062795  3.420905  0.075  -0.64271  0.054345  3.424926  0.068  -0.640175  -0.589351  0.064599  3.41991  0.074
N  N80  1  0.69533814  0.29333875  0.27654186  1  -0.629514  -0.074883  3.17159  -0.084  -0.601233  -0.059518  3.4297  -0.071  -0.632515  -0.05211  3.431941  -0.066  -0.63823  -0.582459  -0.061025  3.429431  -0.07
N  N81  1  0.19533791  0.70666838  0.72346174  1  -0.629306  0.074889  3.171434  0.084  -0.601048  0.059521  3.429412  0.071  -0.632319  0.052114  3.431647  0.066  -0.638133  -0.582288  0.061034  3.429158  0.07
N  N82  1  0.79054272  0.31859672  0.50254981  1  -0.468982  -0.052496  2.667279  -0.061  -0.490703  -0.028776  2.977506  -0.037  -0.518026  -0.016791  2.982355  -0.024  -0.281691  -0.473573  -0.037647  2.974135  -0.045
N  N83  1  0.29054245  0.68140918  0.49745152  1  -0.469071  0.052533  2.667113  0.061  -0.490795  0.028782  2.977363  0.037  -0.518111  0.0168  2.982203  0.024  -0.281728  -0.473663  0.037651  2.974025  0.045
N  N84  1  0.32713372  0.25959532  0.32756970  1  -0.482958  -0.057062  2.67776  -0.066  -0.509581  -0.032831  3.00773  -0.041  -0.542596  -0.020534  3.018336  -0.029  -0.289948  -0.491506  -0.039552  3.003062  -0.047
N  N85  1  0.82712442  0.74040953  0.67242760  1  -0.48318  0.057072  2.677483  0.066  -0.509799  0.032838  3.007442  0.041  -0.542806  0.020543  3.018034  0.029  -0.289982  -0.491731  0.039566  3.002796  0.047
N  N86  1  0.90596577  0.39517783  0.54019538  1  0.397515  0.015576  4.206652  0.024  0.449853  -0.001975  4.50394  0.001  0.47105  -0.000593  4.536198  0.002  0.082819  0.436681  -0.003317  4.481315  0.0
N  N87  1  0.40597690  0.60482490  0.45980240  1  0.397548  -0.015573  4.206954  -0.024  0.449873  0.001984  4.504238  -0.001  0.47107  0.000598  4.53649  -0.002  0.082779  0.4367  0.003322  4.481645  0.0
N  N88  1  0.02605505  0.46673435  0.57937719  1  -0.474027  -0.09674  2.561326  -0.1  -0.496833  -0.048071  2.844714  -0.051  -0.516932  -0.040398  2.851262  -0.045  -0.247559  -0.484227  -0.054258  2.840661  -0.057
N  N89  1  0.52605715  0.53327426  0.42062455  1  -0.473971  0.096684  2.56176  0.1  -0.496758  0.048046  2.845106  0.051  -0.516854  0.040379  2.851653  0.045  -0.247501  -0.484167  0.054232  2.841087  0.057
N  N90  1  0.20559955  0.32752971  0.32222563  1  0.378675  0.019696  4.221053  0.029  0.421319  -0.000558  4.529277  0.004  0.439763  0.002322  4.56433  0.007  0.077333  0.409773  -0.003612  4.507372  0.001
N  N91  1  0.70558287  0.67247181  0.67777320  1  0.378768  -0.019668  4.220851  -0.029  0.421407  0.000564  4.529061  -0.004  0.439853  -0.002319  4.564098  -0.007  0.077314  0.409861  0.003615  4.507165  -0.001
N  N92  1  0.08332756  0.39066958  0.31295327  1  -0.41854  -0.1122  2.517748  -0.115  -0.424864  -0.059233  2.771669  -0.064  -0.439554  -0.0519  2.784323  -0.059  -0.212742  -0.417152  -0.062691  2.764908  -0.065
N  N93  1  0.58331864  0.60933513  0.68704676  1  -0.418444  0.11215  2.517873  0.115  -0.424757  0.059217  2.771793  0.064  -0.439452  0.051888  2.784457  0.059  -0.212675  -0.41705  0.062687  2.765039  0.065
