# generated using pymatgen
data_AlH5C11Cl2O5
_symmetry_space_group_name_H-M   'P 1'
_cell_length_a   6.87068189
_cell_length_b   11.21364523
_cell_length_c   10.90640180
_cell_angle_alpha   76.23322370
_cell_angle_beta   74.82794172
_cell_angle_gamma   70.52466979
_symmetry_Int_Tables_number   1
_chemical_formula_structural   AlH5C11Cl2O5
_chemical_formula_sum   'Al2 H10 C22 Cl4 O10'
_cell_volume   754.03689544
_cell_formula_units_Z   2
loop_
 _symmetry_equiv_pos_site_id
 _symmetry_equiv_pos_as_xyz
  1  'x, y, z'
loop_
 _atom_site_type_symbol
 _atom_site_label
 _atom_site_symmetry_multiplicity
 _atom_site_fract_x
 _atom_site_fract_y
 _atom_site_fract_z
 _atom_site_occupancy
 _atom_site_pbe_bader_charge
 _atom_site_pbe_bader_spin_density
 _atom_site_pbe_cm5_charge
 _atom_site_pbe_ddec_charge
 _atom_site_pbe_ddec_spin_density
 _atom_site_pbe_ddec_sum_bond_order
 _atom_site_pbe_magmom
Al  Al0  1  0.50150702  0.49761673  0.50650857  1  2.506723  0  0.398637  1.649445  0  2.547587  0
Al  Al1  1  0.00263273  0.49645729  0.50601986  1  2.504019  0  0.403508  1.635333  0  2.540102  0
H  H2  1  0.30237507  0.33839191  0.59196344  1  0.626279  0  0.329301  0.407052  0  0.899306  0
H  H3  1  0.73103849  0.63960139  0.38654133  1  0.595371  0  0.332595  0.411011  0  0.892858  0
H  H4  1  0.86034107  0.51291761  0.90971670  1  0.092581  0  0.101231  0.10141  0  1.104817  0
H  H5  1  0.71007864  0.52665017  0.14300255  1  0.095707  0  0.103656  0.10084  0  1.057872  0
H  H6  1  0.95845817  0.58703511  0.06513030  1  0.054374  0  0.095557  0.109452  0  1.000021  0
H  H7  1  0.03441391  0.41569702  0.10526568  1  0.067288  0  0.099215  0.115634  0  0.98111  0
H  H8  1  0.18734200  0.40117498  0.86883754  1  0.070524  0  0.102302  0.121146  0  0.968875  0
H  H9  1  0.11115519  0.57122387  0.83088814  1  0.079421  0  0.101999  0.118633  0  0.983752  0
H  H10  1  0.21802398  0.24685991  0.32540991  1  0.113157  0  0.113781  0.137369  0  1.013733  0
H  H11  1  0.41545337  0.77670595  0.33286995  1  0.103467  0  0.112583  0.126829  0  1.031996  0
C  C12  1  0.86751052  0.27390954  0.49589848  1  1.642844  0  0.271903  0.666024  0  4.081304  0
C  C13  1  0.67102063  0.48394962  0.73220990  1  1.553408  0  0.271937  0.656109  0  4.07844  0
C  C14  1  0.13344615  0.71936760  0.51645420  1  1.605664  0  0.271371  0.659401  0  4.091089  0
C  C15  1  0.33151605  0.51780446  0.27758398  1  1.55642  0  0.267967  0.65151  0  4.0798  0
C  C16  1  0.41053580  0.51370524  0.13826555  1  -0.009995  0  -0.018226  -0.094184  0  4.013187  0
C  C17  1  0.58570896  0.49478264  0.86997626  1  0.015384  0  -0.012903  -0.08503  0  3.992609  0
C  C18  1  0.29620157  0.50198779  0.05650206  1  0.047313  0  -0.007221  0.062979  0  3.920338  0
C  C19  1  0.70143440  0.50911016  0.95148219  1  -0.013748  0  -0.089906  -0.106906  0  3.985827  0
C  C20  1  0.38117429  0.49294268  0.92692021  1  -0.082323  0  -0.001485  0.074785  0  3.906458  0
C  C21  1  0.61722043  0.51783282  0.08098421  1  -0.059481  0  -0.088012  -0.103471  0  3.9947  0
C  C22  1  0.08447718  0.49857707  0.04702163  1  -0.045908  0  -0.154019  -0.209819  0  3.893388  0
C  C23  1  0.18063912  0.48894222  0.89976955  1  -0.056926  0  -0.153262  -0.207943  0  3.883627  0
C  C24  1  0.93906116  0.13117623  0.50015753  1  0.062828  0  -0.009751  -0.128179  0  3.910219  0
C  C25  1  0.12774864  0.07246940  0.41651462  1  -0.017968  0  0.002593  0.079853  0  3.966824  0
C  C26  1  0.82064614  0.05651992  0.58677255  1  0.09359  0  0.017596  0.070076  0  4.024093  0
C  C27  1  0.25842524  0.14373153  0.32944305  1  0.058477  0  -0.091021  -0.185279  0  3.92596  0
C  C28  1  0.44216323  0.08405881  0.25151990  1  0.046983  0  0.010197  0.092306  0  4.065702  0
C  C29  1  0.06259868  0.86232558  0.50999138  1  0.079714  0  -0.009012  -0.123407  0  3.915168  0
C  C30  1  0.88353658  0.92096651  0.59260798  1  0.06581  0  0.01625  0.066695  0  4.041644  0
C  C31  1  0.18779881  0.93653328  0.42042656  1  0.016755  0  0.002768  0.0838  0  3.963879  0
C  C32  1  0.37168196  0.87884862  0.33490879  1  0.02964  0  -0.0911  -0.183844  0  3.94192  0
C  C33  1  0.49897788  0.94947247  0.25393690  1  0.110063  0  0.008796  0.092426  0  4.064446  0
Cl  Cl34  1  0.74182433  0.83034317  0.70707256  1  -0.16364  0  0.020813  -0.029927  0  1.582366  0
Cl  Cl35  1  0.60241341  0.12398225  0.69599960  1  -0.175416  0  0.021507  -0.04089  0  1.586456  0
Cl  Cl36  1  0.60151406  0.17294382  0.15200998  1  -0.184266  0  0.00668  -0.053115  0  1.545434  0
Cl  Cl37  1  0.72741875  0.87223745  0.15772601  1  -0.190782  0  0.000303  -0.065553  0  1.497151  0
O  O38  1  0.68423342  0.33174561  0.47317741  1  -1.25122  0  -0.231538  -0.588768  0  2.354516  0
O  O39  1  0.85385777  0.49703589  0.68146421  1  -1.253813  0  -0.232288  -0.585783  0  2.336281  0
O  O40  1  0.00886919  0.66888353  0.49418210  1  -1.250956  0  -0.227157  -0.584376  0  2.362085  0
O  O41  1  0.45036800  0.54155499  0.33586751  1  -1.273582  0  -0.24162  -0.610809  0  2.374661  0
O  O42  1  0.31658277  0.66244920  0.54032353  1  -1.250528  0  -0.22783  -0.57515  0  2.331295  0
O  O43  1  0.15317991  0.49737852  0.32866888  1  -1.257717  0  -0.233849  -0.583257  0  2.308443  0
O  O44  1  0.99629289  0.32339528  0.51563948  1  -1.252757  0  -0.226611  -0.581101  0  2.327788  0
O  O45  1  0.55029973  0.46047381  0.67540625  1  -1.263733  0  -0.234841  -0.604537  0  2.379793  0
O  O46  1  0.26559109  0.43002826  0.56017677  1  -1.434549  0  -0.451473  -0.977937  0  2.136893  0
O  O47  1  0.74177676  0.56158189  0.44949511  1  -1.404501  0  -0.451923  -0.980855  0  2.13933  0
