# generated using pymatgen
data_CdH20C26(NO5)2
_symmetry_space_group_name_H-M   'P 1'
_cell_length_a   6.74924784
_cell_length_b   8.82732401
_cell_length_c   11.13737699
_cell_angle_alpha   88.28864060
_cell_angle_beta   105.65286286
_cell_angle_gamma   84.83023434
_symmetry_Int_Tables_number   1
_chemical_formula_structural   CdH20C26(NO5)2
_chemical_formula_sum   'Cd1 H20 C26 N2 O10'
_cell_volume   635.31703291
_cell_formula_units_Z   1
loop_
 _symmetry_equiv_pos_site_id
 _symmetry_equiv_pos_as_xyz
  1  'x, y, z'
loop_
 _atom_site_type_symbol
 _atom_site_label
 _atom_site_symmetry_multiplicity
 _atom_site_fract_x
 _atom_site_fract_y
 _atom_site_fract_z
 _atom_site_occupancy
 _atom_site_hle17_bader_spin_density
 _atom_site_hle17_ddec_charge
 _atom_site_hle17_ddec_spin_density
 _atom_site_hle17_ddec_sum_bond_order
 _atom_site_hle17_magmom
 _atom_site_hse06_10hf_bader_spin_density
 _atom_site_hse06_10hf_ddec_charge
 _atom_site_hse06_10hf_ddec_spin_density
 _atom_site_hse06_10hf_ddec_sum_bond_order
 _atom_site_hse06_10hf_magmom
 _atom_site_hse06_bader_spin_density
 _atom_site_hse06_ddec_charge
 _atom_site_hse06_ddec_spin_density
 _atom_site_hse06_ddec_sum_bond_order
 _atom_site_hse06_magmom
 _atom_site_pbe_bader_spin_density
 _atom_site_pbe_cm5_charge
 _atom_site_pbe_ddec_charge
 _atom_site_pbe_ddec_spin_density
 _atom_site_pbe_ddec_sum_bond_order
 _atom_site_pbe_magmom
Cd  Cd0  1  0.99998916  0.99998952  0.50000657  1  0  1.116107  0  1.681884  0  0  0.921555  0  2.128064  0  0  0.977922  0  2.075636  0  0  0.760301  0.881769  0  2.163748  0
H  H1  1  0.65253493  0.88746050  0.47023628  1  0  0.409605  0  0.904883  0  0  0.37854  0  0.970723  0  0  0.389463  0  0.955014  0  0  0.284618  0.370858  0  0.981736  0
H  H2  1  0.34744438  0.11255963  0.52977642  1  0  0.409549  0  0.904989  0  0  0.378531  0  0.970764  0  0  0.389454  0  0.955056  0  0  0.28455  0.37085  0  0.981776  0
H  H3  1  0.64768044  0.93603387  0.32895516  1  0  0.414802  0  0.892909  0  0  0.384116  0  0.956691  0  0  0.395217  0  0.940596  0  0  0.286058  0.376305  0  0.967978  0
H  H4  1  0.35230794  0.06397366  0.67105231  1  0  0.414599  0  0.893214  0  0  0.384005  0  0.956843  0  0  0.39509  0  0.940758  0  0  0.286027  0.376205  0  0.968126  0
H  H5  1  0.13096524  0.93300091  0.81746504  1  0  0.412401  0  0.871431  0  0  0.379896  0  0.951952  0  0  0.393723  0  0.93586  0  0  0.30218  0.370132  0  0.962674  0
H  H6  1  0.86904488  0.06697114  0.18254801  1  0  0.412471  0  0.871387  0  0  0.379903  0  0.952015  0  0  0.393733  0  0.935868  0  0  0.302162  0.370136  0  0.962746  0
H  H7  1  0.27446745  0.59348425  0.04179974  1  0  0.102525  0  0.941867  0  0  0.113771  0  0.999697  0  0  0.116756  0  0.999034  0  0  0.106845  0.11168  0  1.000232  0
H  H8  1  0.72551630  0.40649829  0.95820186  1  0  0.10254  0  0.941622  0  0  0.113872  0  0.999368  0  0  0.116859  0  0.998699  0  0  0.10692  0.111783  0  0.999901  0
H  H9  1  0.18958010  0.04938093  0.11535397  1  0  0.113207  0  0.945836  0  0  0.119835  0  1.012168  0  0  0.123463  0  1.009573  0  0  0.110269  0.117191  0  1.014165  0
H  H10  1  0.81047190  0.95060781  0.88466082  1  0  0.113186  0  0.945702  0  0  0.119811  0  1.012022  0  0  0.123435  0  1.009433  0  0  0.110265  0.117166  0  1.01402  0
H  H11  1  0.33017919  0.40545695  0.89017432  1  0  0.093625  0  0.964339  0  0  0.101066  0  1.0323  0  0  0.104204  0  1.030311  0  0  0.103575  0.098799  0  1.033792  0
H  H12  1  0.66979584  0.59453478  0.10982630  1  0  0.093547  0  0.964191  0  0  0.101021  0  1.03215  0  0  0.104165  0  1.030148  0  0  0.103522  0.098755  0  1.03364  0
H  H13  1  0.41403709  0.68438385  0.23195035  1  0  0.114581  0  0.968478  0  0  0.121869  0  1.033408  0  0  0.125848  0  1.03123  0  0  0.106647  0.119025  0  1.035098  0
H  H14  1  0.58596630  0.31560763  0.76803793  1  0  0.114536  0  0.96858  0  0  0.121872  0  1.033458  0  0  0.125793  0  1.031346  0  0  0.106639  0.119028  0  1.035151  0
H  H15  1  0.85967420  0.65354142  0.43814604  1  0  0.08403  0  0.957555  0  0  0.092508  0  1.020738  0  0  0.095113  0  1.018762  0  0  0.116198  0.090557  0  1.022292  0
H  H16  1  0.14026147  0.34649167  0.56181023  1  0  0.084007  0  0.957663  0  0  0.092436  0  1.020922  0  0  0.09504  0  1.018947  0  0  0.11616  0.090488  0  1.022473  0
H  H17  1  0.92101349  0.44506887  0.30396616  1  0  0.109504  0  0.940352  0  0  0.123395  0  0.992316  0  0  0.126272  0  0.991867  0  0  0.112078  0.121321  0  0.992806  0
H  H18  1  0.07896919  0.55494784  0.69601606  1  0  0.109372  0  0.94049  0  0  0.123278  0  0.992492  0  0  0.126155  0  0.992042  0  0  0.112005  0.121204  0  0.992983  0
H  H19  1  0.32727232  0.88327873  0.36583349  1  0  0.08265  0  0.960268  0  0  0.093634  0  1.021034  0  0  0.095838  0  1.019217  0  0  0.117629  0.091972  0  1.022382  0
H  H20  1  0.67272549  0.11673443  0.63414183  1  0  0.082708  0  0.960324  0  0  0.0936  0  1.021182  0  0  0.095794  0  1.019367  0  0  0.117659  0.091941  0  1.02253  0
C  C21  1  0.19051257  0.27168423  0.19040415  1  0  -0.086693  0  3.686232  0  0  -0.068086  0  3.9228  0  0  -0.075457  0  3.942418  0  0  -0.007724  -0.063494  0  3.909716  0
C  C22  1  0.80951011  0.72830365  0.80960025  1  0  -0.086728  0  3.685394  0  0  -0.068297  0  3.922069  0  0  -0.075665  0  3.941697  0  0  -0.007797  -0.063705  0  3.908978  0
C  C23  1  0.26439508  0.47308614  0.06114482  1  0  -0.109409  0  3.73373  0  0  -0.127662  0  3.987519  0  0  -0.132613  0  4.009012  0  0  -0.084765  -0.124425  0  3.972888  0
C  C24  1  0.73561060  0.52689846  0.93888018  1  0  -0.109619  0  3.733582  0  0  -0.127989  0  3.987397  0  0  -0.13294  0  4.008887  0  0  -0.084985  -0.12475  0  3.972766  0
C  C25  1  0.21328788  0.42735215  0.17005933  1  0  0.051861  0  3.725694  0  0  0.057126  0  3.956197  0  0  0.0594  0  3.977816  0  0  0.007277  0.055749  0  3.941493  0
C  C26  1  0.78672078  0.57262560  0.82996249  1  0  0.051964  0  3.725528  0  0  0.057315  0  3.955909  0  0  0.05958  0  3.977549  0  0  0.007426  0.055939  0  3.941203  0
C  C27  1  0.26337076  0.21565547  0.99319471  1  0  -0.076977  0  3.770678  0  0  -0.054692  0  4.009851  0  0  -0.064244  0  4.033192  0  0  -0.01889  -0.048508  0  3.994111  0
C  C28  1  0.73666602  0.78431521  0.00681680  1  0  -0.076711  0  3.771103  0  0  -0.054491  0  4.010278  0  0  -0.064042  0  4.033626  0  0  -0.018959  -0.048307  0  3.994539  0
C  C29  1  0.21169622  0.16844537  0.10099120  1  0  -0.052768  0  3.679764  0  0  -0.089874  0  3.928917  0  0  -0.086625  0  3.946242  0  0  -0.072489  -0.091882  0  3.917299  0
C  C30  1  0.78834990  0.83153772  0.89903968  1  0  -0.052923  0  3.679928  0  0  -0.08996  0  3.929095  0  0  -0.086692  0  3.94639  0  0  -0.072506  -0.091969  0  3.917481  0
C  C31  1  0.29308477  0.36870275  0.97497238  1  0  -0.05701  0  3.750388  0  0  -0.08634  0  4.006768  0  0  -0.084404  0  4.026638  0  0  -0.080016  -0.087371  0  3.993179  0
C  C32  1  0.70690843  0.63130361  0.02502369  1  0  -0.056897  0  3.750576  0  0  -0.086239  0  4.006959  0  0  -0.084302  0  4.026836  0  0  -0.079888  -0.087267  0  3.993366  0
C  C33  1  0.16125072  0.21049636  0.31154351  1  0  0.662697  0  3.895207  0  0  0.605637  0  4.204021  0  0  0.640048  0  4.195658  0  0  0.213928  0.582315  0  4.208891  0
C  C34  1  0.83879427  0.78951977  0.68844895  1  0  0.662707  0  3.895663  0  0  0.605811  0  4.204263  0  0  0.640221  0  4.195904  0  0  0.214159  0.582492  0  4.209129  0
C  C35  1  0.27185698  0.11042462  0.89235894  1  0  0.668331  0  3.805147  0  0  0.615668  0  4.104552  0  0  0.64979  0  4.09562  0  0  0.237813  0.592484  0  4.110083  0
C  C36  1  0.72815964  0.88955877  0.10763698  1  0  0.668373  0  3.804401  0  0  0.615729  0  4.103792  0  0  0.649829  0  4.094887  0  0  0.237895  0.592541  0  4.109325  0
C  C37  1  0.28858802  0.67126213  0.27462545  1  0  -0.158188  0  3.674093  0  0  -0.17317  0  3.915154  0  0  -0.181246  0  3.934988  0  0  -0.081925  -0.167977  0  3.90192  0
C  C38  1  0.71140557  0.32873967  0.72537625  1  0  -0.15808  0  3.674071  0  0  -0.173158  0  3.91507  0  0  -0.181186  0  3.934929  0  0  -0.081916  -0.167963  0  3.901841  0
C  C39  1  0.17495613  0.54445869  0.25537789  1  0  0.109825  0  3.759812  0  0  0.119543  0  3.993829  0  0  0.124356  0  4.01554  0  0  0.015474  0.116471  0  3.97904  0
C  C40  1  0.82506708  0.45553601  0.74463177  1  0  0.109645  0  3.760019  0  0  0.119515  0  3.99386  0  0  0.124327  0  4.015575  0  0  0.015389  0.116444  0  3.979067  0
C  C41  1  0.98121205  0.65540949  0.39050096  1  0  0.128462  0  3.719231  0  0  0.096381  0  3.976811  0  0  0.104029  0  3.994813  0  0  0.042409  0.091464  0  3.964509  0
C  C42  1  0.01874610  0.34461314  0.60946919  1  0  0.128455  0  3.719275  0  0  0.096388  0  3.976963  0  0  0.104035  0  3.994968  0  0  0.042554  0.091469  0  3.964659  0
C  C43  1  0.01816918  0.53862245  0.31605538  1  0  -0.152902  0  3.703089  0  0  -0.172596  0  3.955809  0  0  -0.180474  0  3.976521  0  0  -0.079951  -0.16756  0  3.94195  0
C  C44  1  0.98182452  0.46138619  0.68393158  1  0  -0.152672  0  3.70341  0  0  -0.172504  0  3.9562  0  0  -0.180381  0  3.976914  0  0  -0.079897  -0.167468  0  3.942343  0
C  C45  1  0.24146572  0.78362241  0.35017430  1  0  0.14689  0  3.698025  0  0  0.115345  0  3.947167  0  0  0.12349  0  3.965102  0  0  0.045915  0.110073  0  3.934946  0
C  C46  1  0.75851060  0.21638638  0.64981495  1  0  0.146693  0  3.698104  0  0  0.115218  0  3.947227  0  0  0.123375  0  3.965141  0  0  0.045861  0.10994  0  3.935012  0
N  N47  1  0.09020956  0.77721921  0.40727253  1  0  -0.342186  0  3.244152  0  0  -0.265649  0  3.509675  0  0  -0.285716  0  3.527376  0  0  -0.332841  -0.252001  0  3.497298  0
N  N48  1  0.90975636  0.22279765  0.59270839  1  0  -0.342014  0  3.243901  0  0  -0.26542  0  3.509317  0  0  -0.285487  0  3.527021  0  0  -0.332857  -0.251767  0  3.496936  0
O  O49  1  0.65205941  0.97642553  0.41198418  1  0  -0.818937  0  1.874175  0  0  -0.757105  0  2.060334  0  0  -0.780487  0  2.028161  0  0  -0.592212  -0.740558  0  2.082486  0
O  O50  1  0.34793398  0.02358537  0.58802084  1  0  -0.818746  0  1.874396  0  0  -0.756979  0  2.060388  0  0  -0.780339  0  2.028268  0  0  -0.592117  -0.740449  0  2.082502  0
O  O51  1  0.01243946  0.12538119  0.30543697  1  0  -0.673071  0  2.02318  0  0  -0.601611  0  2.268148  0  0  -0.632121  0  2.256281  0  0  -0.32322  -0.580098  0  2.275358  0
O  O52  1  0.98757433  0.87463295  0.69456133  1  0  -0.672872  0  2.024122  0  0  -0.601508  0  2.26908  0  0  -0.632001  0  2.257193  0  0  -0.323237  -0.580004  0  2.276294  0
O  O53  1  0.28535599  0.24355768  0.41079647  1  0  -0.598302  0  1.972532  0  0  -0.549897  0  2.194004  0  0  -0.574206  0  2.185374  0  0  -0.305765  -0.532819  0  2.199365  0
O  O54  1  0.71463832  0.75644296  0.58921985  1  0  -0.598353  0  1.972684  0  0  -0.549958  0  2.194037  0  0  -0.574275  0  2.185419  0  0  -0.305843  -0.532876  0  2.199391  0
O  O55  1  0.18381347  0.98354832  0.90100732  1  0  -0.558268  0  2.103969  0  0  -0.505852  0  2.3246  0  0  -0.529165  0  2.308849  0  0  -0.327667  -0.489537  0  2.334576  0
O  O56  1  0.81623939  0.01643017  0.09901242  1  0  -0.558311  0  2.103702  0  0  -0.505835  0  2.324336  0  0  -0.529143  0  2.308565  0  0  -0.327578  -0.48952  0  2.334317  0
O  O57  1  0.34890000  0.14443167  0.80703746  1  0  -0.578285  0  2.001812  0  0  -0.526557  0  2.22123  0  0  -0.549203  0  2.212799  0  0  -0.281597  -0.511037  0  2.226754  0
O  O58  1  0.65104440  0.85558425  0.19295274  1  0  -0.578531  0  2.001443  0  0  -0.526758  0  2.220878  0  0  -0.549403  0  2.212477  0  0  -0.281766  -0.511234  0  2.226393  0
