# generated using pymatgen
data_AgH19C15(N2O)2
_symmetry_space_group_name_H-M   'P 1'
_cell_length_a   10.67209805
_cell_length_b   12.15453892
_cell_length_c   12.67943580
_cell_angle_alpha   93.14522605
_cell_angle_beta   90.00027222
_cell_angle_gamma   89.99992035
_symmetry_Int_Tables_number   1
_chemical_formula_structural   AgH19C15(N2O)2
_chemical_formula_sum   'Ag4 H76 C60 N16 O8'
_cell_volume   1642.22833555
_cell_formula_units_Z   4
loop_
 _symmetry_equiv_pos_site_id
 _symmetry_equiv_pos_as_xyz
  1  'x, y, z'
loop_
 _atom_site_type_symbol
 _atom_site_label
 _atom_site_symmetry_multiplicity
 _atom_site_fract_x
 _atom_site_fract_y
 _atom_site_fract_z
 _atom_site_occupancy
 _atom_site_pbe_bader_charge
 _atom_site_pbe_bader_spin_density
 _atom_site_pbe_cm5_charge
 _atom_site_pbe_ddec_charge
 _atom_site_pbe_ddec_spin_density
 _atom_site_pbe_ddec_sum_bond_order
 _atom_site_pbe_magmom
Ag  Ag0  1  0.93037457  0.99372362  0.90236792  1  0.560424  0  0.41793  0.344841  0  1.940141  0
Ag  Ag1  1  0.56962498  0.99372271  0.40236732  1  0.560434  0  0.417942  0.34485  0  1.940159  0
Ag  Ag2  1  0.06962482  0.00627675  0.09763298  1  0.561349  0  0.417939  0.344844  0  1.940139  0
Ag  Ag3  1  0.43037348  0.00627519  0.59763264  1  0.561337  0  0.417928  0.344806  0  1.940179  0
H  H4  1  0.67268215  0.27847767  0.07298047  1  0.016314  0  0.100868  0.116445  0  1.013609  0
H  H5  1  0.82731388  0.27847950  0.57298071  1  0.016335  0  0.100837  0.11642  0  1.013731  0
H  H6  1  0.32731725  0.72152023  0.92702028  1  0.016293  0  0.100851  0.11641  0  1.013657  0
H  H7  1  0.17268363  0.72151924  0.42701851  1  0.016281  0  0.100841  0.116405  0  1.013675  0
H  H8  1  0.90468489  0.77572078  0.74701325  1  0.061768  0  0.116767  0.087044  0  0.997405  0
H  H9  1  0.59531694  0.77571983  0.24701512  1  0.061768  0  0.116775  0.087054  0  0.997401  0
H  H10  1  0.09531638  0.22428124  0.25298775  1  0.061774  0  0.116788  0.08706  0  0.997449  0
H  H11  1  0.40468432  0.22427806  0.75298642  1  0.061779  0  0.116731  0.087009  0  0.997363  0
H  H12  1  0.88464445  0.88533201  0.65941331  1  0.037262  0  0.113645  0.07608  0  0.966958  0
H  H13  1  0.61535578  0.88533187  0.15941452  1  0.037288  0  0.113663  0.076121  0  0.966943  0
H  H14  1  0.11535682  0.11466919  0.34058764  1  0.037284  0  0.113646  0.076102  0  0.966957  0
H  H15  1  0.38464455  0.11466685  0.84058706  1  0.037249  0  0.113651  0.076083  0  0.966957  0
H  H16  1  0.86529989  0.27517475  0.25302346  1  0.067709  0  0.10216  0.09867  0  1.012301  0
H  H17  1  0.63469904  0.27517840  0.75302383  1  0.067705  0  0.102181  0.098707  0  1.012313  0
H  H18  1  0.13470044  0.72482398  0.74697655  1  0.067744  0  0.102162  0.098663  0  1.012296  0
H  H19  1  0.36530036  0.72482281  0.24697476  1  0.067718  0  0.102173  0.098686  0  1.012348  0
H  H20  1  0.65694679  0.86774305  0.92748249  1  0.073011  0  0.115857  0.081205  0  0.968838  0
H  H21  1  0.84305592  0.86774187  0.42748455  1  0.072975  0  0.115844  0.081166  0  0.968857  0
H  H22  1  0.34305167  0.13225816  0.07251609  1  0.073019  0  0.115864  0.081214  0  0.968817  0
H  H23  1  0.15694535  0.13225604  0.57251541  1  0.072971  0  0.115848  0.08121  0  0.968887  0
H  H24  1  0.77366236  0.76432453  0.89843839  1  0.052572  0  0.119757  0.090759  0  0.985864  0
H  H25  1  0.72634129  0.76432346  0.39843920  1  0.052579  0  0.119756  0.09073  0  0.985824  0
H  H26  1  0.22633704  0.23567667  0.10156177  1  0.052554  0  0.119754  0.090754  0  0.985825  0
H  H27  1  0.27366091  0.23567444  0.60156155  1  0.052573  0  0.11975  0.090712  0  0.985874  0
H  H28  1  0.82320075  0.37948177  0.41164466  1  0.062217  0  0.100346  0.0997  0  1.004906  0
H  H29  1  0.67679609  0.37948623  0.91164367  1  0.061675  0  0.10036  0.099713  0  1.004896  0
H  H30  1  0.17680145  0.62051780  0.58835382  1  0.062226  0  0.100344  0.099702  0  1.004889  0
H  H31  1  0.32320049  0.62051582  0.08835418  1  0.062227  0  0.10035  0.099678  0  1.004918  0
H  H32  1  0.74633659  0.63412820  0.75264256  1  0.081826  0  0.109956  0.072297  0  1.026119  0
H  H33  1  0.75366551  0.63412711  0.25264348  1  0.081846  0  0.109942  0.072297  0  1.026103  0
H  H34  1  0.25366468  0.36587299  0.24735839  1  0.081834  0  0.109946  0.072325  0  1.026114  0
H  H35  1  0.24633576  0.36587162  0.74735574  1  0.081834  0  0.10994  0.072304  0  1.026159  0
H  H36  1  0.61009604  0.64066070  0.67105279  1  0.058804  0  0.11192  0.07562  0  0.998398  0
H  H37  1  0.88990559  0.64066030  0.17105430  1  0.05878  0  0.111914  0.07561  0  0.998387  0
H  H38  1  0.38990617  0.35933968  0.32894732  1  0.05875  0  0.111901  0.075587  0  0.998403  0
H  H39  1  0.11009568  0.35934008  0.82894581  1  0.05872  0  0.111925  0.075642  0  0.998385  0
H  H40  1  0.57597867  0.41959954  0.14737337  1  0.07982  0  0.10159  0.100861  0  1.010546  0
H  H41  1  0.92401755  0.41960292  0.64737409  1  0.079789  0  0.101573  0.100831  0  1.010545  0
H  H42  1  0.42402166  0.58040084  0.85262674  1  0.079789  0  0.101593  0.100864  0  1.010536  0
H  H43  1  0.07597809  0.58039995  0.35262381  1  0.07985  0  0.101604  0.100847  0  1.010594  0
H  H44  1  0.52559653  0.62045686  0.43359683  1  0.104102  0  0.099332  0.102927  0  1.022286  0
H  H45  1  0.97440098  0.62046017  0.93360090  1  0.103993  0  0.099397  0.103028  0  1.022182  0
H  H46  1  0.47440192  0.37954022  0.56640387  1  0.104018  0  0.099381  0.103017  0  1.022269  0
H  H47  1  0.02559654  0.37954103  0.06640005  1  0.104033  0  0.099385  0.10299  0  1.022231  0
H  H48  1  0.70822166  0.52648992  0.51548306  1  0.071669  0  0.100992  0.102793  0  1.006323  0
H  H49  1  0.79177552  0.52649292  0.01548359  1  0.071597  0  0.100988  0.10274  0  1.006324  0
H  H50  1  0.29177867  0.47350799  0.48451691  1  0.071651  0  0.100998  0.102805  0  1.00629  0
H  H51  1  0.20822106  0.47350829  0.98451579  1  0.071607  0  0.100971  0.102764  0  1.006332  0
H  H52  1  0.46178199  0.56430532  0.25080792  1  0.076952  0  0.096506  0.091193  0  1.054208  0
H  H53  1  0.03821533  0.56430905  0.75081027  1  0.076836  0  0.096495  0.091207  0  1.054224  0
H  H54  1  0.53821740  0.43569423  0.74919293  1  0.076935  0  0.096488  0.091171  0  1.05421  0
H  H55  1  0.96178312  0.43569215  0.24918989  1  0.076827  0  0.096497  0.091186  0  1.05417  0
H  H56  1  0.45381561  0.77855526  0.70988861  1  0.065023  0  0.114083  0.07946  0  1.000996  0
H  H57  1  0.04618582  0.77855517  0.20989112  1  0.065026  0  0.11408  0.079456  0  1.000953  0
H  H58  1  0.54618565  0.22144432  0.29010909  1  0.06503  0  0.114083  0.079436  0  1.000988  0
H  H59  1  0.95381544  0.22144521  0.79010899  1  0.065026  0  0.114089  0.07946  0  1.000959  0
H  H60  1  0.47389718  0.87529122  0.82003627  1  0.063724  0  0.112865  0.07454  0  0.977512  0
H  H61  1  0.02610378  0.87529115  0.32003870  1  0.063662  0  0.112842  0.074509  0  0.977476  0
H  H62  1  0.52610127  0.12470835  0.17996222  1  0.063687  0  0.112862  0.074524  0  0.977486  0
H  H63  1  0.97389655  0.12470839  0.67996215  1  0.063673  0  0.112853  0.07452  0  0.977488  0
H  H64  1  0.72803968  0.02396742  0.69725979  1  0.074002  0  0.116651  0.084099  0  0.993857  0
H  H65  1  0.77196027  0.02396632  0.19725999  1  0.074103  0  0.116658  0.084071  0  0.993866  0
H  H66  1  0.27196065  0.97603460  0.30274121  1  0.073778  0  0.116639  0.084057  0  0.993877  0
H  H67  1  0.22803912  0.97603322  0.80274165  1  0.073993  0  0.116669  0.084148  0  0.993805  0
H  H68  1  0.63270449  0.01819148  0.81286973  1  0.092658  0  0.118345  0.08791  0  0.965347  0
H  H69  1  0.86729706  0.01819194  0.31287041  1  0.092625  0  0.118333  0.087911  0  0.965329  0
H  H70  1  0.36729490  0.98180807  0.18713034  1  0.092661  0  0.118355  0.087941  0  0.965309  0
H  H71  1  0.13270327  0.98180761  0.68713044  1  0.092647  0  0.118342  0.087913  0  0.965333  0
H  H72  1  0.58505740  0.78937282  0.55552298  1  0.115656  0  0.114436  0.085193  0  1.002979  0
H  H73  1  0.91494333  0.78937240  0.05552459  1  0.115585  0  0.11442  0.085129  0  1.003029  0
H  H74  1  0.41494480  0.21062756  0.44447634  1  0.115635  0  0.114429  0.085169  0  1.002988  0
H  H75  1  0.08505794  0.21062880  0.94447557  1  0.115585  0  0.114434  0.085181  0  1.00298  0
H  H76  1  0.70138121  0.89468542  0.55315727  1  0.066597  0  0.106884  0.062491  0  1.04687  0
H  H77  1  0.79861841  0.89468510  0.05315920  1  0.06636  0  0.106861  0.062476  0  1.046799  0
H  H78  1  0.29862100  0.10531496  0.44684285  1  0.066605  0  0.10688  0.062505  0  1.04686  0
H  H79  1  0.20138192  0.10531527  0.94684170  1  0.066538  0  0.106873  0.062475  0  1.046854  0
C  C80  1  0.75724954  0.25863898  0.11638314  1  0.016247  0  -0.102949  -0.233491  0  3.928664  0
C  C81  1  0.74275146  0.25863681  0.61637885  1  0.016229  0  -0.102969  -0.233537  0  3.928541  0
C  C82  1  0.24274986  0.74135975  0.88361687  1  0.016254  0  -0.102923  -0.23339  0  3.928745  0
C  C83  1  0.25724887  0.74135948  0.38361707  1  0.016234  0  -0.102983  -0.233508  0  3.928632  0
C  C84  1  0.83578264  0.82904985  0.71071974  1  0.577048  0  0.017146  0.014964  0  3.892542  0
C  C85  1  0.66421890  0.82904884  0.21072109  1  0.576966  0  0.017121  0.01488  0  3.892615  0
C  C86  1  0.16421862  0.17095053  0.28928038  1  0.576573  0  0.017037  0.014767  0  3.892685  0
C  C87  1  0.33578237  0.17094988  0.78928050  1  0.577055  0  0.017174  0.015003  0  3.892506  0
C  C88  1  0.84062857  0.17324506  0.06533741  1  1.538109  0  0.179034  0.588235  0  4.266816  0
C  C89  1  0.65936853  0.17324623  0.56533772  1  1.538142  0  0.179087  0.588371  0  4.266703  0
C  C90  1  0.15936989  0.82675201  0.93466330  1  1.538082  0  0.179068  0.588182  0  4.266601  0
C  C91  1  0.34062993  0.82675251  0.43466150  1  1.538183  0  0.179036  0.588209  0  4.266652  0
C  C92  1  0.78150086  0.30441028  0.21345822  1  -0.074115  0  -0.082939  -0.089969  0  4.008021  0
C  C93  1  0.71849404  0.30441386  0.71345892  1  -0.074082  0  -0.082873  -0.089936  0  4.00772  0
C  C94  1  0.21849853  0.69558927  0.78654263  1  -0.074174  0  -0.082944  -0.089994  0  4.008107  0
C  C95  1  0.28150254  0.69558817  0.28654129  1  -0.074111  0  -0.082912  -0.089947  0  4.007844  0
C  C96  1  0.70476761  0.81890084  0.86400887  1  0.554872  0  0.019436  0.01278  0  3.887185  0
C  C97  1  0.79523388  0.81890054  0.36401001  1  0.554408  0  0.019451  0.01291  0  3.887055  0
C  C98  1  0.29523272  0.18110036  0.13599129  1  0.554886  0  0.019394  0.01274  0  3.887148  0
C  C99  1  0.20476739  0.18109820  0.63599001  1  0.554117  0  0.019461  0.012873  0  3.887108  0
C  C100  1  0.70895009  0.38904869  0.27199133  1  -0.019034  0  -0.017109  0.086949  0  4.053003  0
C  C101  1  0.79104689  0.38905222  0.77198995  1  -0.018989  0  -0.017195  0.086857  0  4.052959  0
C  C102  1  0.29105118  0.61095169  0.72800799  1  -0.018947  0  -0.017145  0.086911  0  4.053059  0
C  C103  1  0.20894970  0.61094901  0.22800706  1  -0.018984  0  -0.017112  0.086918  0  4.052896  0
C  C104  1  0.74386945  0.42085281  0.37649214  1  -0.079726  0  -0.088157  -0.131275  0  3.957336  0
C  C105  1  0.75612619  0.42085552  0.87649372  1  -0.079218  0  -0.08812  -0.131297  0  3.957096  0
C  C106  1  0.25613088  0.57914756  0.62350797  1  -0.079717  0  -0.088109  -0.131217  0  3.957249  0
C  C107  1  0.24386852  0.57914650  0.12350649  1  -0.079805  0  -0.088116  -0.131179  0  3.957231  0
C  C108  1  0.67884175  0.68972202  0.71779409  1  0.55806  0  0.015243  0.014263  0  3.906167  0
C  C109  1  0.82116099  0.68972086  0.21779606  1  0.558047  0  0.015304  0.014287  0  3.906123  0
C  C110  1  0.32116045  0.31027919  0.28220528  1  0.558063  0  0.015347  0.014309  0  3.906163  0
C  C111  1  0.17884215  0.31027869  0.78220479  1  0.558134  0  0.015304  0.014252  0  3.906186  0
C  C112  1  0.60635529  0.44287493  0.22756228  1  -0.120081  0  -0.085109  -0.119176  0  3.950312  0
C  C113  1  0.89364135  0.44287752  0.72756283  1  -0.120698  0  -0.085057  -0.119041  0  3.950165  0
C  C114  1  0.39364504  0.55712544  0.77243783  1  -0.120116  0  -0.08513  -0.119218  0  3.950315  0
C  C115  1  0.10635523  0.55712286  0.27243650  1  -0.120155  0  -0.085145  -0.119156  0  3.950211  0
C  C116  1  0.57723954  0.55549284  0.38975827  1  -0.100465  0  -0.091604  -0.08905  0  3.995328  0
C  C117  1  0.92275689  0.55549705  0.88975982  1  -0.100426  0  -0.091661  -0.089152  0  3.995521  0
C  C118  1  0.42275985  0.44450423  0.61024243  1  -0.100408  0  -0.091636  -0.089144  0  3.99544  0
C  C119  1  0.07723875  0.44450416  0.11024034  1  -0.100479  0  -0.091615  -0.08909  0  3.995394  0
C  C120  1  0.67908379  0.50313132  0.43489478  1  -0.024756  0  -0.091715  -0.079813  0  4.015683  0
C  C121  1  0.82091299  0.50313727  0.93489682  1  -0.024733  0  -0.091727  -0.079683  0  4.015604  0
C  C122  1  0.32091654  0.49686741  0.56510523  1  -0.024727  0  -0.091743  -0.079836  0  4.015725  0
C  C123  1  0.17908547  0.49686559  0.06510265  1  -0.024683  0  -0.091728  -0.079798  0  4.015717  0
C  C124  1  0.54159211  0.52454897  0.28608779  1  -0.027578  0  -0.093901  -0.088101  0  4.02217  0
C  C125  1  0.95840566  0.52455395  0.78609110  1  -0.026714  0  -0.093925  -0.088216  0  4.022286  0
C  C126  1  0.45840822  0.47545058  0.71391306  1  -0.02758  0  -0.093876  -0.088044  0  4.022062  0
C  C127  1  0.04159186  0.47544891  0.21390837  1  -0.027352  0  -0.093924  -0.088136  0  4.022131  0
C  C128  1  0.52294457  0.82687372  0.75683749  1  0.555064  0  0.016007  0.006304  0  3.915772  0
C  C129  1  0.97705724  0.82687324  0.25683934  1  0.555098  0  0.016049  0.006406  0  3.915551  0
C  C130  1  0.47705576  0.17312667  0.24316104  1  0.55509  0  0.016017  0.006418  0  3.915608  0
C  C131  1  0.02294403  0.17312631  0.74316151  1  0.555101  0  0.016012  0.006358  0  3.915716  0
C  C132  1  0.67969618  0.96863349  0.74946418  1  0.518559  0  0.018562  0.012092  0  3.859173  0
C  C133  1  0.82030348  0.96863233  0.24946536  1  0.518496  0  0.018532  0.01209  0  3.859311  0
C  C134  1  0.32030321  0.03136771  0.25053598  1  0.518801  0  0.018518  0.012048  0  3.85922  0
C  C135  1  0.17969685  0.03136639  0.75053623  1  0.518569  0  0.018524  0.012031  0  3.859162  0
C  C136  1  0.65401301  0.83677623  0.60345147  1  0.501467  0  0.008335  -0.009846  0  3.923284  0
C  C137  1  0.84598697  0.83677587  0.10345359  1  0.501812  0  0.008401  -0.009747  0  3.923201  0
C  C138  1  0.34598919  0.16322415  0.39654786  1  0.501475  0  0.008366  -0.009842  0  3.923348  0
C  C139  1  0.15401335  0.16322450  0.89654731  1  0.501626  0  0.008379  -0.009799  0  3.923252  0
N  N140  1  0.77305665  0.89640922  0.79709242  1  -0.959711  0  -0.35292  -0.178743  0  3.431745  0
N  N141  1  0.72694528  0.89640814  0.29709481  1  -0.95961  0  -0.352875  -0.178746  0  3.43185  0
N  N142  1  0.22694368  0.10359198  0.20290774  1  -0.95971  0  -0.352871  -0.178668  0  3.431779  0
N  N143  1  0.27305693  0.10358975  0.70290752  1  -0.959388  0  -0.352883  -0.17873  0  3.43179  0
N  N144  1  0.74578522  0.76266470  0.64758788  1  -1.011927  0  -0.356743  -0.220864  0  3.400182  0
N  N145  1  0.75421608  0.76266442  0.14758964  1  -1.01189  0  -0.356806  -0.220886  0  3.400177  0
N  N146  1  0.25421792  0.23733651  0.35241228  1  -1.011408  0  -0.356744  -0.220749  0  3.400209  0
N  N147  1  0.24578425  0.23733513  0.85241121  1  -1.011919  0  -0.356786  -0.220912  0  3.400303  0
N  N148  1  0.58545685  0.90401787  0.68667248  1  -0.96381  0  -0.35593  -0.179439  0  3.459317  0
N  N149  1  0.91454350  0.90401662  0.18667403  1  -0.963814  0  -0.355967  -0.179526  0  3.459347  0
N  N150  1  0.41454441  0.09598334  0.31332690  1  -0.963837  0  -0.355952  -0.17954  0  3.459294  0
N  N151  1  0.08545590  0.09598293  0.81332603  1  -0.963805  0  -0.355945  -0.179495  0  3.459346  0
N  N152  1  0.61243232  0.75252345  0.80367659  1  -1.009853  0  -0.351864  -0.215496  0  3.402274  0
N  N153  1  0.88756987  0.75252304  0.30367887  1  -1.009473  0  -0.351876  -0.215515  0  3.402195  0
N  N154  1  0.38756895  0.24747694  0.19632274  1  -1.009902  0  -0.351832  -0.215491  0  3.402325  0
N  N155  1  0.11243046  0.24747651  0.69632119  1  -1.00943  0  -0.351907  -0.215527  0  3.402181  0
O  O156  1  0.78985960  0.10704703  0.99589981  1  -1.141767  0  -0.355087  -0.556827  0  2.222983  0
O  O157  1  0.71014190  0.10705010  0.49590081  1  -1.141808  0  -0.355109  -0.556876  0  2.222814  0
O  O158  1  0.21013979  0.89295087  0.00410094  1  -1.141801  0  -0.35513  -0.556826  0  2.22278  0
O  O159  1  0.28985936  0.89295195  0.50409625  1  -1.141768  0  -0.355061  -0.556797  0  2.222806  0
O  O160  1  0.95470838  0.17168193  0.09521492  1  -1.169135  0  -0.338619  -0.557594  0  2.296106  0
O  O161  1  0.54529264  0.17168074  0.59521385  1  -1.169159  0  -0.338658  -0.557689  0  2.296217  0
O  O162  1  0.04529008  0.82831597  0.90478583  1  -1.16906  0  -0.338611  -0.55758  0  2.296008  0
O  O163  1  0.45470957  0.82831552  0.40478602  1  -1.169176  0  -0.338625  -0.55759  0  2.296068  0
