# generated using pymatgen
data_ZnH12C20(N4O5)2
_symmetry_space_group_name_H-M   'P 1'
_cell_length_a   16.18707866
_cell_length_b   17.19035715
_cell_length_c   16.99630891
_cell_angle_alpha   91.52615209
_cell_angle_beta   93.70096237
_cell_angle_gamma   92.20130518
_symmetry_Int_Tables_number   1
_chemical_formula_structural   ZnH12C20(N4O5)2
_chemical_formula_sum   'Zn2 H24 C40 N16 O20'
_cell_volume   4714.06501052
_cell_formula_units_Z   2
loop_
 _symmetry_equiv_pos_site_id
 _symmetry_equiv_pos_as_xyz
  1  'x, y, z'
loop_
 _atom_site_type_symbol
 _atom_site_label
 _atom_site_symmetry_multiplicity
 _atom_site_fract_x
 _atom_site_fract_y
 _atom_site_fract_z
 _atom_site_occupancy
 _atom_site_pbe_bader_charge
 _atom_site_pbe_bader_spin_density
 _atom_site_pbe_cm5_charge
 _atom_site_pbe_ddec_charge
 _atom_site_pbe_ddec_spin_density
 _atom_site_pbe_ddec_sum_bond_order
 _atom_site_pbe_magmom
Zn  Zn0  1  0.40564685  0.50469196  0.49305636  1  1.316809  0  0.694714  0.883398  0  2.294512  0
Zn  Zn1  1  0.59435656  0.49528743  0.50694127  1  1.316925  0  0.694769  0.88341  0  2.294399  0
H  H2  1  0.37202379  0.52576810  0.74704988  1  0.086213  0  0.112314  0.119569  0  0.984487  0
H  H3  1  0.62790375  0.47418422  0.25297941  1  0.086948  0  0.112369  0.119735  0  0.98459  0
H  H4  1  0.52938253  0.24612503  0.39126401  1  0.094817  0  0.110781  0.110926  0  0.988974  0
H  H5  1  0.47072586  0.75386436  0.60881615  1  0.095456  0  0.110848  0.110802  0  0.988997  0
H  H6  1  0.38717628  0.52860821  0.89549144  1  0.117429  0  0.111265  0.113364  0  1.007091  0
H  H7  1  0.61279118  0.47132420  0.10453371  1  0.118548  0  0.111161  0.113439  0  1.007117  0
H  H8  1  0.53615413  0.10123542  0.40000547  1  0.144478  0  0.112022  0.112264  0  1.005202  0
H  H9  1  0.46394752  0.89874572  0.60004764  1  0.144963  0  0.112097  0.112405  0  1.005128  0
H  H10  1  0.37700950  0.57750819  0.11544910  1  0.138361  0  0.122948  0.137688  0  0.974619  0
H  H11  1  0.62299152  0.42250373  0.88452679  1  0.138632  0  0.122918  0.137623  0  0.974377  0
H  H12  1  0.60846276  0.89049991  0.39631887  1  0.135793  0  0.124774  0.140016  0  0.977737  0
H  H13  1  0.39149146  0.10944920  0.60365181  1  0.138321  0  0.124702  0.139933  0  0.977668  0
H  H14  1  0.10195384  0.41332813  0.43113441  1  0.170089  0  0.123213  0.147809  0  1.014395  0
H  H15  1  0.89804399  0.58673417  0.56876892  1  0.170699  0  0.123244  0.147878  0  1.013998  0
H  H16  1  0.86730771  0.37061668  0.43353185  1  0.094041  0  0.121395  0.134643  0  1.004475  0
H  H17  1  0.13272404  0.62949930  0.56627339  1  0.096018  0  0.121482  0.134906  0  1.004712  0
H  H18  1  0.64176301  0.35786049  0.46196041  1  0.537152  0  0.305669  0.274903  0  1.025405  0
H  H19  1  0.67577354  0.25621766  0.38441461  1  0.048725  0  0.114912  0.123417  0  0.986389  0
H  H20  1  0.77675770  0.26031715  0.43209663  1  0.065043  0  0.108042  0.112546  0  0.974211  0
H  H21  1  0.75505596  0.31585371  0.34611377  1  0.087547  0  0.106738  0.110075  0  0.976415  0
H  H22  1  0.35828417  0.64215289  0.53796981  1  0.53724  0  0.305641  0.274739  0  1.025874  0
H  H23  1  0.32425465  0.74380211  0.61550236  1  0.049042  0  0.114777  0.123185  0  0.986456  0
H  H24  1  0.24497189  0.68414792  0.65378158  1  0.089467  0  0.106826  0.110257  0  0.976292  0
H  H25  1  0.22327076  0.73970901  0.56781697  1  0.065984  0  0.108143  0.112767  0  0.973953  0
C  C26  1  0.46904409  0.34739246  0.48984084  1  1.618336  0  0.225339  0.612686  0  4.169302  0
C  C27  1  0.53100198  0.65258000  0.51019546  1  1.617963  0  0.225703  0.613883  0  4.16762  0
C  C28  1  0.48090391  0.48350366  0.64531211  1  1.608518  0  0.222114  0.609737  0  4.156953  0
C  C29  1  0.51905027  0.51649507  0.35468736  1  1.608706  0  0.222272  0.609539  0  4.15731  0
C  C30  1  0.51172066  0.52594599  0.26720211  1  0.014845  0  0.006129  -0.046167  0  3.883712  0
C  C31  1  0.48822687  0.47404398  0.73278855  1  0.014839  0  0.005957  -0.046513  0  3.883283  0
C  C32  1  0.53729815  0.73972138  0.50462457  1  0.060217  0  0.010593  -0.037664  0  3.884125  0
C  C33  1  0.46271855  0.26024588  0.49540470  1  0.058619  0  0.010596  -0.037022  0  3.884043  0
C  C34  1  0.57340855  0.49649170  0.22147587  1  0.021203  0  -0.070314  -0.062967  0  3.954863  0
C  C35  1  0.42653740  0.50346105  0.77852856  1  0.021307  0  -0.070219  -0.062989  0  3.954425  0
C  C36  1  0.49861998  0.78442160  0.56110602  1  -0.055932  0  -0.07483  -0.079786  0  3.972706  0
C  C37  1  0.50145182  0.21555554  0.43895182  1  -0.055192  0  -0.074919  -0.0807  0  3.972219  0
C  C38  1  0.56510254  0.49455999  0.13981022  1  -0.019517  0  -0.07591  -0.137142  0  3.940549  0
C  C39  1  0.43485548  0.50538519  0.86019941  1  -0.018784  0  -0.076064  -0.136908  0  3.940158  0
C  C40  1  0.49523926  0.86460144  0.55694993  1  -0.035559  0  -0.071496  -0.124801  0  3.935685  0
C  C41  1  0.50483022  0.13536807  0.44308937  1  -0.034726  0  -0.071206  -0.12406  0  3.934737  0
C  C42  1  0.49291649  0.52222843  0.10141945  1  0.318902  0  0.09569  0.188868  0  4.042301  0
C  C43  1  0.50706010  0.47775975  0.89857808  1  0.318936  0  0.095717  0.18884  0  4.042231  0
C  C44  1  0.53192471  0.90286813  0.49501897  1  0.349848  0  0.09322  0.181961  0  4.04305  0
C  C45  1  0.46809475  0.09709496  0.50498858  1  0.349272  0  0.093355  0.182285  0  4.042762  0
C  C46  1  0.43210981  0.55490789  0.14560254  1  0.02715  0  -0.067108  -0.188567  0  3.908438  0
C  C47  1  0.56786835  0.44508956  0.85438470  1  0.027307  0  -0.067015  -0.188436  0  3.907878  0
C  C48  1  0.57713102  0.86057424  0.44231250  1  0.0406  0  -0.061916  -0.174966  0  3.898678  0
C  C49  1  0.42286538  0.13938767  0.55767904  1  0.03617  0  -0.061869  -0.175093  0  3.899086  0
C  C50  1  0.44237988  0.55688316  0.22733249  1  0.211516  0  0.09311  0.085399  0  3.888681  0
C  C51  1  0.55758929  0.44312016  0.77265850  1  0.211579  0  0.09313  0.085367  0  3.888525  0
C  C52  1  0.57856732  0.77999634  0.44717209  1  0.179478  0  0.089503  0.07031  0  3.89475  0
C  C53  1  0.42143132  0.21995976  0.55282356  1  0.180719  0  0.089549  0.070314  0  3.895826  0
C  C54  1  0.77595843  0.53308112  0.55097997  1  0.673924  0  0.211771  0.257489  0  3.947869  0
C  C55  1  0.22404925  0.46695149  0.44893028  1  0.676456  0  0.211204  0.256964  0  3.947717  0
C  C56  1  0.85971909  0.53858883  0.54239136  1  0.077367  0  -0.088239  -0.275162  0  3.931969  0
C  C57  1  0.14028097  0.46147162  0.45748792  1  0.073718  0  -0.088038  -0.275085  0  3.932034  0
C  C58  1  0.89235930  0.47780554  0.49823346  1  0.370935  0  0.106895  0.234465  0  4.056975  0
C  C59  1  0.10765339  0.52229432  0.50160566  1  0.372632  0  0.107331  0.23538  0  4.056141  0
C  C60  1  0.84078244  0.41733341  0.46675887  1  -0.012485  0  -0.0689  -0.263547  0  3.829028  0
C  C61  1  0.15923664  0.58275882  0.53306865  1  -0.015378  0  -0.069373  -0.264898  0  3.829924  0
C  C62  1  0.75450829  0.41686317  0.47876380  1  1.05898  0  0.247339  0.409653  0  4.015375  0
C  C63  1  0.24552167  0.58318732  0.52111867  1  1.059433  0  0.247076  0.409607  0  4.014461  0
C  C64  1  0.72984815  0.29484568  0.40071261  1  0.268809  0  -0.122215  -0.207837  0  3.960647  0
C  C65  1  0.27017935  0.70517462  0.59919022  1  0.265961  0  -0.122374  -0.208162  0  3.961086  0
N  N66  1  0.47550961  0.52009224  0.01894517  1  -0.491297  0  -0.144548  -0.131772  0  3.269086  0
N  N67  1  0.52448093  0.47989008  0.98105005  1  -0.436976  0  -0.144361  -0.131379  0  3.268842  0
N  N68  1  0.52687773  0.98312477  0.48087478  1  -0.437915  0  -0.145474  -0.13348  0  3.263517  0
N  N69  1  0.47314958  0.01683308  0.51913839  1  -0.482289  0  -0.145652  -0.133614  0  3.263749  0
N  N70  1  0.72235566  0.47673016  0.52042102  1  -1.207225  0  -0.317897  -0.368201  0  3.387184  0
N  N71  1  0.27767315  0.52328961  0.47949539  1  -1.206916  0  -0.317709  -0.368012  0  3.385755  0
N  N72  1  0.97719942  0.47296517  0.48333075  1  -0.48263  0  -0.126441  -0.104738  0  3.208505  0
N  N73  1  0.02280475  0.52715273  0.51650066  1  -0.436119  0  -0.126638  -0.104497  0  3.208037  0
N  N74  1  0.37662227  0.59584059  0.26868952  1  0.429232  0  0.061512  0.530351  0  4.213416  0
N  N75  1  0.62332716  0.40416563  0.73128985  1  0.433207  0  0.061375  0.530456  0  4.21373  0
N  N76  1  0.62263195  0.73905670  0.38583809  1  0.423239  0  0.061868  0.521162  0  4.206675  0
N  N77  1  0.37732688  0.26089709  0.61414236  1  0.422139  0  0.062087  0.521873  0  4.206425  0
N  N78  1  0.25710174  0.40575586  0.39653893  1  0.431701  0  0.06219  0.48901  0  4.200757  0
N  N79  1  0.74289203  0.59423448  0.60342430  1  0.433142  0  0.062406  0.489402  0  4.20003  0
N  N80  1  0.70344430  0.35826740  0.44970144  1  -1.252198  0  -0.417287  -0.281389  0  3.560412  0
N  N81  1  0.29659388  0.64177205  0.55018888  1  -1.253515  0  -0.416821  -0.280638  0  3.560957  0
O  O82  1  0.40383638  0.38497611  0.49379795  1  -1.155452  0  -0.304672  -0.529608  0  2.358082  0
O  O83  1  0.59620916  0.61500718  0.50617974  1  -1.155892  0  -0.304925  -0.530026  0  2.35708  0
O  O84  1  0.54733227  0.47589739  0.61045575  1  -1.159061  0  -0.309516  -0.552236  0  2.458711  0
O  O85  1  0.45263684  0.52415667  0.38955347  1  -1.159434  0  -0.309581  -0.552389  0  2.458633  0
O  O86  1  0.54099178  0.37590469  0.47908634  1  -1.180102  0  -0.302381  -0.555934  0  2.351388  0
O  O87  1  0.45907518  0.62405686  0.52099971  1  -1.180183  0  -0.302547  -0.556772  0  2.35161  0
O  O88  1  0.41099179  0.50090168  0.61380537  1  -1.135835  0  -0.310796  -0.534436  0  2.310231  0
O  O89  1  0.58894363  0.49903826  0.38619053  1  -1.136021  0  -0.310924  -0.534377  0  2.310616  0
O  O90  1  0.30558054  0.56662861  0.25821686  1  -0.445821  0  -0.139368  -0.333417  0  1.881436  0
O  O91  1  0.39663213  0.65691636  0.30621792  1  -0.44015  0  -0.13506  -0.325053  0  1.893349  0
O  O92  1  0.69437877  0.43334737  0.74177708  1  -0.447068  0  -0.139216  -0.333341  0  1.882102  0
O  O93  1  0.60330184  0.34310786  0.69373630  1  -0.442951  0  -0.135078  -0.32517  0  1.892746  0
O  O94  1  0.69007970  0.76899193  0.36946036  1  -0.457231  0  -0.143422  -0.338124  0  1.843733  0
O  O95  1  0.58859771  0.67978610  0.35401860  1  -0.439341  0  -0.114102  -0.310972  0  1.983958  0
O  O96  1  0.30989142  0.23093270  0.63051656  1  -0.456525  0  -0.143336  -0.338455  0  1.844278  0
O  O97  1  0.41132140  0.32019453  0.64594969  1  -0.438436  0  -0.114471  -0.311496  0  1.983516  0
O  O98  1  0.31482156  0.42569354  0.35673055  1  -0.413559  0  -0.11023  -0.293293  0  2.008009  0
O  O99  1  0.22150839  0.34071295  0.39520879  1  -0.429876  0  -0.133923  -0.320822  0  1.873827  0
O  O100  1  0.68520468  0.57424554  0.64324976  1  -0.413727  0  -0.11054  -0.293699  0  2.007654  0
O  O101  1  0.77843137  0.65930081  0.60475552  1  -0.430324  0  -0.133874  -0.320882  0  1.873703  0
