# generated using pymatgen
data_Zn2H42C55Br2(NO4)2
_symmetry_space_group_name_H-M   'P 1'
_cell_length_a   16.52181153
_cell_length_b   17.93855815
_cell_length_c   33.27293641
_cell_angle_alpha   90.21845600
_cell_angle_beta   89.86305676
_cell_angle_gamma   89.97630426
_symmetry_Int_Tables_number   1
_chemical_formula_structural   Zn2H42C55Br2(NO4)2
_chemical_formula_sum   'Zn4 H84 C110 Br4 N4 O16'
_cell_volume   9861.24821850
_cell_formula_units_Z   2
loop_
 _symmetry_equiv_pos_site_id
 _symmetry_equiv_pos_as_xyz
  1  'x, y, z'
loop_
 _atom_site_type_symbol
 _atom_site_label
 _atom_site_symmetry_multiplicity
 _atom_site_fract_x
 _atom_site_fract_y
 _atom_site_fract_z
 _atom_site_occupancy
 _atom_site_pbe_bader_charge
 _atom_site_pbe_bader_spin_density
 _atom_site_pbe_cm5_charge
 _atom_site_pbe_ddec_charge
 _atom_site_pbe_ddec_spin_density
 _atom_site_pbe_ddec_sum_bond_order
 _atom_site_pbe_magmom
Zn  Zn0  1  0.58448431  0.49992611  0.50048591  1  1.253482  0  0.66409  0.814444  0  2.441035  0
Zn  Zn1  1  0.41551506  0.49994653  0.50065385  1  1.273244  0  0.66384  0.814491  0  2.440523  0
Zn  Zn2  1  0.41553411  0.50220024  0.96164495  1  1.252433  0  0.664023  0.814607  0  2.441483  0
Zn  Zn3  1  0.58449673  0.50213744  0.96149917  1  1.276186  0  0.664113  0.814526  0  2.442362  0
H  H4  1  0.28697383  0.58097954  0.54474740  1  0.126114  0  0.128673  0.111514  0  0.969382  0
H  H5  1  0.28797352  0.41882879  0.45639432  1  0.130185  0  0.128652  0.110736  0  0.971445  0
H  H6  1  0.71241018  0.58106400  0.54458184  1  0.123763  0  0.128856  0.11202  0  0.969454  0
H  H7  1  0.71257167  0.41876261  0.45630937  1  0.128178  0  0.128582  0.110698  0  0.971384  0
H  H8  1  0.62929145  0.73748837  0.50060901  1  0.084422  0  0.100459  0.110672  0  1.008133  0
H  H9  1  0.37049759  0.73761903  0.50042895  1  0.086651  0  0.100479  0.110815  0  1.007521  0
H  H10  1  0.62949454  0.26222475  0.49999577  1  0.089191  0  0.100537  0.110732  0  1.007984  0
H  H11  1  0.37069942  0.26242841  0.49999078  1  0.087943  0  0.100656  0.110643  0  1.008131  0
H  H12  1  0.37075626  0.50040633  0.62882658  1  0.118199  0  0.093626  0.10408  0  1.057538  0
H  H13  1  0.62904232  0.50027571  0.62841697  1  0.114379  0  0.093691  0.104097  0  1.057234  0
H  H14  1  0.62939206  0.50110458  0.83338037  1  0.115792  0  0.093635  0.104192  0  1.057097  0
H  H15  1  0.37110543  0.50116663  0.83379555  1  0.114364  0  0.093817  0.104511  0  1.056491  0
H  H16  1  0.37038681  0.50246767  0.08981942  1  0.116213  0  0.100544  0.11163  0  1.007774  0
H  H17  1  0.62916790  0.50245919  0.08946538  1  0.088967  0  0.100509  0.111593  0  1.00804  0
H  H18  1  0.37083929  0.50015215  0.37265018  1  0.090173  0  0.100363  0.111383  0  1.007826  0
H  H19  1  0.62961357  0.50039733  0.37224258  1  0.115317  0  0.100422  0.11142  0  1.007549  0
H  H20  1  0.71275545  0.58308133  0.91745840  1  0.092585  0  0.128823  0.111683  0  0.970688  0
H  H21  1  0.71229255  0.42184246  0.00561988  1  0.122002  0  0.128494  0.110547  0  0.971576  0
H  H22  1  0.28766886  0.58313517  0.91760010  1  0.093422  0  0.128898  0.111748  0  0.970694  0
H  H23  1  0.28734171  0.42161427  0.00561686  1  0.121433  0  0.128931  0.111076  0  0.971089  0
H  H24  1  0.37064194  0.73986504  0.96092368  1  0.081204  0  0.100386  0.111167  0  1.007251  0
H  H25  1  0.62943161  0.73966749  0.96108858  1  0.080004  0  0.100432  0.110007  0  1.00794  0
H  H26  1  0.37069004  0.26464185  0.96164693  1  0.074085  0  0.100551  0.110694  0  1.008996  0
H  H27  1  0.62946513  0.26452740  0.96157309  1  0.072896  0  0.100598  0.110761  0  1.008783  0
H  H28  1  0.14338922  0.34110552  0.45171195  1  0.050873  0  0.103272  0.142666  0  0.975975  0
H  H29  1  0.06015091  0.40332815  0.44738562  1  0.014196  0  0.089724  0.123825  0  1.053329  0
H  H30  1  0.14426628  0.41088898  0.41425153  1  0.025031  0  0.102973  0.14211  0  0.97672  0
H  H31  1  0.14217241  0.65899024  0.54870766  1  0.056907  0  0.103344  0.143001  0  0.975376  0
H  H32  1  0.05923248  0.59653417  0.55334597  1  0.000522  0  0.089894  0.124515  0  1.051849  0
H  H33  1  0.14339659  0.58958999  0.58636026  1  0.055041  0  0.100866  0.1421  0  0.98251  0
H  H34  1  0.85720338  0.41099693  0.41424083  1  0.067204  0  0.103064  0.142392  0  0.97652  0
H  H35  1  0.94047552  0.40273027  0.44765100  1  0.067052  0  0.089858  0.123789  0  1.053403  0
H  H36  1  0.85674106  0.34100115  0.45159211  1  0.050106  0  0.103481  0.14302  0  0.97606  0
H  H37  1  0.85602769  0.58927702  0.58631476  1  0.059159  0  0.100615  0.141958  0  0.983068  0
H  H38  1  0.94007701  0.59695995  0.55308755  1  0.082017  0  0.089864  0.124164  0  1.052657  0
H  H39  1  0.85664634  0.65897907  0.54882803  1  0.053539  0  0.103611  0.143466  0  0.974791  0
H  H40  1  0.30905476  0.87158152  0.52648755  1  0.04637  0  0.092541  0.12751  0  0.990657  0
H  H41  1  0.35237352  0.94682712  0.49942609  1  0.06473  0  0.086459  0.121301  0  1.06192  0
H  H42  1  0.30946101  0.87003041  0.47324474  1  0.027887  0  0.093422  0.129451  0  0.988716  0
H  H43  1  0.69047944  0.87034391  0.47332963  1  0.028574  0  0.093248  0.12893  0  0.989156  0
H  H44  1  0.64754304  0.94667367  0.50001722  1  0.009632  0  0.086331  0.120783  0  1.061577  0
H  H45  1  0.69068456  0.87080358  0.52657212  1  0.025191  0  0.092602  0.127429  0  0.991152  0
H  H46  1  0.30956928  0.12868025  0.47309626  1  0.040663  0  0.092044  0.12676  0  0.991622  0
H  H47  1  0.35237944  0.05325600  0.50013908  1  0.076179  0  0.08627  0.120808  0  1.06137  0
H  H48  1  0.30917887  0.13004684  0.52633897  1  0.03056  0  0.093988  0.129969  0  0.988213  0
H  H49  1  0.69032024  0.12924316  0.52660468  1  0.029387  0  0.093886  0.129904  0  0.987709  0
H  H50  1  0.64764042  0.05302635  0.49984934  1  0.061432  0  0.086302  0.120741  0  1.062144  0
H  H51  1  0.69111132  0.12889622  0.47335794  1  0.040143  0  0.092034  0.126596  0  0.991595  0
H  H52  1  0.69011181  0.55190682  0.16139838  1  0.032492  0  0.093824  0.129797  0  0.988065  0
H  H53  1  0.64743174  0.50187840  0.20223243  1  0.04996  0  0.086087  0.120473  0  1.063207  0
H  H54  1  0.69083948  0.45314020  0.16093980  1  0.019978  0  0.09181  0.126076  0  0.991563  0
H  H55  1  0.30926369  0.45265031  0.16176555  1  0.022316  0  0.091714  0.12583  0  0.991466  0
H  H56  1  0.35236603  0.50247821  0.20264774  1  0.035371  0  0.085995  0.120107  0  1.0625  0
H  H57  1  0.30917094  0.55142882  0.16164877  1  0.027824  0  0.093659  0.129513  0  0.988509  0
H  H58  1  0.69081849  0.45153661  0.29990193  1  0.039949  0  0.091867  0.126326  0  0.991801  0
H  H59  1  0.64754993  0.50184789  0.25942375  1  0.037243  0  0.086156  0.120883  0  1.062546  0
H  H60  1  0.69068335  0.55031103  0.30077970  1  0.026622  0  0.093464  0.129286  0  0.988  0
H  H61  1  0.30962909  0.55018420  0.30112502  1  0.028419  0  0.093655  0.129495  0  0.987415  0
H  H62  1  0.35249670  0.50082659  0.25988913  1  0.055492  0  0.085955  0.120142  0  1.062743  0
H  H63  1  0.30933266  0.45140740  0.30079806  1  0.038667  0  0.091959  0.126511  0  0.991326  0
H  H64  1  0.85680349  0.34449911  0.01018271  1  0.05071  0  0.10351  0.143036  0  0.976149  0
H  H65  1  0.94007026  0.40666202  0.01461773  1  0.08257  0  0.089926  0.124017  0  1.052966  0
H  H66  1  0.85598545  0.41455294  0.04778677  1  0.033409  0  0.102908  0.14201  0  0.977234  0
H  H67  1  0.85760350  0.66129176  0.91349451  1  0.067564  0  0.103553  0.143645  0  0.974601  0
H  H68  1  0.94051415  0.59871174  0.90875786  1  0.000987  0  0.089997  0.124636  0  1.052406  0
H  H69  1  0.85624914  0.59142387  0.87580355  1  0.065301  0  0.100663  0.142277  0  0.983095  0
H  H70  1  0.14276809  0.41447228  0.04774797  1  0.068417  0  0.103002  0.142378  0  0.976976  0
H  H71  1  0.05950735  0.40598440  0.01431358  1  0.06673  0  0.089837  0.124125  0  1.053205  0
H  H72  1  0.14331265  0.34426120  0.01022265  1  0.048355  0  0.103274  0.14279  0  0.975977  0
H  H73  1  0.14406829  0.59086057  0.87581270  1  0.060345  0  0.100623  0.14175  0  0.982987  0
H  H74  1  0.05995184  0.59901070  0.90900516  1  0.011866  0  0.089975  0.124284  0  1.05184  0
H  H75  1  0.14327129  0.66114967  0.91328108  1  0.054875  0  0.103486  0.14319  0  0.974838  0
H  H76  1  0.69061371  0.87323032  0.93451427  1  0.027216  0  0.092734  0.127785  0  0.989603  0
H  H77  1  0.64765167  0.94889604  0.96170150  1  0.026887  0  0.086258  0.121075  0  1.061884  0
H  H78  1  0.69085956  0.87239891  0.98775460  1  0.019754  0  0.09336  0.129002  0  0.988777  0
H  H79  1  0.30920371  0.87321085  0.98767704  1  0.026573  0  0.093537  0.129197  0  0.988544  0
H  H80  1  0.35260318  0.94909132  0.96112234  1  0.02513  0  0.086247  0.120528  0  1.062425  0
H  H81  1  0.30968482  0.87297537  0.93442730  1  0.030948  0  0.092702  0.127544  0  0.989852  0
H  H82  1  0.69051937  0.13096216  0.98827517  1  0.033823  0  0.091874  0.126273  0  0.991752  0
H  H83  1  0.64765944  0.05533241  0.96112366  1  0.037605  0  0.086292  0.120743  0  1.061884  0
H  H84  1  0.69090358  0.13181984  0.93503205  1  0.036112  0  0.093869  0.129874  0  0.987838  0
H  H85  1  0.30979011  0.13152922  0.93483252  1  0.039726  0  0.094147  0.130289  0  0.987839  0
H  H86  1  0.35239123  0.05549348  0.96148329  1  0.040644  0  0.086028  0.12033  0  1.061825  0
H  H87  1  0.30900761  0.13170725  0.98807739  1  0.052543  0  0.091695  0.126071  0  0.991621  0
C  C88  1  0.49988986  0.64616895  0.50135474  1  1.588544  0  0.212568  0.591816  0  4.168337  0
C  C89  1  0.49986067  0.50066576  0.57972240  1  1.554162  0  0.214725  0.592494  0  4.165034  0
C  C90  1  0.50012160  0.35371701  0.50005673  1  1.593148  0  0.211709  0.590811  0  4.168986  0
C  C91  1  0.50024929  0.49947609  0.42168228  1  1.56498  0  0.212455  0.592058  0  4.168139  0
C  C92  1  0.49999613  0.64837672  0.96060278  1  1.538199  0  0.212669  0.592384  0  4.167136  0
C  C93  1  0.50024649  0.50184579  0.88245666  1  1.536626  0  0.214967  0.592039  0  4.167698  0
C  C94  1  0.50005409  0.35596332  0.96184075  1  1.521379  0  0.212851  0.591365  0  4.169041  0
C  C95  1  0.49978465  0.50193949  0.04042982  1  1.570578  0  0.21258  0.591464  0  4.168597  0
C  C96  1  0.25029816  0.54542906  0.52529130  1  0.512103  0  0.055123  0.023508  0  3.901738  0
C  C97  1  0.16605848  0.54819880  0.52657396  1  -0.031005  0  0.008179  0.097739  0  3.940361  0
C  C98  1  0.12291370  0.50003393  0.50028616  1  0.19273  0  0.014015  0.037939  0  4.030554  0
C  C99  1  0.16662711  0.45180308  0.47413777  1  0.026026  0  0.008153  0.097515  0  3.94026  0
C  C100  1  0.25083563  0.45440396  0.47572465  1  0.492706  0  0.053763  0.022202  0  3.90525  0
C  C101  1  0.03698340  0.50005040  0.50018221  1  -0.368572  0  -0.026508  -0.079278  0  4.096073  0
C  C102  1  0.96298014  0.50003086  0.50018924  1  -0.13114  0  -0.025977  -0.077739  0  4.095795  0
C  C103  1  0.87704866  0.50000661  0.50025321  1  0.193453  0  0.014078  0.037159  0  4.029694  0
C  C104  1  0.83355980  0.54823858  0.52649451  1  -0.019549  0  0.008673  0.098671  0  3.938914  0
C  C105  1  0.74934894  0.54548156  0.52517028  1  0.50095  0  0.05428  0.022338  0  3.90195  0
C  C106  1  0.74945793  0.45438617  0.47563525  1  0.500425  0  0.054351  0.022573  0  3.905475  0
C  C107  1  0.83368423  0.45172908  0.47411090  1  0.014576  0  0.007951  0.098248  0  3.938794  0
C  C108  1  0.49988630  0.72966359  0.50082393  1  0.048491  0  -0.01962  -0.017281  0  4.017395  0
C  C109  1  0.57286605  0.76906764  0.50059143  1  -0.006381  0  -0.09377  -0.174546  0  3.975597  0
C  C110  1  0.57450631  0.84670408  0.50021704  1  -0.06156  0  -0.00387  0.133321  0  3.943865  0
C  C111  1  0.49992222  0.88659787  0.50003710  1  0.080186  0  -0.002847  0.014411  0  4.028431  0
C  C112  1  0.42532668  0.84678336  0.50009843  1  0.082816  0  -0.003947  0.132861  0  3.944705  0
C  C113  1  0.42693546  0.76914565  0.50048491  1  -0.156044  0  -0.093661  -0.174251  0  3.975701  0
C  C114  1  0.49993581  0.96577267  0.49981574  1  -0.322968  0  -0.04166  -0.09758  0  4.132768  0
C  C115  1  0.49998612  0.03408408  0.49971918  1  -0.0856  0  -0.041404  -0.096947  0  4.131064  0
C  C116  1  0.50002815  0.11326777  0.49967572  1  0.080052  0  -0.00312  0.013323  0  4.027294  0
C  C117  1  0.57463822  0.15307112  0.49972585  1  0.082713  0  -0.003978  0.133493  0  3.943631  0
C  C118  1  0.57304819  0.23071767  0.49976674  1  -0.154523  0  -0.093594  -0.174463  0  3.974907  0
C  C119  1  0.50009915  0.27021973  0.49977729  1  0.047274  0  -0.019731  -0.017019  0  4.017585  0
C  C120  1  0.42711758  0.23082800  0.49975406  1  -0.152535  0  -0.093775  -0.174199  0  3.975515  0
C  C121  1  0.42546099  0.15318717  0.49970139  1  0.083709  0  -0.003577  0.133505  0  3.944121  0
C  C122  1  0.42675704  0.50070128  0.64592359  1  -0.115007  0  -0.085725  -0.130427  0  3.930459  0
C  C123  1  0.42512317  0.50084333  0.68804233  1  0.069645  0  -0.011258  0.042492  0  4.013685  0
C  C124  1  0.35057435  0.50094292  0.71073493  1  -0.024829  0  -0.0228  0.012162  0  3.941184  0
C  C125  1  0.57310827  0.50065404  0.64569548  1  0.02201  0  -0.08557  -0.130431  0  3.930977  0
C  C126  1  0.57487231  0.50084948  0.68780190  1  -0.084358  0  -0.011333  0.042155  0  4.015625  0
C  C127  1  0.64950666  0.50103431  0.71024077  1  -0.041887  0  -0.022496  0.013126  0  3.941815  0
C  C128  1  0.57340668  0.50135929  0.81628179  1  0.073736  0  -0.085356  -0.130517  0  3.931394  0
C  C129  1  0.57501809  0.50132427  0.77416601  1  -0.089566  0  -0.011332  0.041551  0  4.015354  0
C  C130  1  0.64957171  0.50128321  0.75147233  1  -0.020747  0  -0.022438  0.013051  0  3.941404  0
C  C131  1  0.42703913  0.50136806  0.81651706  1  0.069354  0  -0.085485  -0.130072  0  3.92999  0
C  C132  1  0.42526657  0.50124509  0.77440750  1  -0.080297  0  -0.011818  0.040461  0  4.016386  0
C  C133  1  0.35065034  0.50112158  0.75196452  1  -0.055756  0  -0.021698  0.014198  0  3.941033  0
C  C134  1  0.49989247  0.50071380  0.62496975  1  0.123214  0  -0.012921  -0.006016  0  3.970556  0
C  C135  1  0.50003598  0.50098931  0.70975137  1  0.014004  0  0.005367  0.014453  0  3.917247  0
C  C136  1  0.50025782  0.50151847  0.83723151  1  0.024645  0  -0.013326  -0.005454  0  3.971034  0
C  C137  1  0.50010223  0.50120728  0.75245403  1  0.00334  0  0.005448  0.015814  0  3.916356  0
C  C138  1  0.49977230  0.50194241  0.08543489  1  -0.068943  0  -0.019643  -0.016406  0  4.019563  0
C  C139  1  0.42681171  0.50204803  0.10676535  1  -0.009825  0  -0.094308  -0.175952  0  3.977701  0
C  C140  1  0.42524397  0.50194820  0.14861843  1  -0.025455  0  -0.004329  0.132041  0  3.947103  0
C  C141  1  0.49984893  0.50172962  0.16997843  1  0.134263  0  -0.002986  0.014933  0  4.030119  0
C  C142  1  0.57441932  0.50195260  0.14841113  1  -0.009445  0  -0.004437  0.132265  0  3.94682  0
C  C143  1  0.57277555  0.50204533  0.10656334  1  -0.002378  0  -0.093598  -0.175314  0  3.978303  0
C  C144  1  0.49991368  0.50143585  0.21264635  1  -0.241328  0  -0.041786  -0.098171  0  4.135598  0
C  C145  1  0.50002276  0.50107849  0.24946187  1  -0.247977  0  -0.042264  -0.09748  0  4.135994  0
C  C146  1  0.50010148  0.50069218  0.29212206  1  0.132503  0  -0.002876  0.014898  0  4.031856  0
C  C147  1  0.42555532  0.50043074  0.31369527  1  -0.008115  0  -0.004213  0.132172  0  3.947135  0
C  C148  1  0.42722592  0.50002639  0.35554027  1  -0.01038  0  -0.09346  -0.174793  0  3.97671  0
C  C149  1  0.50023602  0.49979706  0.37667192  1  -0.064989  0  -0.019962  -0.017149  0  4.019864  0
C  C150  1  0.57316546  0.50015637  0.35531512  1  -0.014015  0  -0.093821  -0.175331  0  3.978464  0
C  C151  1  0.57472573  0.50061130  0.31346581  1  -0.015463  0  -0.004297  0.132325  0  3.947555  0
C  C152  1  0.74953953  0.54785802  0.93690248  1  0.537419  0  0.05457  0.021942  0  3.90356  0
C  C153  1  0.83377211  0.55079782  0.93559970  1  -0.000671  0  0.008091  0.10004  0  3.936545  0
C  C154  1  0.87709019  0.50309974  0.96188982  1  0.175676  0  0.014427  0.037609  0  4.030172  0
C  C155  1  0.83352371  0.45503171  0.98798493  1  0.013819  0  0.008412  0.097236  0  3.939412  0
C  C156  1  0.74931036  0.45738556  0.98638176  1  0.496879  0  0.053841  0.022566  0  3.905298  0
C  C157  1  0.96301073  0.50319643  0.96197809  1  -0.368943  0  -0.02641  -0.078698  0  4.09631  0
C  C158  1  0.03700979  0.50315075  0.96198986  1  -0.13095  0  -0.026098  -0.078111  0  4.095772  0
C  C159  1  0.12292868  0.50298268  0.96190596  1  0.169621  0  0.014818  0.037972  0  4.029283  0
C  C160  1  0.16647961  0.55075082  0.93566056  1  0.013113  0  0.008076  0.099188  0  3.93814  0
C  C161  1  0.25070359  0.54784680  0.93700049  1  0.530947  0  0.054154  0.021359  0  3.90346  0
C  C162  1  0.25049751  0.45722329  0.98640459  1  0.50012  0  0.053831  0.022184  0  3.903882  0
C  C163  1  0.16626278  0.45482251  0.98796156  1  0.008547  0  0.007547  0.096579  0  3.939107  0
C  C164  1  0.50003432  0.73187179  0.96082028  1  -0.030378  0  -0.020182  -0.01978  0  4.022881  0
C  C165  1  0.42708710  0.77136381  0.96090474  1  0.019079  0  -0.092854  -0.172761  0  3.976727  0
C  C166  1  0.42549949  0.84900085  0.96111001  1  -0.040298  0  -0.004202  0.131608  0  3.946498  0
C  C167  1  0.50009443  0.88880305  0.96126655  1  0.158901  0  -0.003329  0.014698  0  4.029354  0
C  C168  1  0.57466218  0.84890150  0.96121056  1  -0.036841  0  -0.003895  0.13241  0  3.945437  0
C  C169  1  0.57301527  0.77126349  0.96100250  1  0.015425  0  -0.09323  -0.17208  0  3.976013  0
C  C170  1  0.50010800  0.96799004  0.96148972  1  -0.24741  0  -0.041767  -0.097443  0  4.132192  0
C  C171  1  0.50007357  0.03629749  0.96165081  1  -0.276512  0  -0.041644  -0.097061  0  4.130704  0
C  C172  1  0.50005990  0.11550122  0.96173670  1  0.152759  0  -0.002962  0.014144  0  4.026589  0
C  C173  1  0.42548730  0.15541505  0.96172900  1  -0.017575  0  -0.003623  0.13374  0  3.944478  0
C  C174  1  0.42711423  0.23306033  0.96181297  1  -0.01637  0  -0.093611  -0.174383  0  3.978423  0
C  C175  1  0.50008066  0.27246208  0.96188013  1  0.008935  0  -0.02009  -0.01769  0  4.020356  0
C  C176  1  0.57304118  0.23299962  0.96177347  1  -0.016691  0  -0.09375  -0.174335  0  3.977358  0
C  C177  1  0.57463485  0.15534694  0.96171092  1  -0.0113  0  -0.003766  0.133036  0  3.94393  0
C  C178  1  0.12611076  0.39909901  0.44540318  1  0.009586  0  -0.229617  -0.406271  0  3.970511  0
C  C179  1  0.12516095  0.60100186  0.55521506  1  -0.015806  0  -0.229855  -0.405803  0  3.966993  0
C  C180  1  0.87453577  0.39891320  0.44543646  1  -0.089551  0  -0.230216  -0.40742  0  3.970117  0
C  C181  1  0.87412693  0.60104302  0.55514479  1  -0.091796  0  -0.229949  -0.405833  0  3.966689  0
C  C182  1  0.34499286  0.88624218  0.49979153  1  -0.105407  0  -0.238118  -0.406139  0  3.983783  0
C  C183  1  0.65486483  0.88607226  0.50002202  1  -0.017272  0  -0.237973  -0.40504  0  3.983255  0
C  C184  1  0.34507945  0.11386026  0.49982619  1  -0.10358  0  -0.238215  -0.405671  0  3.98318  0
C  C185  1  0.65498959  0.11362347  0.49989090  1  -0.098151  0  -0.237817  -0.405268  0  3.983167  0
C  C186  1  0.65477336  0.50224765  0.16955714  1  -0.060223  0  -0.238117  -0.40499  0  3.983857  0
C  C187  1  0.34493906  0.50216214  0.16999057  1  -0.045708  0  -0.237566  -0.40371  0  3.983951  0
C  C188  1  0.65501266  0.50109586  0.29207532  1  -0.067313  0  -0.237702  -0.404961  0  3.983963  0
C  C189  1  0.34518519  0.50073105  0.29256586  1  -0.07856  0  -0.238215  -0.404946  0  3.982498  0
C  C190  1  0.87410825  0.40250803  0.01661194  1  -0.066908  0  -0.23031  -0.40691  0  3.969948  0
C  C191  1  0.87458568  0.60320860  0.90693953  1  -0.038117  0  -0.229999  -0.407554  0  3.965541  0
C  C192  1  0.12544627  0.40219601  0.01652951  1  -0.09147  0  -0.229726  -0.406851  0  3.970393  0
C  C193  1  0.12591329  0.60310338  0.90696965  1  -0.024503  0  -0.229953  -0.405637  0  3.964887  0
C  C194  1  0.65500736  0.88829861  0.96132398  1  -0.015942  0  -0.238107  -0.405872  0  3.982125  0
C  C195  1  0.34518319  0.88850422  0.96110643  1  -0.024001  0  -0.238202  -0.405031  0  3.982458  0
C  C196  1  0.65499407  0.11592723  0.96152558  1  -0.046924  0  -0.237733  -0.404887  0  3.982616  0
C  C197  1  0.34510697  0.11609934  0.96152323  1  -0.070786  0  -0.237685  -0.404949  0  3.983143  0
Br  Br198  1  0.25160471  0.50106748  0.78123252  1  -0.058546  0  0.020262  -0.063195  0  1.464857  0
Br  Br199  1  0.25142952  0.50059730  0.68181701  1  -0.043755  0  0.020447  -0.062536  0  1.464548  0
Br  Br200  1  0.74871491  0.50132892  0.78039834  1  -0.046934  0  0.020363  -0.062867  0  1.464667  0
Br  Br201  1  0.74857971  0.50077567  0.68102227  1  -0.055677  0  0.020319  -0.062995  0  1.465554  0
N  N202  1  0.29147266  0.49987345  0.50059056  1  -1.23734  0  -0.317874  -0.174458  0  3.579592  0
N  N203  1  0.70851163  0.49990834  0.50045285  1  -1.232059  0  -0.318187  -0.174909  0  3.579838  0
N  N204  1  0.70852927  0.50248759  0.96155554  1  -1.226039  0  -0.318012  -0.174451  0  3.580275  0
N  N205  1  0.29149575  0.50244601  0.96165326  1  -1.224352  0  -0.317964  -0.17386  0  3.578648  0
O  O206  1  0.56856266  0.61373215  0.50156310  1  -1.165719  0  -0.320551  -0.551489  0  2.329038  0
O  O207  1  0.43121714  0.61376664  0.50153260  1  -1.16441  0  -0.320561  -0.551516  0  2.327779  0
O  O208  1  0.43112494  0.50074048  0.56257420  1  -1.171492  0  -0.315551  -0.541033  0  2.313831  0
O  O209  1  0.56856744  0.50048807  0.56241689  1  -1.172263  0  -0.31551  -0.540669  0  2.316632  0
O  O210  1  0.43144213  0.38615707  0.50034879  1  -1.16759  0  -0.320159  -0.550943  0  2.327814  0
O  O211  1  0.56878766  0.38611260  0.50008744  1  -1.162963  0  -0.320382  -0.550948  0  2.328277  0
O  O212  1  0.56893894  0.49952174  0.43905199  1  -1.171284  0  -0.320942  -0.551866  0  2.325099  0
O  O213  1  0.43155305  0.49925572  0.43919972  1  -1.168279  0  -0.320826  -0.55185  0  2.326539  0
O  O214  1  0.43132401  0.61599285  0.96053273  1  -1.166974  0  -0.320835  -0.551956  0  2.327548  0
O  O215  1  0.56866350  0.61590930  0.96055412  1  -1.167996  0  -0.320457  -0.551477  0  2.32766  0
O  O216  1  0.56897176  0.50203419  0.89960933  1  -1.167638  0  -0.31539  -0.540551  0  2.31581  0
O  O217  1  0.43151555  0.50194377  0.89974129  1  -1.169659  0  -0.315895  -0.541008  0  2.318156  0
O  O218  1  0.56873469  0.38835003  0.96166285  1  -1.173951  0  -0.320659  -0.55108  0  2.328209  0
O  O219  1  0.43136798  0.38838446  0.96190076  1  -1.172521  0  -0.320931  -0.551375  0  2.32817  0
O  O220  1  0.43110755  0.50215642  0.02304712  1  -1.169615  0  -0.320866  -0.551295  0  2.325671  0
O  O221  1  0.56848776  0.50181146  0.02291614  1  -1.167361  0  -0.320463  -0.551378  0  2.327852  0
