# generated using pymatgen
data_YbH9C9NO8
_symmetry_space_group_name_H-M   'P 1'
_cell_length_a   5.29608595
_cell_length_b   8.45875713
_cell_length_c   15.72438741
_cell_angle_alpha   106.00301774
_cell_angle_beta   93.21265417
_cell_angle_gamma   93.61412482
_symmetry_Int_Tables_number   1
_chemical_formula_structural   YbH9C9NO8
_chemical_formula_sum   'Yb2 H18 C18 N2 O16'
_cell_volume   673.79873808
_cell_formula_units_Z   2
loop_
 _symmetry_equiv_pos_site_id
 _symmetry_equiv_pos_as_xyz
  1  'x, y, z'
loop_
 _atom_site_type_symbol
 _atom_site_label
 _atom_site_symmetry_multiplicity
 _atom_site_fract_x
 _atom_site_fract_y
 _atom_site_fract_z
 _atom_site_occupancy
 _atom_site_pbe_bader_charge
 _atom_site_pbe_bader_spin_density
 _atom_site_pbe_cm5_charge
 _atom_site_pbe_ddec_charge
 _atom_site_pbe_ddec_spin_density
 _atom_site_pbe_ddec_sum_bond_order
 _atom_site_pbe_magmom
Yb  Yb0  1  0.03569252  0.63613750  0.25989761  1  2.173789  0  1.583757  2.076366  0  2.148774  0
Yb  Yb1  1  0.96430525  0.36386426  0.74010329  1  2.173768  0  1.583723  2.076295  0  2.148884  0
H  H2  1  0.75667468  0.91645809  0.48553043  1  0.079357  0  0.120973  0.085838  0  1.016133  0
H  H3  1  0.24332054  0.08354000  0.51446798  1  0.079385  0  0.120977  0.085864  0  1.016107  0
H  H4  1  0.91348443  0.79210206  0.71873288  1  0.12723  0  0.132036  0.103567  0  0.968012  0
H  H5  1  0.08651066  0.20790594  0.28126762  1  0.126213  0  0.132034  0.103547  0  0.968034  0
H  H6  1  0.59696593  0.32766934  0.99113850  1  0.038969  0  0.100235  0.110036  0  0.989658  0
H  H7  1  0.40304205  0.67232600  0.00886165  1  0.039031  0  0.100219  0.109977  0  0.98972  0
H  H8  1  0.36752727  0.41769313  0.06361229  1  0.112754  0  0.11302  0.143468  0  0.978472  0
H  H9  1  0.63248093  0.58230344  0.93638740  1  0.112752  0  0.113037  0.143433  0  0.978461  0
H  H10  1  0.21419213  0.58792300  0.56166677  1  0.172958  0  0.121347  0.137518  0  0.992486  0
H  H11  1  0.78580709  0.41207624  0.43833506  1  0.172918  0  0.121343  0.137479  0  0.992504  0
H  H12  1  0.44845822  0.74381580  0.16860792  1  0.652586  0  0.298634  0.414109  0  0.918242  0
H  H13  1  0.55154520  0.25618583  0.83139243  1  0.652594  0  0.298634  0.414111  0  0.918246  0
H  H14  1  0.18697557  0.79649511  0.13050505  1  0.61636  0  0.334454  0.420835  0  0.863924  0
H  H15  1  0.81302487  0.20350039  0.86949307  1  0.61636  0  0.334449  0.420852  0  0.863906  0
H  H16  1  0.67348388  0.85487394  0.34549647  1  0.665057  0  0.299079  0.412792  0  0.915907  0
H  H17  1  0.32651599  0.14512900  0.65450210  1  0.664987  0  0.299074  0.412795  0  0.915902  0
H  H18  1  0.94532978  0.97619842  0.35868666  1  0.625346  0  0.28458  0.347569  0  1.017547  0
H  H19  1  0.05466987  0.02380328  0.64131173  1  0.625358  0  0.284582  0.347571  0  1.017544  0
C  C20  1  0.30835723  0.72261337  0.42641735  1  1.52911  0  0.19426  0.563904  0  4.250296  0
C  C21  1  0.69163799  0.27738473  0.57358106  1  1.528902  0  0.19418  0.563835  0  4.250339  0
C  C22  1  0.46561197  0.74840202  0.51178215  1  -0.002155  0  -0.012145  -0.084247  0  3.957888  0
C  C23  1  0.53437870  0.25160237  0.48821965  1  -0.002056  0  -0.012182  -0.084313  0  3.957936  0
C  C24  1  0.69387560  0.84800777  0.53090202  1  0.564495  0  0.067707  0.107438  0  3.895715  0
C  C25  1  0.30612738  0.15199139  0.46909732  1  0.564655  0  0.067743  0.10744  0  3.895762  0
C  C26  1  0.78120493  0.78033605  0.66115608  1  0.502435  0  0.079838  0.110671  0  3.878308  0
C  C27  1  0.21879328  0.21966817  0.33884519  1  0.503476  0  0.079857  0.110766  0  3.878373  0
C  C28  1  0.55328219  0.68091521  0.64896551  1  -0.011855  0  -0.006475  -0.090324  0  3.943461  0
C  C29  1  0.44670971  0.31908544  0.35103576  1  -0.011901  0  -0.006462  -0.090403  0  3.943574  0
C  C30  1  0.49204392  0.58348414  0.71259097  1  1.631475  0  0.243421  0.677143  0  4.149263  0
C  C31  1  0.50796350  0.41651864  0.28741154  1  1.631507  0  0.243407  0.677202  0  4.149262  0
C  C32  1  0.74120941  0.52692994  0.10123041  1  1.536288  0  0.198232  0.638275  0  4.155948  0
C  C33  1  0.25879291  0.47306552  0.89876901  1  1.536094  0  0.198324  0.638402  0  4.155797  0
C  C34  1  0.53483657  0.44540083  0.02988597  1  -0.057441  0  -0.158082  -0.26669  0  3.889527  0
C  C35  1  0.46516764  0.55459459  0.97011220  1  -0.030224  0  -0.158163  -0.266603  0  3.88952  0
C  C36  1  0.39156104  0.66631967  0.57354474  1  -0.039443  0  -0.044869  -0.042279  0  3.860317  0
C  C37  1  0.60844094  0.33368446  0.42645532  1  -0.039497  0  -0.044804  -0.04211  0  3.860067  0
N  N38  1  0.84724228  0.86491068  0.60423708  1  -1.224855  0  -0.300347  -0.226594  0  3.412434  0
N  N39  1  0.15275759  0.13509226  0.39576404  1  -1.22496  0  -0.300377  -0.226636  0  3.412439  0
O  O40  1  0.38338038  0.78835603  0.36642942  1  -1.19247  0  -0.359778  -0.632115  0  2.269027  0
O  O41  1  0.61661884  0.21164321  0.63357177  1  -1.192427  0  -0.359743  -0.632081  0  2.268957  0
O  O42  1  0.10286760  0.63093990  0.41213697  1  -1.174694  0  -0.364893  -0.618804  0  2.262131  0
O  O43  1  0.89712864  0.36905322  0.58786199  1  -1.17462  0  -0.36485  -0.618771  0  2.262174  0
O  O44  1  0.67572825  0.54634469  0.75701476  1  -1.203478  0  -0.420503  -0.686204  0  2.325779  0
O  O45  1  0.32426385  0.45365718  0.24298287  1  -1.203481  0  -0.420559  -0.686341  0  2.325612  0
O  O46  1  0.26099189  0.54091558  0.71666162  1  -1.197426  0  -0.411018  -0.663691  0  2.339828  0
O  O47  1  0.73899855  0.45908757  0.28333808  1  -1.197418  0  -0.411024  -0.663668  0  2.340046  0
O  O48  1  0.71633587  0.67244501  0.15349775  1  -1.205471  0  -0.381531  -0.661669  0  2.24679  0
O  O49  1  0.28367001  0.32754913  0.84650218  1  -1.20537  0  -0.381596  -0.661751  0  2.246671  0
O  O50  1  0.93541310  0.45392403  0.11371686  1  -1.178606  0  -0.379527  -0.627297  0  2.176521  0
O  O51  1  0.06459554  0.54607500  0.88628320  1  -1.178463  0  -0.379488  -0.627291  0  2.176598  0
O  O52  1  0.27281279  0.78215646  0.18378612  1  -1.249799  0  -0.64699  -0.857406  0  2.029813  0
O  O53  1  0.72719063  0.21784517  0.81621359  1  -1.249818  0  -0.646985  -0.857419  0  2.029844  0
O  O54  1  0.85009598  0.86442156  0.32754168  1  -1.304157  0  -0.685382  -0.892194  0  2.14747  0
O  O55  1  0.14990367  0.13558015  0.67245734  1  -1.304122  0  -0.685381  -0.892198  0  2.147442  0
