# generated using pymatgen
data_CdH22C16S2(N2O3)2
_symmetry_space_group_name_H-M   'P 1'
_cell_length_a   7.82185353
_cell_length_b   8.83069401
_cell_length_c   13.92816141
_cell_angle_alpha   90.00000385
_cell_angle_beta   90.00023272
_cell_angle_gamma   103.27051989
_symmetry_Int_Tables_number   1
_chemical_formula_structural   CdH22C16S2(N2O3)2
_chemical_formula_sum   'Cd2 H44 C32 S4 N8 O12'
_cell_volume   936.36191450
_cell_formula_units_Z   2
loop_
 _symmetry_equiv_pos_site_id
 _symmetry_equiv_pos_as_xyz
  1  'x, y, z'
loop_
 _atom_site_type_symbol
 _atom_site_label
 _atom_site_symmetry_multiplicity
 _atom_site_fract_x
 _atom_site_fract_y
 _atom_site_fract_z
 _atom_site_occupancy
 _atom_site_hle17_bader_spin_density
 _atom_site_hle17_ddec_charge
 _atom_site_hle17_ddec_spin_density
 _atom_site_hle17_ddec_sum_bond_order
 _atom_site_hle17_magmom
 _atom_site_hse06_10hf_bader_spin_density
 _atom_site_hse06_10hf_ddec_charge
 _atom_site_hse06_10hf_ddec_spin_density
 _atom_site_hse06_10hf_ddec_sum_bond_order
 _atom_site_hse06_10hf_magmom
 _atom_site_hse06_bader_spin_density
 _atom_site_hse06_ddec_charge
 _atom_site_hse06_ddec_spin_density
 _atom_site_hse06_ddec_sum_bond_order
 _atom_site_hse06_magmom
 _atom_site_pbe_bader_spin_density
 _atom_site_pbe_cm5_charge
 _atom_site_pbe_ddec_charge
 _atom_site_pbe_ddec_spin_density
 _atom_site_pbe_ddec_sum_bond_order
 _atom_site_pbe_magmom
Cd  Cd0  1  0.99999984  0.50000100  0.99999962  1  0  1.057504  0  1.712719  0  0  0.855181  0  2.142761  0  0  0.905604  0  2.102121  0  0  0.798757  0.820388  0  2.169865  0
Cd  Cd1  1  0.49999975  0.49999979  0.49999981  1  0  1.057481  0  1.712742  0  0  0.855174  0  2.142797  0  0  0.905601  0  2.102155  0  0  0.798741  0.820375  0  2.169883  0
H  H2  1  0.15865617  0.42766955  0.58988135  1  0  0.278045  0  0.907062  0  0  0.269832  0  0.95968  0  0  0.275335  0  0.956532  0  0  0.29864  0.265895  0  0.962041  0
H  H3  1  0.34134296  0.57233012  0.08988089  1  0  0.278004  0  0.907066  0  0  0.269796  0  0.959682  0  0  0.275298  0  0.956534  0  0  0.29862  0.265857  0  0.962056  0
H  H4  1  0.84134333  0.57233002  0.41011828  1  0  0.27802  0  0.907071  0  0  0.269815  0  0.959674  0  0  0.275317  0  0.956527  0  0  0.298633  0.265878  0  0.962036  0
H  H5  1  0.65865654  0.42766945  0.91011873  1  0  0.277965  0  0.907081  0  0  0.26976  0  0.959696  0  0  0.275262  0  0.956548  0  0  0.298609  0.265823  0  0.962059  0
H  H6  1  0.81406621  0.30901292  0.50664498  1  0  0.089735  0  0.962621  0  0  0.094274  0  1.032619  0  0  0.097471  0  1.029152  0  0  0.113457  0.091984  0  1.035117  0
H  H7  1  0.68593216  0.69098704  0.00664417  1  0  0.089742  0  0.962698  0  0  0.094275  0  1.032702  0  0  0.097472  0  1.029236  0  0  0.113471  0.091986  0  1.03521  0
H  H8  1  0.18593359  0.69098781  0.49335465  1  0  0.089737  0  0.962689  0  0  0.094293  0  1.032664  0  0  0.097489  0  1.029198  0  0  0.113482  0.092005  0  1.035166  0
H  H9  1  0.31406764  0.30901370  0.99335617  1  0  0.089732  0  0.962697  0  0  0.094268  0  1.032701  0  0  0.097464  0  1.029235  0  0  0.113467  0.091979  0  1.035207  0
H  H10  1  0.86608583  0.06459169  0.58369469  1  0  0.113449  0  0.956197  0  0  0.123169  0  1.016406  0  0  0.126247  0  1.015823  0  0  0.108691  0.120984  0  1.01692  0
H  H11  1  0.63391441  0.93540839  0.08369449  1  0  0.113434  0  0.956172  0  0  0.123153  0  1.016383  0  0  0.126229  0  1.015802  0  0  0.108672  0.120967  0  1.016901  0
H  H12  1  0.13391526  0.93540904  0.41630566  1  0  0.113416  0  0.956186  0  0  0.123134  0  1.0164  0  0  0.126209  0  1.015818  0  0  0.10866  0.120948  0  1.016915  0
H  H13  1  0.36608667  0.06459234  0.91630585  1  0  0.113402  0  0.956209  0  0  0.123117  0  1.016426  0  0  0.126193  0  1.015843  0  0  0.108649  0.120933  0  1.016939  0
H  H14  1  0.62249736  0.89692971  0.67638864  1  0  0.097754  0  0.967133  0  0  0.106408  0  1.031837  0  0  0.108999  0  1.029259  0  0  0.106836  0.104738  0  1.03323  0
H  H15  1  0.87750456  0.10306936  0.17638825  1  0  0.09776  0  0.9672  0  0  0.106377  0  1.031946  0  0  0.108968  0  1.029369  0  0  0.106829  0.104716  0  1.033316  0
H  H16  1  0.37750342  0.10306986  0.32361170  1  0  0.097764  0  0.967146  0  0  0.106417  0  1.031851  0  0  0.109007  0  1.029274  0  0  0.106849  0.104758  0  1.033215  0
H  H17  1  0.12249750  0.89693020  0.82361281  1  0  0.097758  0  0.967137  0  0  0.106407  0  1.031859  0  0  0.108996  0  1.029283  0  0  0.106851  0.104755  0  1.033212  0
H  H18  1  0.33135793  0.97088713  0.68594736  1  0  0.117525  0  0.955494  0  0  0.126393  0  1.01832  0  0  0.129295  0  1.017908  0  0  0.108597  0.124361  0  1.018549  0
H  H19  1  0.16864352  0.02911386  0.18594577  1  0  0.117521  0  0.95552  0  0  0.126385  0  1.018348  0  0  0.129287  0  1.017936  0  0  0.108589  0.124353  0  1.018576  0
H  H20  1  0.66864188  0.02911360  0.31405442  1  0  0.117512  0  0.955511  0  0  0.12638  0  1.018332  0  0  0.129282  0  1.017921  0  0  0.108587  0.124347  0  1.018558  0
H  H21  1  0.83135757  0.97088688  0.81405386  1  0  0.11753  0  0.955514  0  0  0.126394  0  1.018336  0  0  0.129296  0  1.017925  0  0  0.108578  0.124365  0  1.01856  0
H  H22  1  0.18370660  0.19219428  0.53098272  1  0  0.097174  0  0.933394  0  0  0.112669  0  0.995618  0  0  0.113967  0  0.994383  0  0  0.115773  0.11171  0  0.9966  0
H  H23  1  0.31629366  0.80780645  0.03098293  1  0  0.097183  0  0.933379  0  0  0.112689  0  0.995607  0  0  0.113985  0  0.994373  0  0  0.115771  0.111725  0  0.996597  0
H  H24  1  0.81629576  0.80780645  0.46901691  1  0  0.097189  0  0.933372  0  0  0.112694  0  0.995591  0  0  0.113989  0  0.994358  0  0  0.11578  0.111734  0  0.996571  0
H  H25  1  0.68370584  0.19219312  0.96901670  1  0  0.097191  0  0.933371  0  0  0.112686  0  0.995598  0  0  0.113981  0  0.994365  0  0  0.115777  0.111725  0  0.996584  0
H  H26  1  0.16127595  0.15784126  0.65675234  1  0  0.079646  0  0.927317  0  0  0.096333  0  0.989985  0  0  0.097179  0  0.990077  0  0  0.105325  0.095563  0  0.990173  0
H  H27  1  0.33872399  0.84215968  0.15675261  1  0  0.079644  0  0.92731  0  0  0.096336  0  0.989993  0  0  0.097185  0  0.990077  0  0  0.105321  0.095572  0  0.990169  0
H  H28  1  0.83872288  0.84216064  0.34324729  1  0  0.079642  0  0.927318  0  0  0.096336  0  0.989985  0  0  0.097188  0  0.990065  0  0  0.105342  0.095566  0  0.990176  0
H  H29  1  0.66127551  0.15783989  0.84324702  1  0  0.079621  0  0.927336  0  0  0.096303  0  0.990014  0  0  0.097152  0  0.990104  0  0  0.105311  0.095539  0  0.990192  0
H  H30  1  0.40360517  0.38614525  0.74239925  1  0  0.059353  0  0.93892  0  0  0.075734  0  1.002924  0  0  0.076232  0  1.003451  0  0  0.102079  0.075467  0  1.002344  0
H  H31  1  0.09639768  0.61385467  0.24239895  1  0  0.059321  0  0.938934  0  0  0.07569  0  1.002965  0  0  0.076188  0  1.003493  0  0  0.102062  0.075425  0  1.002381  0
H  H32  1  0.59639591  0.61385549  0.25760038  1  0  0.059319  0  0.938936  0  0  0.0757  0  1.002951  0  0  0.076197  0  1.003482  0  0  0.102075  0.075432  0  1.002377  0
H  H33  1  0.90360183  0.38614490  0.75760068  1  0  0.059288  0  0.938974  0  0  0.075686  0  1.002971  0  0  0.076184  0  1.003497  0  0  0.102061  0.075422  0  1.002391  0
H  H34  1  0.18050992  0.38909346  0.75812181  1  0  0.04961  0  0.939042  0  0  0.06456  0  1.006406  0  0  0.065021  0  1.007048  0  0  0.095561  0.064257  0  1.005881  0
H  H35  1  0.31949177  0.61090649  0.25812131  1  0  0.049585  0  0.939036  0  0  0.064537  0  1.006405  0  0  0.064999  0  1.007045  0  0  0.095559  0.064235  0  1.005878  0
H  H36  1  0.81948959  0.61090611  0.24187781  1  0  0.04959  0  0.93903  0  0  0.064549  0  1.006399  0  0  0.06501  0  1.00704  0  0  0.095562  0.064247  0  1.005868  0
H  H37  1  0.68050803  0.38909425  0.74187832  1  0  0.049572  0  0.939097  0  0  0.06452  0  1.006469  0  0  0.064979  0  1.00711  0  0  0.095582  0.064222  0  1.005936  0
H  H38  1  0.25485574  0.67165624  0.69668020  1  0  0.133279  0  0.938417  0  0  0.144506  0  0.99944  0  0  0.147447  0  0.998226  0  0  0.107996  0.142405  0  1.000212  0
H  H39  1  0.24514451  0.32834478  0.19667951  1  0  0.133282  0  0.938419  0  0  0.144518  0  0.999411  0  0  0.147465  0  0.998197  0  0  0.107992  0.142419  0  1.000177  0
H  H40  1  0.74514407  0.32834450  0.30332015  1  0  0.133293  0  0.938406  0  0  0.144519  0  0.999429  0  0  0.14746  0  0.998215  0  0  0.108001  0.142418  0  1.000197  0
H  H41  1  0.75485657  0.67165596  0.80332083  1  0  0.133262  0  0.938471  0  0  0.144481  0  0.999484  0  0  0.147429  0  0.998271  0  0  0.107967  0.142379  0  1.000254  0
H  H42  1  0.47975219  0.65868447  0.69070264  1  0  0.131109  0  0.988677  0  0  0.141847  0  1.050586  0  0  0.145057  0  1.048994  0  0  0.104431  0.139479  0  1.051908  0
H  H43  1  0.02024643  0.34131537  0.19070287  1  0  0.131114  0  0.988711  0  0  0.141833  0  1.050623  0  0  0.145045  0  1.049033  0  0  0.104436  0.139468  0  1.051947  0
H  H44  1  0.52024731  0.34131510  0.30929699  1  0  0.131109  0  0.988679  0  0  0.141849  0  1.050585  0  0  0.145059  0  1.048995  0  0  0.104431  0.139479  0  1.05191  0
H  H45  1  0.97975277  0.65868304  0.80929747  1  0  0.131125  0  0.988699  0  0  0.141853  0  1.050602  0  0  0.14507  0  1.049013  0  0  0.104445  0.139482  0  1.051935  0
C  C46  1  0.71111124  0.23020455  0.54688922  1  0  0.138911  0  3.700838  0  0  0.106456  0  3.955328  0  0  0.114316  0  3.973061  0  0  0.047725  0.101563  0  3.94311  0
C  C47  1  0.78888616  0.76979548  0.04688866  1  0  0.1389  0  3.700936  0  0  0.106456  0  3.955424  0  0  0.114314  0  3.973156  0  0  0.047703  0.101561  0  3.94322  0
C  C48  1  0.28888698  0.76979502  0.45311112  1  0  0.138909  0  3.700901  0  0  0.106448  0  3.955378  0  0  0.114307  0  3.973111  0  0  0.047692  0.101552  0  3.94317  0
C  C49  1  0.21111365  0.23020526  0.95311097  1  0  0.138923  0  3.700888  0  0  0.106474  0  3.955369  0  0  0.114332  0  3.973101  0  0  0.047705  0.101585  0  3.943159  0
C  C50  1  0.73982294  0.09598011  0.58985688  1  0  -0.126592  0  3.712356  0  0  -0.139636  0  3.962897  0  0  -0.14772  0  3.98471  0  0  -0.086462  -0.134503  0  3.948039  0
C  C51  1  0.76017704  0.90401882  0.08985625  1  0  -0.126574  0  3.712412  0  0  -0.139611  0  3.96294  0  0  -0.147695  0  3.984754  0  0  -0.08643  -0.13448  0  3.948086  0
C  C52  1  0.26017753  0.90401830  0.41014347  1  0  -0.126561  0  3.712337  0  0  -0.139603  0  3.962877  0  0  -0.147684  0  3.98469  0  0  -0.086427  -0.134474  0  3.948025  0
C  C53  1  0.23982246  0.09598075  0.91014409  1  0  -0.126561  0  3.712408  0  0  -0.139592  0  3.962944  0  0  -0.147673  0  3.984756  0  0  -0.086408  -0.13446  0  3.948087  0
C  C54  1  0.60305119  0.00162985  0.64131721  1  0  0.019001  0  3.70328  0  0  -0.00248  0  3.955567  0  0  0.002642  0  3.973294  0  0  -0.063747  -0.005293  0  3.942967  0
C  C55  1  0.89695077  0.99837033  0.14131762  1  0  0.019011  0  3.703399  0  0  -0.002456  0  3.955693  0  0  0.002665  0  3.97342  0  0  -0.063754  -0.00526  0  3.943084  0
C  C56  1  0.39694990  0.99837088  0.35868314  1  0  0.018975  0  3.70331  0  0  -0.00251  0  3.955597  0  0  0.002612  0  3.973324  0  0  -0.063772  -0.005319  0  3.942997  0
C  C57  1  0.10305001  0.00162924  0.85868345  1  0  0.019021  0  3.70326  0  0  -0.002479  0  3.955562  0  0  0.002643  0  3.973289  0  0  -0.063761  -0.005288  0  3.942961  0
C  C58  1  0.44150162  0.04261781  0.64702776  1  0  -0.162825  0  3.694717  0  0  -0.178823  0  3.939492  0  0  -0.187419  0  3.96192  0  0  -0.081813  -0.173446  0  3.924618  0
C  C59  1  0.05849855  0.95738428  0.14702739  1  0  -0.16284  0  3.694749  0  0  -0.17882  0  3.939495  0  0  -0.187415  0  3.961923  0  0  -0.081776  -0.173442  0  3.924612  0
C  C60  1  0.55849818  0.95738292  0.35297259  1  0  -0.16282  0  3.694747  0  0  -0.17881  0  3.93951  0  0  -0.187406  0  3.961939  0  0  -0.081793  -0.173433  0  3.924629  0
C  C61  1  0.94150126  0.04261645  0.85297296  1  0  -0.162851  0  3.694747  0  0  -0.178829  0  3.939514  0  0  -0.187422  0  3.961942  0  0  -0.081763  -0.173444  0  3.924629  0
C  C62  1  0.42100279  0.17778968  0.60130742  1  0  0.23109  0  3.729666  0  0  0.232037  0  3.973107  0  0  0.239748  0  3.995306  0  0  0.116014  0.226777  0  3.958206  0
C  C63  1  0.07899643  0.82221001  0.10130709  1  0  0.231137  0  3.729551  0  0  0.232093  0  3.973003  0  0  0.239804  0  3.995203  0  0  0.116027  0.226837  0  3.958093  0
C  C64  1  0.57899702  0.82221105  0.39869293  1  0  0.231124  0  3.729569  0  0  0.232075  0  3.97301  0  0  0.239785  0  3.995211  0  0  0.116014  0.226816  0  3.958107  0
C  C65  1  0.92100435  0.17778956  0.89869254  1  0  0.23114  0  3.72962  0  0  0.232068  0  3.973078  0  0  0.239779  0  3.995279  0  0  0.116021  0.226801  0  3.958184  0
C  C66  1  0.24649587  0.22459003  0.60101070  1  0  -0.056214  0  3.66682  0  0  -0.120684  0  3.923297  0  0  -0.117379  0  3.933017  0  0  -0.067456  -0.122932  0  3.916695  0
C  C67  1  0.25350462  0.77540965  0.10101077  1  0  -0.056238  0  3.666723  0  0  -0.120764  0  3.923261  0  0  -0.117458  0  3.932982  0  0  -0.067471  -0.12301  0  3.916656  0
C  C68  1  0.75350491  0.77540953  0.39898893  1  0  -0.056236  0  3.666764  0  0  -0.12074  0  3.923267  0  0  -0.117431  0  3.932983  0  0  -0.067476  -0.12299  0  3.916663  0
C  C69  1  0.74649586  0.22458875  0.89898886  1  0  -0.056183  0  3.666743  0  0  -0.120649  0  3.923209  0  0  -0.117348  0  3.932939  0  0  -0.06743  -0.122896  0  3.916603  0
C  C70  1  0.29859228  0.43841678  0.71508684  1  0  0.076922  0  3.663704  0  0  0.017373  0  3.931418  0  0  0.022466  0  3.943011  0  0  -0.073704  0.014064  0  3.923188  0
C  C71  1  0.20140810  0.56158426  0.21508678  1  0  0.077058  0  3.663645  0  0  0.017489  0  3.931349  0  0  0.022584  0  3.942945  0  0  -0.073661  0.014182  0  3.92311  0
C  C72  1  0.70140752  0.56158395  0.28491279  1  0  0.07704  0  3.663587  0  0  0.017456  0  3.931344  0  0  0.02255  0  3.942936  0  0  -0.073687  0.014143  0  3.923117  0
C  C73  1  0.79859012  0.43841531  0.78491285  1  0  0.077087  0  3.663679  0  0  0.017513  0  3.931389  0  0  0.022619  0  3.942984  0  0  -0.073674  0.014197  0  3.923156  0
C  C74  1  0.35330773  0.61390525  0.72640498  1  0  -0.353711  0  3.622194  0  0  -0.387938  0  3.874294  0  0  -0.394647  0  3.881022  0  0  -0.169975  -0.383277  0  3.869815  0
C  C75  1  0.14669275  0.38609581  0.22640407  1  0  -0.353778  0  3.622236  0  0  -0.387954  0  3.874248  0  0  -0.394678  0  3.880993  0  0  -0.169989  -0.383299  0  3.869789  0
C  C76  1  0.64669208  0.38609549  0.27359465  1  0  -0.353736  0  3.622146  0  0  -0.387953  0  3.874248  0  0  -0.394663  0  3.880975  0  0  -0.169977  -0.383298  0  3.869776  0
C  C77  1  0.85330675  0.61390376  0.77359556  1  0  -0.353745  0  3.622308  0  0  -0.387929  0  3.87435  0  0  -0.394674  0  3.881119  0  0  -0.169973  -0.383273  0  3.869884  0
S  S78  1  0.38370995  0.67197453  0.84980034  1  0  1.340472  0  5.61023  0  0  1.247572  0  6.13702  0  0  1.294209  0  6.113405  0  0  0.498182  1.215398  0  6.152623  0
S  S79  1  0.11629305  0.32802789  0.34980008  1  0  1.340432  0  5.6104  0  0  1.247532  0  6.137187  0  0  1.294173  0  6.11357  0  0  0.498193  1.21535  0  6.1528  0
S  S80  1  0.61628925  0.32802387  0.15020000  1  0  1.340452  0  5.610281  0  0  1.24755  0  6.137078  0  0  1.294189  0  6.11346  0  0  0.498201  1.21539  0  6.152666  0
S  S81  1  0.88370803  0.67197284  0.65020027  1  0  1.340424  0  5.610374  0  0  1.247521  0  6.137159  0  0  1.294169  0  6.113547  0  0  0.498175  1.215348  0  6.152758  0
N  N82  1  0.55521156  0.26963557  0.55310523  1  0  -0.379212  0  3.255633  0  0  -0.300854  0  3.514185  0  0  -0.3223  0  3.533902  0  0  -0.33745  -0.286403  0  3.500467  0
N  N83  1  0.94478814  0.73036330  0.05310430  1  0  -0.379252  0  3.255612  0  0  -0.300907  0  3.514176  0  0  -0.322351  0  3.533892  0  0  -0.337465  -0.28646  0  3.500475  0
N  N84  1  0.44478794  0.73036400  0.44689511  1  0  -0.379227  0  3.25559  0  0  -0.300873  0  3.514149  0  0  -0.322318  0  3.533867  0  0  -0.337449  -0.286417  0  3.500426  0
N  N85  1  0.05521136  0.26963627  0.94689533  1  0  -0.379261  0  3.255566  0  0  -0.300906  0  3.514132  0  0  -0.32235  0  3.533848  0  0  -0.337467  -0.28646  0  3.500435  0
N  N86  1  0.26871140  0.39380261  0.61330237  1  0  -0.419604  0  3.17829  0  0  -0.343776  0  3.428806  0  0  -0.362457  0  3.439154  0  0  -0.481202  -0.330599  0  3.421265  0
N  N87  1  0.23128791  0.60619710  0.11330166  1  0  -0.419589  0  3.178247  0  0  -0.343731  0  3.428741  0  0  -0.362412  0  3.439088  0  0  -0.481172  -0.330549  0  3.421204  0
N  N88  1  0.73128810  0.60619697  0.38669726  1  0  -0.419629  0  3.178241  0  0  -0.343781  0  3.428749  0  0  -0.362463  0  3.439097  0  0  -0.481205  -0.330603  0  3.421205  0
N  N89  1  0.76871159  0.39380247  0.88669725  1  0  -0.419584  0  3.178209  0  0  -0.343765  0  3.428736  0  0  -0.362444  0  3.43908  0  0  -0.481204  -0.33058  0  3.421187  0
O  O90  1  0.48141556  0.83470607  0.84955635  1  0  -0.676015  0  1.886379  0  0  -0.630468  0  2.136386  0  0  -0.650603  0  2.123728  0  0  -0.355761  -0.616512  0  2.144726  0
O  O91  1  0.01858165  0.16529869  0.34955801  1  0  -0.675973  0  1.88634  0  0  -0.630422  0  2.13635  0  0  -0.650567  0  2.123711  0  0  -0.355728  -0.616464  0  2.144685  0
O  O92  1  0.51858394  0.16529350  0.15044400  1  0  -0.676014  0  1.886399  0  0  -0.630463  0  2.136411  0  0  -0.650597  0  2.123755  0  0  -0.355774  -0.616517  0  2.144747  0
O  O93  1  0.98141785  0.83470088  0.65044234  1  0  -0.67597  0  1.88635  0  0  -0.630419  0  2.136364  0  0  -0.650558  0  2.123719  0  0  -0.355727  -0.616465  0  2.144699  0
O  O94  1  0.20268499  0.65475812  0.88814762  1  0  -0.72592  0  2.052523  0  0  -0.654851  0  2.32975  0  0  -0.67827  0  2.313666  0  0  -0.363241  -0.63861  0  2.339864  0
O  O95  1  0.29731964  0.34523971  0.38814634  1  0  -0.725887  0  2.05264  0  0  -0.654868  0  2.329924  0  0  -0.678288  0  2.313842  0  0  -0.363243  -0.638617  0  2.340029  0
O  O96  1  0.79731579  0.34524145  0.11185201  1  0  -0.725957  0  2.052551  0  0  -0.654844  0  2.329724  0  0  -0.678261  0  2.313635  0  0  -0.363236  -0.638604  0  2.339821  0
O  O97  1  0.70268083  0.65475869  0.61185257  1  0  -0.725892  0  2.0526  0  0  -0.654861  0  2.329881  0  0  -0.678283  0  2.313798  0  0  -0.363223  -0.638607  0  2.339973  0
O  O98  1  0.47607658  0.56473537  0.89675567  1  0  -0.68174  0  1.941916  0  0  -0.627228  0  2.191577  0  0  -0.647623  0  2.178183  0  0  -0.34789  -0.613265  0  2.200718  0
O  O99  1  0.02393500  0.43527410  0.39675520  1  0  -0.681722  0  1.941995  0  0  -0.627219  0  2.191662  0  0  -0.647604  0  2.178255  0  0  -0.347913  -0.613256  0  2.200805  0
O  O100  1  0.52392323  0.43526536  0.10324467  1  0  -0.681693  0  1.941928  0  0  -0.627223  0  2.191626  0  0  -0.647622  0  2.178238  0  0  -0.3479  -0.613256  0  2.200742  0
O  O101  1  0.97606737  0.56472663  0.60324514  1  0  -0.681716  0  1.941959  0  0  -0.627226  0  2.191651  0  0  -0.647616  0  2.178248  0  0  -0.347926  -0.613268  0  2.200793  0
