# generated using pymatgen
data_TlH5C7N4
_symmetry_space_group_name_H-M   'P 1'
_cell_length_a   4.11720654
_cell_length_b   12.84887924
_cell_length_c   16.30013733
_cell_angle_alpha   102.21889965
_cell_angle_beta   97.23968962
_cell_angle_gamma   89.99182644
_symmetry_Int_Tables_number   1
_chemical_formula_structural   TlH5C7N4
_chemical_formula_sum   'Tl4 H20 C28 N16'
_cell_volume   835.73521046
_cell_formula_units_Z   4
loop_
 _symmetry_equiv_pos_site_id
 _symmetry_equiv_pos_as_xyz
  1  'x, y, z'
loop_
 _atom_site_type_symbol
 _atom_site_label
 _atom_site_symmetry_multiplicity
 _atom_site_fract_x
 _atom_site_fract_y
 _atom_site_fract_z
 _atom_site_occupancy
 _atom_site_hle17_bader_spin_density
 _atom_site_hle17_ddec_charge
 _atom_site_hle17_ddec_spin_density
 _atom_site_hle17_ddec_sum_bond_order
 _atom_site_hle17_magmom
 _atom_site_hse06_10hf_bader_spin_density
 _atom_site_hse06_10hf_ddec_charge
 _atom_site_hse06_10hf_ddec_spin_density
 _atom_site_hse06_10hf_ddec_sum_bond_order
 _atom_site_hse06_10hf_magmom
 _atom_site_hse06_bader_spin_density
 _atom_site_hse06_ddec_charge
 _atom_site_hse06_ddec_spin_density
 _atom_site_hse06_ddec_sum_bond_order
 _atom_site_hse06_magmom
 _atom_site_pbe_bader_spin_density
 _atom_site_pbe_cm5_charge
 _atom_site_pbe_ddec_charge
 _atom_site_pbe_ddec_spin_density
 _atom_site_pbe_ddec_sum_bond_order
 _atom_site_pbe_magmom
Tl  Tl0  1  0.47637625  0.09941061  0.91529853  1  0  0.74889  0  0.840795  0  0  0.597944  0  1.148702  0  0  0.629404  0  1.129711  0  0  0.410597  0.574698  0  1.16223  0
Tl  Tl1  1  0.56160361  0.40059976  0.08462173  1  0  0.749104  0  0.84014  0  0  0.598653  0  1.147061  0  0  0.629842  0  1.128552  0  0  0.410783  0.57544  0  1.160534  0
Tl  Tl2  1  0.52363597  0.90059062  0.08470213  1  0  0.748912  0  0.840783  0  0  0.597971  0  1.148694  0  0  0.629431  0  1.129703  0  0  0.410598  0.574708  0  1.16225  0
Tl  Tl3  1  0.43839865  0.59939984  0.91537716  1  0  0.749077  0  0.840172  0  0  0.598618  0  1.1471  0  0  0.629808  0  1.128591  0  0  0.410779  0.575405  0  1.160573  0
H  H4  1  0.42436402  0.21306387  0.68102415  1  0  0.094187  0  0.959948  0  0  0.10227  0  1.027492  0  0  0.105565  0  1.025324  0  0  0.101569  0.099942  0  1.029003  0
H  H5  1  0.74474375  0.28678686  0.31895491  1  0  0.093984  0  0.959265  0  0  0.10206  0  1.026962  0  0  0.105361  0  1.024811  0  0  0.101288  0.099702  0  1.028505  0
H  H6  1  0.57562626  0.78693742  0.31897832  1  0  0.094214  0  0.959897  0  0  0.102272  0  1.02747  0  0  0.105565  0  1.025301  0  0  0.101573  0.099943  0  1.028977  0
H  H7  1  0.25526110  0.71321436  0.68104491  1  0  0.094008  0  0.959215  0  0  0.102087  0  1.026902  0  0  0.105385  0  1.024756  0  0  0.101305  0.099714  0  1.028458  0
H  H8  1  0.13467770  0.24710847  0.54554919  1  0  0.079222  0  0.9811  0  0  0.089792  0  1.044471  0  0  0.091828  0  1.044743  0  0  0.095058  0.088318  0  1.044359  0
H  H9  1  0.59000645  0.25291128  0.45443177  1  0  0.079568  0  0.981122  0  0  0.089862  0  1.04459  0  0  0.091869  0  1.044896  0  0  0.095496  0.088443  0  1.044418  0
H  H10  1  0.86531704  0.75288799  0.45445084  1  0  0.079318  0  0.981032  0  0  0.089877  0  1.044423  0  0  0.091901  0  1.044724  0  0  0.095103  0.088409  0  1.04429  0
H  H11  1  0.40999844  0.74709071  0.54556755  1  0  0.079557  0  0.981083  0  0  0.089856  0  1.044544  0  0  0.091865  0  1.044845  0  0  0.095487  0.088433  0  1.044375  0
H  H12  1  0.18139966  0.42573073  0.51137974  1  0  0.080274  0  0.961218  0  0  0.092388  0  1.022586  0  0  0.094866  0  1.021805  0  0  0.097649  0.090597  0  1.023211  0
H  H13  1  0.67024432  0.07422756  0.48864935  1  0  0.080362  0  0.961636  0  0  0.092364  0  1.022999  0  0  0.094788  0  1.022294  0  0  0.097815  0.090596  0  1.02359  0
H  H14  1  0.81860217  0.57426330  0.48861830  1  0  0.080264  0  0.961293  0  0  0.09238  0  1.022653  0  0  0.094847  0  1.021881  0  0  0.097661  0.090597  0  1.023246  0
H  H15  1  0.32974596  0.92577524  0.51135028  1  0  0.080395  0  0.96161  0  0  0.092353  0  1.023011  0  0  0.094776  0  1.022309  0  0  0.097845  0.090589  0  1.023599  0
H  H16  1  0.52075196  0.57002900  0.61247783  1  0  0.08314  0  0.958655  0  0  0.097739  0  1.014088  0  0  0.100139  0  1.013327  0  0  0.099541  0.095969  0  1.01477  0
H  H17  1  0.90873133  0.92987801  0.38756558  1  0  0.082267  0  0.95996  0  0  0.09682  0  1.015495  0  0  0.099208  0  1.014732  0  0  0.099489  0.095099  0  1.016126  0
H  H18  1  0.47925226  0.42996574  0.38751731  1  0  0.0831  0  0.958661  0  0  0.097684  0  1.014118  0  0  0.100084  0  1.013357  0  0  0.099523  0.09592  0  1.014793  0
H  H19  1  0.09126383  0.07012402  0.61243530  1  0  0.082246  0  0.959962  0  0  0.096812  0  1.015487  0  0  0.0992  0  1.014725  0  0  0.0995  0.09509  0  1.016118  0
H  H20  1  0.80917925  0.53657064  0.74598627  1  0  0.086654  0  0.98065  0  0  0.091647  0  1.055086  0  0  0.094943  0  1.052958  0  0  0.097087  0.089328  0  1.056567  0
H  H21  1  0.06404047  0.96317753  0.25406110  1  0  0.085912  0  0.981047  0  0  0.091038  0  1.055482  0  0  0.094304  0  1.053412  0  0  0.096817  0.088731  0  1.056949  0
H  H22  1  0.19081549  0.46342733  0.25401092  1  0  0.086673  0  0.980709  0  0  0.091646  0  1.05514  0  0  0.094942  0  1.053014  0  0  0.097088  0.089322  0  1.056622  0
H  H23  1  0.93597433  0.03682455  0.74594160  1  0  0.085901  0  0.98109  0  0  0.091035  0  1.055517  0  0  0.0943  0  1.053448  0  0  0.096851  0.088728  0  1.056985  0
C  C24  1  0.79925134  0.34934748  0.80107023  1  0  0.280852  0  3.793813  0  0  0.259045  0  4.058081  0  0  0.269029  0  4.075258  0  0  0.209691  0.252273  0  4.046435  0
C  C25  1  0.99924021  0.15052012  0.19890405  1  0  0.279891  0  3.796196  0  0  0.257732  0  4.060529  0  0  0.267711  0  4.077703  0  0  0.209173  0.250966  0  4.048883  0
C  C26  1  0.20073147  0.65065295  0.19893005  1  0  0.28087  0  3.793644  0  0  0.258996  0  4.058031  0  0  0.268981  0  4.075207  0  0  0.209685  0.252228  0  4.046376  0
C  C27  1  0.00077212  0.84948195  0.80109796  1  0  0.279754  0  3.796346  0  0  0.257574  0  4.060723  0  0  0.26754  0  4.077917  0  0  0.209189  0.25081  0  4.049072  0
C  C28  1  0.63209062  0.37199816  0.72251866  1  0  0.008691  0  3.78968  0  0  0.028571  0  4.018299  0  0  0.026866  0  4.041797  0  0  -0.005702  0.029656  0  4.002396  0
C  C29  1  0.91073425  0.12781706  0.27747222  1  0  0.008264  0  3.791841  0  0  0.02892  0  4.019472  0  0  0.027241  0  4.042964  0  0  -0.005459  0.029995  0  4.003564  0
C  C30  1  0.36789950  0.62800227  0.27748122  1  0  0.008847  0  3.789439  0  0  0.028692  0  4.018097  0  0  0.026987  0  4.041593  0  0  -0.005645  0.029774  0  4.002192  0
C  C31  1  0.08927797  0.87218417  0.72252843  1  0  0.008291  0  3.791779  0  0  0.028942  0  4.019442  0  0  0.027267  0  4.04294  0  0  -0.005488  0.030016  0  4.003525  0
C  C32  1  0.44361782  0.29080403  0.66497733  1  0  -0.087321  0  3.717305  0  0  -0.111273  0  3.96437  0  0  -0.112948  0  3.984041  0  0  -0.085559  -0.109983  0  3.950973  0
C  C33  1  0.77986464  0.20905779  0.33503638  1  0  -0.087186  0  3.717165  0  0  -0.111342  0  3.963888  0  0  -0.11305  0  3.983555  0  0  -0.085711  -0.11002  0  3.950525  0
C  C34  1  0.55637470  0.70919485  0.33502423  1  0  -0.087388  0  3.717106  0  0  -0.111291  0  3.964189  0  0  -0.112958  0  3.983851  0  0  -0.085575  -0.110006  0  3.9508  0
C  C35  1  0.22014267  0.79094419  0.66496240  1  0  -0.087257  0  3.717209  0  0  -0.111409  0  3.963933  0  0  -0.113117  0  3.983598  0  0  -0.085728  -0.110076  0  3.950575  0
C  C36  1  0.28236024  0.31024061  0.58963252  1  0  -0.071667  0  3.790016  0  0  -0.080842  0  4.035346  0  0  -0.083003  0  4.057519  0  0  -0.093207  -0.079338  0  4.020231  0
C  C37  1  0.69366836  0.18971529  0.41039782  1  0  -0.071679  0  3.790971  0  0  -0.080582  0  4.036394  0  0  -0.082724  0  4.05856  0  0  -0.09322  -0.079112  0  4.021289  0
C  C38  1  0.71763466  0.68975671  0.41037010  1  0  -0.071782  0  3.789987  0  0  -0.080974  0  4.035365  0  0  -0.083138  0  4.057525  0  0  -0.093262  -0.079472  0  4.020252  0
C  C39  1  0.30633408  0.81028670  0.58960143  1  0  -0.071636  0  3.790979  0  0  -0.080534  0  4.036373  0  0  -0.082672  0  4.058529  0  0  -0.093234  -0.079065  0  4.021266  0
C  C40  1  0.30792373  0.41080137  0.57054673  1  0  -0.075653  0  3.777929  0  0  -0.091732  0  4.027993  0  0  -0.093579  0  4.04993  0  0  -0.093278  -0.090316  0  4.012956  0
C  C41  1  0.73788266  0.08915120  0.42950196  1  0  -0.076324  0  3.778576  0  0  -0.092173  0  4.028633  0  0  -0.093976  0  4.050519  0  0  -0.093749  -0.090775  0  4.013638  0
C  C42  1  0.69207577  0.58919424  0.42945147  1  0  -0.075723  0  3.778104  0  0  -0.091797  0  4.028192  0  0  -0.093635  0  4.050126  0  0  -0.093323  -0.090369  0  4.013149  0
C  C43  1  0.26210999  0.91085079  0.57049700  1  0  -0.076398  0  3.778526  0  0  -0.092213  0  4.028602  0  0  -0.094015  0  4.050481  0  0  -0.093784  -0.090822  0  4.013613  0
C  C44  1  0.49611280  0.49175570  0.62735319  1  0  -0.070003  0  3.784723  0  0  -0.080221  0  4.029001  0  0  -0.08286  0  4.051992  0  0  -0.091353  -0.07835  0  4.013253  0
C  C45  1  0.86929452  0.00816128  0.37269854  1  0  -0.06968  0  3.785611  0  0  -0.080055  0  4.030376  0  0  -0.082662  0  4.053336  0  0  -0.091631  -0.078229  0  4.014653  0
C  C46  1  0.50388686  0.50824229  0.37264477  1  0  -0.069835  0  3.784661  0  0  -0.080054  0  4.028911  0  0  -0.082694  0  4.051901  0  0  -0.091321  -0.078193  0  4.013162  0
C  C47  1  0.13070309  0.99184076  0.62730241  1  0  -0.069616  0  3.785504  0  0  -0.079998  0  4.030253  0  0  -0.082603  0  4.053211  0  0  -0.09163  -0.078172  0  4.014535  0
C  C48  1  0.65739027  0.47305593  0.70322015  1  0  -0.107108  0  3.737761  0  0  -0.123435  0  3.976654  0  0  -0.126575  0  3.999751  0  0  -0.087681  -0.121099  0  3.960822  0
C  C49  1  0.95491963  0.02676325  0.29679442  1  0  -0.105337  0  3.738039  0  0  -0.121923  0  3.976695  0  0  -0.125095  0  3.999858  0  0  -0.086872  -0.119591  0  3.96087  0
C  C50  1  0.34259966  0.52694285  0.29677763  1  0  -0.107253  0  3.737676  0  0  -0.12349  0  3.9765  0  0  -0.126631  0  3.999597  0  0  -0.087671  -0.121149  0  3.960671  0
C  C51  1  0.04508291  0.97323957  0.70320618  1  0  -0.105309  0  3.737914  0  0  -0.121904  0  3.976583  0  0  -0.125076  0  3.999746  0  0  -0.08687  -0.119572  0  3.96076  0
N  N52  1  0.86642355  0.25064406  0.81394537  1  0  -0.323008  0  2.948724  0  0  -0.292215  0  3.214882  0  0  -0.303338  0  3.230797  0  0  -0.223018  -0.284527  0  3.203849  0
N  N53  1  0.05348130  0.24926655  0.18610277  1  0  -0.322927  0  2.949861  0  0  -0.292293  0  3.216334  0  0  -0.303357  0  3.232188  0  0  -0.222679  -0.284623  0  3.20531  0
N  N54  1  0.13356168  0.74935636  0.18605437  1  0  -0.322941  0  2.948671  0  0  -0.292127  0  3.214861  0  0  -0.30325  0  3.230776  0  0  -0.222965  -0.284438  0  3.203821  0
N  N55  1  0.94653343  0.75073549  0.81389808  1  0  -0.322858  0  2.949761  0  0  -0.292218  0  3.216239  0  0  -0.303277  0  3.232095  0  0  -0.222695  -0.284548  0  3.205209  0
N  N56  1  0.01846678  0.26642084  0.89368054  1  0  -0.176789  0  3.175016  0  0  -0.128286  0  3.454792  0  0  -0.135726  0  3.475407  0  0  -0.105781  -0.122555  0  3.440126  0
N  N57  1  0.12532113  0.23359589  0.10631743  1  0  -0.177495  0  3.174484  0  0  -0.129033  0  3.454376  0  0  -0.136445  0  3.474978  0  0  -0.106384  -0.1233  0  3.439712  0
N  N58  1  0.98153537  0.73357794  0.10631699  1  0  -0.176844  0  3.174987  0  0  -0.128343  0  3.454759  0  0  -0.135785  0  3.475374  0  0  -0.105801  -0.122608  0  3.440087  0
N  N59  1  0.87468858  0.76640455  0.89368303  1  0  -0.177547  0  3.174427  0  0  -0.129083  0  3.454323  0  0  -0.136495  0  3.474924  0  0  -0.106417  -0.123348  0  3.439652  0
N  N60  1  0.04241726  0.36978529  0.92842765  1  0  -0.164973  0  3.129237  0  0  -0.128361  0  3.403772  0  0  -0.134443  0  3.425179  0  0  -0.10338  -0.12359  0  3.388495  0
N  N61  1  0.11438399  0.13025069  0.07147812  1  0  -0.164177  0  3.127081  0  0  -0.127523  0  3.401655  0  0  -0.133671  0  3.423129  0  0  -0.102802  -0.122743  0  3.386366  0
N  N62  1  0.95758739  0.63021351  0.07157118  1  0  -0.164933  0  3.129184  0  0  -0.128311  0  3.403713  0  0  -0.134393  0  3.42512  0  0  -0.103386  -0.123541  0  3.388433  0
N  N63  1  0.88562822  0.86974978  0.92852365  1  0  -0.164162  0  3.127022  0  0  -0.127516  0  3.401613  0  0  -0.133665  0  3.423089  0  0  -0.102808  -0.122737  0  3.386328  0
N  N64  1  0.90617252  0.42413771  0.87119165  1  0  -0.38541  0  3.098401  0  0  -0.32332  0  3.359568  0  0  -0.340263  0  3.380206  0  0  -0.222346  -0.311343  0  3.345056  0
N  N65  1  0.03570285  0.07581381  0.12869630  1  0  -0.38452  0  3.099635  0  0  -0.322223  0  3.360695  0  0  -0.339229  0  3.381443  0  0  -0.222228  -0.310236  0  3.346157  0
N  N66  1  0.09381749  0.57586112  0.12880799  1  0  -0.385519  0  3.098319  0  0  -0.323418  0  3.359524  0  0  -0.340362  0  3.380161  0  0  -0.222407  -0.311443  0  3.345012  0
N  N67  1  0.96431425  0.92418667  0.87130561  1  0  -0.384432  0  3.099536  0  0  -0.32213  0  3.360609  0  0  -0.339131  0  3.381358  0  0  -0.222193  -0.310148  0  3.346072  0
