# generated using pymatgen
data_AgH7C7(NO2)2
_symmetry_space_group_name_H-M   'P 1'
_cell_length_a   7.75623004
_cell_length_b   10.47675167
_cell_length_c   12.31756094
_cell_angle_alpha   115.13457107
_cell_angle_beta   108.09890118
_cell_angle_gamma   90.00706379
_symmetry_Int_Tables_number   1
_chemical_formula_structural   AgH7C7(NO2)2
_chemical_formula_sum   'Ag4 H28 C28 N8 O16'
_cell_volume   851.11101462
_cell_formula_units_Z   4
loop_
 _symmetry_equiv_pos_site_id
 _symmetry_equiv_pos_as_xyz
  1  'x, y, z'
loop_
 _atom_site_type_symbol
 _atom_site_label
 _atom_site_symmetry_multiplicity
 _atom_site_fract_x
 _atom_site_fract_y
 _atom_site_fract_z
 _atom_site_occupancy
 _atom_site_hle17_bader_spin_density
 _atom_site_hle17_ddec_charge
 _atom_site_hle17_ddec_spin_density
 _atom_site_hle17_ddec_sum_bond_order
 _atom_site_hle17_magmom
 _atom_site_hse06_10hf_bader_spin_density
 _atom_site_hse06_10hf_ddec_charge
 _atom_site_hse06_10hf_ddec_spin_density
 _atom_site_hse06_10hf_ddec_sum_bond_order
 _atom_site_hse06_10hf_magmom
 _atom_site_hse06_bader_spin_density
 _atom_site_hse06_ddec_charge
 _atom_site_hse06_ddec_spin_density
 _atom_site_hse06_ddec_sum_bond_order
 _atom_site_hse06_magmom
 _atom_site_pbe_bader_spin_density
 _atom_site_pbe_cm5_charge
 _atom_site_pbe_ddec_charge
 _atom_site_pbe_ddec_spin_density
 _atom_site_pbe_ddec_sum_bond_order
 _atom_site_pbe_magmom
Ag  Ag0  1  0.33563030  0.51547712  0.54370824  1  0  0.584405  0  1.361281  0  0  0.448359  0  1.793907  0  0  0.482171  0  1.742936  0  0  0.457563  0.424503  0  1.829289  0
Ag  Ag1  1  0.16444917  0.97212232  0.45639756  1  0  0.584242  0  1.359908  0  0  0.447817  0  1.79286  0  0  0.481723  0  1.741756  0  0  0.457369  0.423884  0  1.828536  0
Ag  Ag2  1  0.66437125  0.48452206  0.45629087  1  0  0.584396  0  1.361304  0  0  0.448352  0  1.793919  0  0  0.482163  0  1.742949  0  0  0.457572  0.424495  0  1.829314  0
Ag  Ag3  1  0.83555103  0.02787687  0.54360128  1  0  0.584245  0  1.359914  0  0  0.447822  0  1.792842  0  0  0.481717  0  1.741757  0  0  0.457367  0.423888  0  1.828514  0
H  H4  1  0.93000127  0.36270606  0.29408624  1  0  0.38852  0  0.918731  0  0  0.356709  0  0.996749  0  0  0.369649  0  0.982847  0  0  0.297601  0.347811  0  1.005372  0
H  H5  1  0.56964383  0.06825063  0.70588924  1  0  0.388705  0  0.918457  0  0  0.356743  0  0.996711  0  0  0.369661  0  0.982888  0  0  0.297618  0.34784  0  1.005358  0
H  H6  1  0.06999912  0.63729422  0.70591627  1  0  0.388539  0  0.918709  0  0  0.35672  0  0.996739  0  0  0.369661  0  0.982834  0  0  0.297593  0.347822  0  1.005357  0
H  H7  1  0.43035636  0.93174856  0.29411041  1  0  0.388684  0  0.918453  0  0  0.356719  0  0.99671  0  0  0.369635  0  0.982915  0  0  0.297615  0.347818  0  1.005354  0
H  H8  1  0.59753093  0.93240841  0.06603792  1  0  0.329525  0  0.919273  0  0  0.30513  0  0.990699  0  0  0.314369  0  0.982314  0  0  0.316275  0.298597  0  0.99666  0
H  H9  1  0.90248940  0.86599905  0.93390255  1  0  0.330223  0  0.918689  0  0  0.305358  0  0.990819  0  0  0.314675  0  0.982352  0  0  0.316351  0.298758  0  0.996855  0
H  H10  1  0.40246874  0.06759504  0.93396234  1  0  0.329531  0  0.919332  0  0  0.305137  0  0.990759  0  0  0.314376  0  0.982374  0  0  0.31628  0.298601  0  0.996731  0
H  H11  1  0.09750964  0.13400122  0.06609888  1  0  0.330233  0  0.918676  0  0  0.305376  0  0.990802  0  0  0.314695  0  0.982334  0  0  0.31635  0.298774  0  0.996841  0
H  H12  1  0.63203622  0.71080487  0.09089468  1  0  0.099752  0  0.930415  0  0  0.115721  0  0.987611  0  0  0.117487  0  0.986942  0  0  0.104286  0.114384  0  0.988125  0
H  H13  1  0.86810515  0.61928654  0.90899404  1  0  0.09965  0  0.930817  0  0  0.115726  0  0.987761  0  0  0.117492  0  0.987095  0  0  0.10445  0.114363  0  0.988256  0
H  H14  1  0.36796084  0.28919218  0.90910278  1  0  0.099747  0  0.930419  0  0  0.115709  0  0.987608  0  0  0.117475  0  0.98694  0  0  0.104278  0.114367  0  0.988125  0
H  H15  1  0.13189390  0.38071372  0.09100577  1  0  0.099624  0  0.930839  0  0  0.115706  0  0.987769  0  0  0.117475  0  0.987104  0  0  0.10444  0.114341  0  0.988261  0
H  H16  1  0.68307177  0.76149629  0.25479110  1  0  0.110385  0  0.912379  0  0  0.13021  0  0.965213  0  0  0.131326  0  0.965453  0  0  0.109657  0.129664  0  0.964902  0
H  H17  1  0.81682505  0.50629796  0.74505319  1  0  0.110775  0  0.912712  0  0  0.130168  0  0.965989  0  0  0.131263  0  0.966286  0  0  0.109971  0.129602  0  0.965655  0
H  H18  1  0.31692864  0.23850396  0.74520653  1  0  0.110377  0  0.912445  0  0  0.130192  0  0.965276  0  0  0.131307  0  0.965517  0  0  0.109656  0.129643  0  0.964965  0
H  H19  1  0.18317713  0.49370443  0.25494637  1  0  0.110775  0  0.91275  0  0  0.130124  0  0.96607  0  0  0.131218  0  0.966369  0  0  0.109954  0.129558  0  0.965733  0
H  H20  1  0.97055381  0.66860533  0.12220581  1  0  0.100449  0  0.958304  0  0  0.119756  0  1.020726  0  0  0.121568  0  1.02058  0  0  0.085644  0.118483  0  1.020773  0
H  H21  1  0.52940903  0.54608618  0.87770671  1  0  0.099987  0  0.9588  0  0  0.119594  0  1.020824  0  0  0.121431  0  1.020658  0  0  0.085557  0.118323  0  1.020857  0
H  H22  1  0.02944931  0.33139493  0.87779480  1  0  0.100459  0  0.958285  0  0  0.11977  0  1.020706  0  0  0.121581  0  1.020559  0  0  0.08565  0.118493  0  1.020752  0
H  H23  1  0.47059053  0.45390980  0.12229005  1  0  0.099966  0  0.958771  0  0  0.119608  0  1.020752  0  0  0.121446  0  1.020587  0  0  0.085578  0.118338  0  1.020786  0
H  H24  1  0.84129653  0.55714928  0.15572443  1  0  0.113843  0  0.950072  0  0  0.135581  0  1.006737  0  0  0.137544  0  1.006615  0  0  0.091939  0.133781  0  1.007463  0
H  H25  1  0.65854498  0.40107656  0.84427466  1  0  0.113561  0  0.949552  0  0  0.135399  0  1.006188  0  0  0.137353  0  1.006082  0  0  0.091536  0.133598  0  1.006901  0
H  H26  1  0.15870408  0.44285205  0.84427688  1  0  0.113841  0  0.95011  0  0  0.135581  0  1.006772  0  0  0.137543  0  1.006652  0  0  0.091945  0.13378  0  1.007499  0
H  H27  1  0.34145751  0.59892049  0.15572306  1  0  0.113557  0  0.949542  0  0  0.135388  0  1.006202  0  0  0.137342  0  1.006097  0  0  0.091527  0.133583  0  1.006912  0
H  H28  1  0.99983063  0.70686350  0.28231822  1  0  0.093008  0  0.977843  0  0  0.110779  0  1.052427  0  0  0.113182  0  1.050014  0  0  0.079219  0.108928  0  1.054314  0
H  H29  1  0.50014634  0.42430086  0.71761584  1  0  0.093026  0  0.97764  0  0  0.110614  0  1.052523  0  0  0.113018  0  1.050121  0  0  0.079109  0.108752  0  1.054419  0
H  H30  1  0.00016768  0.29313997  0.71768340  1  0  0.093003  0  0.97781  0  0  0.110777  0  1.052401  0  0  0.113182  0  1.049986  0  0  0.079214  0.108924  0  1.054294  0
H  H31  1  0.49985479  0.57569619  0.28238079  1  0  0.093058  0  0.977644  0  0  0.110642  0  1.052531  0  0  0.113045  0  1.050129  0  0  0.079113  0.108775  0  1.054434  0
C  C32  1  0.94483428  0.12933486  0.31259113  1  0  0.013195  0  3.761791  0  0  0.001957  0  4.020244  0  0  0.002548  0  4.041365  0  0  0.079179  0.001587  0  4.006216  0
C  C33  1  0.55502718  0.81640230  0.68739764  1  0  0.013721  0  3.761178  0  0  0.003194  0  4.019275  0  0  0.003834  0  4.040407  0  0  0.079706  0.002811  0  4.005285  0
C  C34  1  0.05516726  0.87066433  0.68740879  1  0  0.013228  0  3.761827  0  0  0.002037  0  4.020194  0  0  0.002632  0  4.041311  0  0  0.079192  0.00167  0  4.006146  0
C  C35  1  0.44497343  0.18359903  0.31260449  1  0  0.01372  0  3.761102  0  0  0.003186  0  4.019236  0  0  0.003828  0  4.040368  0  0  0.079696  0.002802  0  4.005251  0
C  C36  1  0.79876613  0.11702216  0.20630300  1  0  -0.018161  0  3.712328  0  0  -0.032958  0  3.978569  0  0  -0.036142  0  3.997837  0  0  0.077729  -0.031347  0  3.966034  0
C  C37  1  0.70105385  0.91031762  0.79367005  1  0  -0.018313  0  3.7129  0  0  -0.034099  0  3.98006  0  0  -0.037403  0  3.999402  0  0  0.077148  -0.032426  0  3.967475  0
C  C38  1  0.20123447  0.88297917  0.79369831  1  0  -0.018184  0  3.712376  0  0  -0.03299  0  3.978552  0  0  -0.036175  0  3.997821  0  0  0.077747  -0.031382  0  3.966011  0
C  C39  1  0.29894697  0.08968479  0.20633331  1  0  -0.01833  0  3.712883  0  0  -0.034109  0  3.98005  0  0  -0.03742  0  3.9994  0  0  0.07715  -0.032437  0  3.967471  0
C  C40  1  0.80257897  0.90847352  0.21455074  1  0  0.421347  0  3.631657  0  0  0.387016  0  3.90434  0  0  0.404209  0  3.918089  0  0  0.24098  0.375615  0  3.894747  0
C  C41  1  0.69751000  0.69353052  0.78542244  1  0  0.422487  0  3.633289  0  0  0.388658  0  3.905275  0  0  0.405878  0  3.919008  0  0  0.241102  0.37719  0  3.89571  0
C  C42  1  0.19742258  0.09152567  0.78544837  1  0  0.421375  0  3.631719  0  0  0.386981  0  3.904472  0  0  0.404174  0  3.918222  0  0  0.240975  0.375582  0  3.894869  0
C  C43  1  0.30248904  0.30646975  0.21457818  1  0  0.422501  0  3.633283  0  0  0.388712  0  3.905188  0  0  0.405934  0  3.91892  0  0  0.241126  0.377248  0  3.895617  0
C  C44  1  0.08692762  0.25203939  0.41315612  1  0  0.625012  0  3.926659  0  0  0.571958  0  4.215514  0  0  0.605746  0  4.210405  0  0  0.201724  0.54899  0  4.218316  0
C  C45  1  0.41288576  0.83855785  0.58676046  1  0  0.624793  0  3.926197  0  0  0.571417  0  4.215512  0  0  0.605158  0  4.210424  0  0  0.201085  0.548504  0  4.218263  0
C  C46  1  0.91307372  0.74795874  0.58684419  1  0  0.624918  0  3.926772  0  0  0.571836  0  4.215647  0  0  0.605624  0  4.210539  0  0  0.201666  0.548872  0  4.218441  0
C  C47  1  0.58711463  0.16144241  0.41324043  1  0  0.624903  0  3.92604  0  0  0.57147  0  4.215436  0  0  0.605211  0  4.210346  0  0  0.20111  0.548556  0  4.218191  0
C  C48  1  0.72661473  0.21742191  0.15475742  1  0  0.644573  0  3.87787  0  0  0.589964  0  4.190718  0  0  0.624106  0  4.180612  0  0  0.226496  0.567175  0  4.196632  0
C  C49  1  0.77311506  0.06222805  0.84519279  1  0  0.644689  0  3.878465  0  0  0.590934  0  4.190468  0  0  0.625156  0  4.180204  0  0  0.225804  0.568083  0  4.19651  0
C  C50  1  0.27338745  0.78258049  0.84524458  1  0  0.644491  0  3.877986  0  0  0.589944  0  4.190728  0  0  0.624086  0  4.180622  0  0  0.226443  0.567161  0  4.196633  0
C  C51  1  0.22688419  0.93777328  0.15480825  1  0  0.644734  0  3.878376  0  0  0.590983  0  4.190373  0  0  0.625207  0  4.180109  0  0  0.225812  0.56813  0  4.196417  0
C  C52  1  0.74350690  0.75826554  0.18377437  1  0  -0.167896  0  3.691286  0  0  -0.202727  0  3.94351  0  0  -0.205617  0  3.955027  0  0  -0.149672  -0.200652  0  3.935258  0
C  C53  1  0.75656989  0.57404016  0.81612984  1  0  -0.168688  0  3.693258  0  0  -0.203424  0  3.94542  0  0  -0.206347  0  3.957022  0  0  -0.150319  -0.201233  0  3.936994  0
C  C54  1  0.25649215  0.24173471  0.81622463  1  0  -0.167856  0  3.691315  0  0  -0.202621  0  3.943484  0  0  -0.20551  0  3.955001  0  0  -0.149642  -0.200542  0  3.935226  0
C  C55  1  0.24343030  0.42595903  0.18386982  1  0  -0.168632  0  3.693264  0  0  -0.203348  0  3.945418  0  0  -0.206274  0  3.957023  0  0  -0.150277  -0.201155  0  3.936985  0
C  C56  1  0.89826366  0.66748726  0.18560657  1  0  -0.272362  0  3.678482  0  0  -0.345894  0  3.918167  0  0  -0.349177  0  3.928802  0  0  -0.246057  -0.343176  0  3.911086  0
C  C57  1  0.60170728  0.48154147  0.81434494  1  0  -0.271475  0  3.677248  0  0  -0.345191  0  3.916741  0  0  -0.348467  0  3.927402  0  0  -0.245254  -0.342505  0  3.909612  0
C  C58  1  0.10173560  0.33251407  0.81439285  1  0  -0.27237  0  3.678452  0  0  -0.345927  0  3.918138  0  0  -0.349208  0  3.92877  0  0  -0.24608  -0.343209  0  3.911058  0
C  C59  1  0.39829406  0.51845664  0.18565293  1  0  -0.271493  0  3.677155  0  0  -0.345234  0  3.916668  0  0  -0.348511  0  3.927328  0  0  -0.24527  -0.342541  0  3.909534  0
N  N60  1  0.94469826  0.99925783  0.31496392  1  0  -0.44309  0  3.322124  0  0  -0.362922  0  3.611454  0  0  -0.387456  0  3.627351  0  0  -0.367665  -0.346273  0  3.600387  0
N  N61  1  0.55533568  0.68394557  0.68502212  1  0  -0.443556  0  3.323852  0  0  -0.363711  0  3.613161  0  0  -0.388209  0  3.628945  0  0  -0.367357  -0.347074  0  3.601956  0
N  N62  1  0.05530172  0.00074030  0.68503531  1  0  -0.443138  0  3.322135  0  0  -0.362966  0  3.611473  0  0  -0.387501  0  3.627367  0  0  -0.36769  -0.346314  0  3.600388  0
N  N63  1  0.44466336  0.31605469  0.31497850  1  0  -0.443585  0  3.323884  0  0  -0.363735  0  3.613175  0  0  -0.388231  0  3.628952  0  0  -0.36736  -0.347097  0  3.601974  0
N  N64  1  0.71357095  0.97750068  0.14763256  1  0  -0.334302  0  3.387261  0  0  -0.278911  0  3.624408  0  0  -0.295406  0  3.638661  0  0  -0.364877  -0.267812  0  3.615167  0
N  N65  1  0.78641419  0.82944414  0.85232710  1  0  -0.335668  0  3.387141  0  0  -0.280085  0  3.625099  0  0  -0.29669  0  3.639393  0  0  -0.365281  -0.268948  0  3.615901  0
N  N66  1  0.28642986  0.02250171  0.85236836  1  0  -0.334321  0  3.387305  0  0  -0.278943  0  3.624498  0  0  -0.295438  0  3.638752  0  0  -0.364909  -0.26785  0  3.61527  0
N  N67  1  0.21358485  0.17055613  0.14767352  1  0  -0.335676  0  3.387128  0  0  -0.280112  0  3.625042  0  0  -0.296717  0  3.639336  0  0  -0.365277  -0.268968  0  3.615839  0
O  O68  1  0.20564050  0.24010879  0.50220906  1  0  -0.580231  0  1.970115  0  0  -0.522652  0  2.21396  0  0  -0.548138  0  2.20227  0  0  -0.305742  -0.505202  0  2.221807  0
O  O69  1  0.29434997  0.73760637  0.49765793  1  0  -0.580254  0  1.969914  0  0  -0.522887  0  2.21413  0  0  -0.548332  0  2.20247  0  0  -0.305512  -0.505455  0  2.221907  0
O  O70  1  0.79436177  0.75988720  0.49778904  1  0  -0.580186  0  1.970122  0  0  -0.522595  0  2.213962  0  0  -0.548082  0  2.202274  0  0  -0.305708  -0.50515  0  2.221809  0
O  O71  1  0.70565021  0.26239282  0.50234253  1  0  -0.580292  0  1.969864  0  0  -0.522923  0  2.214135  0  0  -0.548368  0  2.202475  0  0  -0.305525  -0.505485  0  2.221913  0
O  O72  1  0.08235546  0.36956699  0.40037011  1  0  -0.610767  0  2.141206  0  0  -0.523245  0  2.392405  0  0  -0.554993  0  2.380699  0  0  -0.322679  -0.501007  0  2.399414  0
O  O73  1  0.41737345  0.96888964  0.59961948  1  0  -0.610479  0  2.140863  0  0  -0.522628  0  2.391891  0  0  -0.554375  0  2.38035  0  0  -0.322368  -0.500342  0  2.398768  0
O  O74  1  0.91764473  0.63043221  0.59963117  1  0  -0.610689  0  2.141216  0  0  -0.523162  0  2.392422  0  0  -0.554909  0  2.380714  0  0  -0.32265  -0.500929  0  2.399432  0
O  O75  1  0.58262716  0.03111170  0.40038183  1  0  -0.610529  0  2.140854  0  0  -0.522629  0  2.39188  0  0  -0.554374  0  2.380345  0  0  -0.322375  -0.500342  0  2.398758  0
O  O76  1  0.81508951  0.34907359  0.21449882  1  0  -0.534137  0  2.09697  0  0  -0.483359  0  2.324813  0  0  -0.506047  0  2.309452  0  0  -0.317381  -0.468013  0  2.334699  0
O  O77  1  0.68454268  0.13416658  0.78548008  1  0  -0.53442  0  2.097014  0  0  -0.483631  0  2.324636  0  0  -0.50635  0  2.309305  0  0  -0.316778  -0.468203  0  2.334696  0
O  O78  1  0.18491088  0.65092668  0.78550369  1  0  -0.534142  0  2.096945  0  0  -0.483382  0  2.324755  0  0  -0.506068  0  2.309383  0  0  -0.317365  -0.468036  0  2.334631  0
O  O79  1  0.31545907  0.86583368  0.21452026  1  0  -0.534421  0  2.096976  0  0  -0.48363  0  2.324599  0  0  -0.50635  0  2.309284  0  0  -0.316783  -0.468204  0  2.334658  0
O  O80  1  0.58589852  0.17969499  0.05913775  1  0  -0.562994  0  1.982072  0  0  -0.519998  0  2.214082  0  0  -0.540513  0  2.204657  0  0  -0.294078  -0.505557  0  2.21985  0
O  O81  1  0.91386536  0.12003301  0.94076025  1  0  -0.56308  0  1.981189  0  0  -0.520453  0  2.213414  0  0  -0.5409  0  2.203725  0  0  -0.294072  -0.506008  0  2.21928  0
O  O82  1  0.41410073  0.82030634  0.94086330  1  0  -0.562958  0  1.982151  0  0  -0.519977  0  2.214115  0  0  -0.540491  0  2.204688  0  0  -0.294066  -0.505548  0  2.219887  0
O  O83  1  0.08613390  0.87996831  0.05923998  1  0  -0.563101  0  1.98116  0  0  -0.520474  0  2.213382  0  0  -0.54092  0  2.20369  0  0  -0.294076  -0.506024  0  2.219243  0
