# generated using pymatgen
data_NiH18C8(IO2)2
_symmetry_space_group_name_H-M   'P 1'
_cell_length_a   6.88715441
_cell_length_b   13.54641212
_cell_length_c   14.44780000
_cell_angle_alpha   90.00000000
_cell_angle_beta   90.00000000
_cell_angle_gamma   90.00000000
_symmetry_Int_Tables_number   1
_chemical_formula_structural   NiH18C8(IO2)2
_chemical_formula_sum   'Ni4 H72 C32 I8 O16'
_cell_volume   1347.92530078
_cell_formula_units_Z   4
loop_
 _symmetry_equiv_pos_site_id
 _symmetry_equiv_pos_as_xyz
  1  'x, y, z'
loop_
 _atom_site_type_symbol
 _atom_site_label
 _atom_site_symmetry_multiplicity
 _atom_site_fract_x
 _atom_site_fract_y
 _atom_site_fract_z
 _atom_site_occupancy
 _atom_site_hle17_ddec_charge
 _atom_site_hle17_ddec_spin_density
 _atom_site_hle17_ddec_sum_bond_order
 _atom_site_hle17_magmom
 _atom_site_hse06_10hf_ddec_charge
 _atom_site_hse06_10hf_ddec_spin_density
 _atom_site_hse06_10hf_ddec_sum_bond_order
 _atom_site_hse06_10hf_magmom
 _atom_site_hse06_ddec_charge
 _atom_site_hse06_ddec_spin_density
 _atom_site_hse06_ddec_sum_bond_order
 _atom_site_hse06_magmom
 _atom_site_pbe_bader_charge
 _atom_site_pbe_bader_spin_density
 _atom_site_pbe_cm5_charge
 _atom_site_pbe_ddec_charge
 _atom_site_pbe_ddec_spin_density
 _atom_site_pbe_ddec_sum_bond_order
 _atom_site_pbe_magmom
Ni  Ni0  1  0.99999791  0.24987354  0.25000000  1  0.603896  1.556796  2.01097  1.348  0.635211  1.715564  2.371048  1.54  0.759096  1.805968  2.287618  1.663  0.911165  1.456416  0.43784  0.552261  1.645756  2.427775  1.449
Ni  Ni1  1  0.50000186  0.25012601  0.75000069  1  0.603861  1.556801  2.011028  1.348  0.63522  1.715567  2.371117  1.54  0.759107  1.805968  2.287692  1.663  0.911109  1.45641  0.437849  0.55227  1.645748  2.427843  1.449
Ni  Ni2  1  0.00000145  0.75012851  0.74999931  1  0.603922  1.556796  2.010989  1.348  0.635234  1.715569  2.371026  1.54  0.759158  1.805971  2.287559  1.663  0.911157  1.456421  0.437846  0.552283  1.645763  2.427762  1.449
Ni  Ni3  1  0.49999750  0.74987457  0.25000000  1  0.603855  1.5568  2.011059  1.348  0.63518  1.715568  2.371119  1.54  0.759084  1.805968  2.287685  1.663  0.911141  1.456412  0.437842  0.552228  1.645749  2.427854  1.449
H  H4  1  0.03771950  0.33952680  0.01554839  1  0.071463  -0.000234  0.966009  0.0  0.087405  -0.000145  1.039082  0.0  0.088953  -0.000164  1.037293  0.0  0.031459  0.000221  0.084586  0.086228  -0.000101  1.040372  0.0
H  H5  1  0.46227655  0.16047053  0.51555046  1  0.071487  -0.000236  0.96598  0.0  0.087437  -0.000145  1.03904  0.0  0.088983  -0.000164  1.037254  0.0  0.031526  0.000221  0.084634  0.086261  -0.000101  1.040329  0.0
H  H6  1  0.53772716  0.16046684  0.98445092  1  0.071503  -0.000238  0.96605  0.0  0.087458  -0.000145  1.03908  0.0  0.089001  -0.000164  1.037302  0.0  0.031594  0.000221  0.084635  0.086281  -0.000101  1.040368  0.0
H  H7  1  0.96227986  0.33953123  0.48444954  1  0.071521  -0.000236  0.96599  0.0  0.087474  -0.000145  1.039041  0.0  0.089021  -0.000164  1.037254  0.0  0.031575  0.000221  0.084634  0.086298  -0.000101  1.04033  0.0
H  H8  1  0.96228422  0.66046935  0.98445230  1  0.071446  -0.000237  0.965998  0.0  0.087402  -0.000145  1.039063  0.0  0.088949  -0.000164  1.037274  0.0  0.031518  0.000221  0.084598  0.086225  -0.000101  1.040354  0.0
H  H9  1  0.53771990  0.83953152  0.48445092  1  0.07149  -0.000231  0.966063  0.0  0.087446  -0.000145  1.039104  0.0  0.088994  -0.000164  1.037315  0.0  0.031542  0.000221  0.084608  0.086269  -0.000101  1.040394  0.0
H  H10  1  0.46227946  0.83953078  0.01554839  1  0.071503  -0.000238  0.966003  0.0  0.087462  -0.000145  1.039048  0.0  0.08901  -0.000164  1.037258  0.0  0.031541  0.000221  0.084606  0.086286  -0.000101  1.040335  0.0
H  H11  1  0.03772240  0.66046713  0.51555046  1  0.0715  -0.000233  0.966031  0.0  0.087449  -0.000145  1.039086  0.0  0.088994  -0.000164  1.037303  0.0  0.031586  0.000221  0.084634  0.086273  -0.000101  1.040373  0.0
H  H12  1  0.25840861  0.33327201  0.07979900  1  0.089225  -6.1e-05  0.966417  0.0  0.10248  3.7e-05  1.040544  0.0  0.103486  -9e-06  1.039268  0.0  0.05846  0.000523  0.091911  0.101575  9e-05  1.041659  0.0
H  H13  1  0.24158889  0.16672607  0.57979969  1  0.089257  -6e-05  0.96641  0.0  0.102515  3.7e-05  1.040514  0.0  0.103536  -9e-06  1.039223  0.0  0.058368  0.000523  0.091926  0.10161  9e-05  1.041627  0.0
H  H14  1  0.75841628  0.16672311  0.92020100  1  0.089236  -6.2e-05  0.966454  0.0  0.1025  3.7e-05  1.040539  0.0  0.103518  -9e-06  1.039253  0.0  0.058373  0.000523  0.091937  0.101595  9e-05  1.041653  0.0
H  H15  1  0.74158639  0.33327570  0.42020100  1  0.089248  -5.9e-05  0.966434  0.0  0.102507  3.7e-05  1.040541  0.0  0.103507  -9e-06  1.039276  0.0  0.058381  0.000523  0.091936  0.101603  9e-05  1.041654  0.0
H  H16  1  0.74159365  0.66672414  0.92020377  1  0.089281  -6.1e-05  0.966482  0.0  0.10249  3.7e-05  1.040643  0.0  0.103505  -9e-06  1.03936  0.0  0.058406  0.000523  0.09193  0.10159  9e-05  1.041744  0.0
H  H17  1  0.75841192  0.83327599  0.42020308  1  0.089295  -5.7e-05  0.966417  0.0  0.10251  3.7e-05  1.040572  0.0  0.10351  -9e-06  1.039304  0.0  0.058402  0.000523  0.091922  0.101605  9e-05  1.041685  0.0
H  H18  1  0.24158744  0.83327525  0.07979623  1  0.089262  -6.1e-05  0.966437  0.0  0.102529  3.7e-05  1.040527  0.0  0.10353  -9e-06  1.039258  0.0  0.058393  0.000523  0.091952  0.101624  9e-05  1.041641  0.0
H  H19  1  0.25841587  0.66672340  0.57979762  1  0.089248  -6e-05  0.966433  0.0  0.10251  3.7e-05  1.040541  0.0  0.103512  -9e-06  1.039272  0.0  0.05839  0.000523  0.091933  0.101606  9e-05  1.041652  0.0
H  H20  1  0.16277114  0.45176464  0.04909329  1  0.073519  0.002023  0.975869  0.001  0.092104  0.001753  1.043721  0.001  0.094494  0.001211  1.040694  0.001  0.038233  0.004031  0.080633  0.090343  0.0022  1.046072  0.002
H  H21  1  0.33722345  0.04823270  0.54909606  1  0.073489  0.002023  0.975895  0.001  0.092091  0.001753  1.043725  0.001  0.094481  0.001211  1.0407  0.001  0.038119  0.004031  0.080608  0.090331  0.0022  1.046074  0.002
H  H22  1  0.66277591  0.04823048  0.95090256  1  0.073589  0.002024  0.975855  0.001  0.09213  0.001753  1.043739  0.001  0.094521  0.001211  1.040709  0.001  0.038081  0.004031  0.080625  0.090368  0.0022  1.04609  0.002
H  H23  1  0.83722531  0.45176759  0.45090464  1  0.073566  0.002023  0.975791  0.001  0.092117  0.001753  1.043684  0.001  0.094509  0.001211  1.040652  0.001  0.03811  0.00403  0.080613  0.090356  0.0022  1.046034  0.002
H  H24  1  0.83723112  0.54823151  0.95090533  1  0.073478  0.002024  0.975868  0.001  0.092074  0.001753  1.043717  0.001  0.094465  0.001211  1.04069  0.001  0.038198  0.004031  0.080619  0.090312  0.0022  1.046069  0.002
H  H25  1  0.66277300  0.95176862  0.45090464  1  0.073573  0.002027  0.975868  0.001  0.092142  0.001753  1.043726  0.001  0.094534  0.001211  1.040693  0.001  0.03817  0.004031  0.080631  0.090381  0.0022  1.046076  0.002
H  H26  1  0.33722491  0.95176788  0.04909398  1  0.073616  0.002024  0.975799  0.001  0.092141  0.001753  1.043715  0.001  0.094532  0.001211  1.040684  0.001  0.03816  0.004031  0.080634  0.09038  0.0022  1.046067  0.002
H  H27  1  0.16277114  0.54823077  0.54909675  1  0.073547  0.002025  0.975852  0.001  0.092103  0.001753  1.043736  0.001  0.094494  0.001211  1.040705  0.001  0.03809  0.004031  0.080611  0.090342  0.0022  1.046085  0.002
H  H28  1  0.80527453  0.45883810  0.21544803  1  0.080781  -0.000341  0.937435  0.0  0.08919  -0.000286  1.007649  0.0  0.091726  -0.000247  1.004169  0.0  0.116579  -0.000103  0.104786  0.087282  -0.000304  1.01029  0.0
H  H29  1  0.69472088  0.04116219  0.71544941  1  0.080731  -0.000342  0.937493  0.0  0.08912  -0.000286  1.007755  0.0  0.091659  -0.000247  1.004263  0.0  0.116543  -0.000103  0.104759  0.087213  -0.000304  1.010397  0.0
H  H30  1  0.30527412  0.04116367  0.78455128  1  0.08075  -0.000343  0.937467  0.0  0.089149  -0.000286  1.007708  0.0  0.091687  -0.000247  1.004223  0.0  0.116397  -0.000103  0.104774  0.087243  -0.000304  1.010346  0.0
H  H31  1  0.19472338  0.45883884  0.28454920  1  0.080717  -0.000341  0.937436  0.0  0.089111  -0.000286  1.007704  0.0  0.09165  -0.000247  1.004211  0.0  0.116512  -0.000103  0.104752  0.087201  -0.000304  1.010352  0.0
H  H32  1  0.19472629  0.54116248  0.78455128  1  0.080762  -0.000345  0.937477  0.0  0.089157  -0.000286  1.007708  0.0  0.091697  -0.000247  1.004225  0.0  0.116559  -0.000103  0.104768  0.087249  -0.000304  1.01035  0.0
H  H33  1  0.30527702  0.95883691  0.28454990  1  0.080743  -0.000344  0.937447  0.0  0.089133  -0.000286  1.007706  0.0  0.091673  -0.000247  1.004216  0.0  0.116377  -0.000103  0.104767  0.087226  -0.000304  1.010346  0.0
H  H34  1  0.69472234  0.95883765  0.21544941  1  0.080748  -0.00034  0.937486  0.0  0.089141  -0.000286  1.007737  0.0  0.09168  -0.000247  1.00425  0.0  0.116558  -0.000103  0.104758  0.087235  -0.000304  1.010375  0.0
H  H35  1  0.80528179  0.54116174  0.71545287  1  0.080715  -0.000341  0.937447  0.0  0.089115  -0.000286  1.007712  0.0  0.091654  -0.000247  1.00422  0.0  0.116327  -0.000103  0.104742  0.087207  -0.000304  1.010354  0.0
H  H36  1  0.82394116  0.47317178  0.09266255  1  0.066279  0.001038  0.94389  0.001  0.086686  0.001094  1.003003  0.001  0.0878  0.000778  1.001638  0.001  0.057307  0.002667  0.10134  0.085916  0.001344  1.004021  0.001
H  H37  1  0.67605134  0.02682408  0.59266463  1  0.066227  0.001036  0.943897  0.001  0.086656  0.001094  1.003011  0.001  0.087769  0.000778  1.001642  0.001  0.057279  0.002667  0.101329  0.085887  0.001344  1.004028  0.001
H  H38  1  0.32394511  0.02682555  0.90733676  1  0.066223  0.001039  0.943931  0.001  0.086653  0.001094  1.003027  0.001  0.087767  0.000778  1.001664  0.001  0.057341  0.002668  0.101336  0.085883  0.001344  1.004046  0.001
H  H39  1  0.17605239  0.47317548  0.40733468  1  0.06621  0.001038  0.943901  0.001  0.086644  0.001094  1.003002  0.001  0.087756  0.000778  1.001637  0.001  0.057307  0.002667  0.101329  0.085876  0.001344  1.004019  0.001
H  H40  1  0.17606110  0.52682880  0.90733676  1  0.066283  0.001035  0.943876  0.001  0.086676  0.001094  1.003005  0.001  0.087793  0.000778  1.001641  0.001  0.057369  0.002667  0.101326  0.085906  0.001344  1.004024  0.001
H  H41  1  0.32394656  0.97317429  0.40733468  1  0.066237  0.001035  0.943916  0.001  0.086657  0.001094  1.003019  0.001  0.08777  0.000778  1.001655  0.001  0.057352  0.002667  0.101328  0.085887  0.001344  1.004037  0.001
H  H42  1  0.67605280  0.97317577  0.09266324  1  0.066333  0.001038  0.943826  0.001  0.086708  0.001094  1.002974  0.001  0.087823  0.000778  1.001609  0.001  0.057267  0.002667  0.101366  0.085939  0.001344  1.003992  0.001
H  H43  1  0.82394842  0.52682437  0.59266740  1  0.066265  0.001038  0.94388  0.001  0.086707  0.001094  1.002972  0.001  0.087819  0.000778  1.001608  0.001  0.057354  0.002667  0.10135  0.085938  0.001344  1.00399  0.001
H  H44  1  0.71119939  0.29772754  0.07241310  1  0.053216  0.000123  0.961946  0.0  0.065176  9.4e-05  1.036862  0.0  0.066593  -3.3e-05  1.03553  0.0  0.062593  0.000697  0.088834  0.064262  0.000237  1.037795  0.0
H  H45  1  0.78880183  0.20226684  0.57241310  1  0.053149  0.000122  0.962069  0.0  0.065158  9.4e-05  1.036878  0.0  0.066556  -3.3e-05  1.035548  0.0  0.062509  0.000697  0.088832  0.064238  0.000236  1.037823  0.0
H  H46  1  0.21120334  0.20227127  0.92758967  1  0.053139  0.000135  0.961941  0.0  0.065125  9.4e-05  1.036855  0.0  0.066538  -3.3e-05  1.03552  0.0  0.062567  0.000697  0.088824  0.06421  0.000236  1.037787  0.0
H  H47  1  0.28879562  0.29773123  0.42758759  1  0.053174  0.000128  0.961969  0.0  0.065163  9.4e-05  1.036857  0.0  0.066573  -3.3e-05  1.035522  0.0  0.062901  0.000696  0.088861  0.064245  0.000236  1.037795  0.0
H  H48  1  0.28879997  0.70227378  0.92758482  1  0.053193  0.000127  0.96196  0.0  0.065166  9.4e-05  1.036874  0.0  0.066583  -3.3e-05  1.03555  0.0  0.062487  0.000697  0.088825  0.064251  0.000236  1.037806  0.0
H  H49  1  0.21120334  0.79772931  0.42758759  1  0.053187  0.000132  0.961935  0.0  0.065159  9.4e-05  1.036848  0.0  0.066576  -3.3e-05  1.035511  0.0  0.062601  0.000697  0.088844  0.064244  0.000236  1.03778  0.0
H  H50  1  0.78879893  0.79773005  0.07241172  1  0.053183  0.000128  0.961969  0.0  0.065153  9.4e-05  1.036854  0.0  0.06657  -3.3e-05  1.035507  0.0  0.0626  0.000697  0.088837  0.064233  0.000236  1.037801  0.0
H  H51  1  0.71120374  0.70226713  0.57241379  1  0.053152  0.000126  0.962048  0.0  0.06515  9.4e-05  1.036924  0.0  0.06655  -3.3e-05  1.035597  0.0  0.062574  0.000697  0.088834  0.064234  0.000237  1.037856  0.0
H  H52  1  0.53820486  0.37142824  0.13475754  1  0.074218  0.001542  0.934074  0.002  0.091428  0.001263  0.995322  0.001  0.09298  0.00084  0.993012  0.001  0.057399  0.00349  0.101623  0.090478  0.001685  0.996982  0.002
H  H53  1  0.96179200  0.12856762  0.63476031  1  0.07423  0.001542  0.934068  0.002  0.091428  0.001263  0.995309  0.001  0.092975  0.00084  0.992998  0.001  0.057389  0.003489  0.101629  0.090476  0.001684  0.996967  0.002
H  H54  1  0.03821172  0.12857131  0.86524315  1  0.074216  0.001545  0.934083  0.002  0.091423  0.001263  0.995348  0.001  0.092973  0.00084  0.993039  0.001  0.057437  0.003489  0.101645  0.090472  0.001684  0.99701  0.002
H  H55  1  0.46178869  0.37143119  0.36524038  1  0.074174  0.001544  0.934037  0.002  0.091392  0.001263  0.995283  0.001  0.092942  0.00084  0.992973  0.001  0.048356  0.003495  0.101629  0.090442  0.001684  0.996939  0.002
H  H56  1  0.46179595  0.62857382  0.86523969  1  0.074193  0.001542  0.934006  0.002  0.091399  0.001263  0.995291  0.001  0.092951  0.00084  0.992983  0.001  0.057384  0.003489  0.101625  0.090449  0.001684  0.996948  0.002
H  H57  1  0.03821027  0.87142927  0.36524246  1  0.07422  0.001545  0.93409  0.002  0.091433  0.001263  0.995337  0.001  0.092984  0.00084  0.993026  0.001  0.057422  0.003489  0.101658  0.090482  0.001684  0.996995  0.002
H  H58  1  0.96178909  0.87143001  0.13475823  1  0.07419  0.001544  0.934126  0.002  0.091406  0.001263  0.995357  0.001  0.092954  0.00084  0.993044  0.001  0.057435  0.003489  0.101652  0.090457  0.001684  0.997013  0.002
H  H59  1  0.53821212  0.62856865  0.63476239  1  0.074216  0.001543  0.9341  0.002  0.091449  0.001263  0.995313  0.001  0.092997  0.00084  0.993002  0.001  0.048508  0.003495  0.101635  0.090498  0.001684  0.996971  0.002
H  H60  1  0.65693024  0.12233571  0.21129584  1  0.061145  0.000495  0.974618  0.001  0.071909  0.000481  1.04778  0.001  0.07184  0.000237  1.04812  0.0  0.081815  0.0024  0.092127  0.072152  0.000781  1.047495  0.001
H  H61  1  0.84306953  0.37766384  0.71129099  1  0.061155  0.000497  0.974452  0.001  0.071857  0.000481  1.047698  0.001  0.071788  0.000237  1.048034  0.0  0.081921  0.0024  0.092107  0.072101  0.000781  1.047411  0.001
H  H62  1  0.15692693  0.37766531  0.78870832  1  0.061167  0.000494  0.974604  0.001  0.071891  0.000481  1.047809  0.001  0.071819  0.000237  1.04815  0.0  0.081905  0.0024  0.092123  0.072134  0.000781  1.047523  0.001
H  H63  1  0.34306767  0.12233498  0.28870832  1  0.061196  0.000492  0.974529  0.001  0.07192  0.000481  1.04776  0.001  0.071853  0.000237  1.048093  0.0  0.081883  0.0024  0.092122  0.072165  0.000781  1.047473  0.001
H  H64  1  0.34307057  0.87766708  0.78870070  1  0.06114  0.000496  0.974559  0.001  0.071916  0.000481  1.04776  0.001  0.071851  0.000237  1.048099  0.0  0.081772  0.0024  0.09213  0.07216  0.000781  1.04747  0.001
H  H65  1  0.15692693  0.62233527  0.28870970  1  0.061205  0.000492  0.974563  0.001  0.071902  0.000481  1.047779  0.001  0.07183  0.000237  1.048122  0.0  0.081923  0.0024  0.092123  0.072146  0.000781  1.047493  0.001
H  H66  1  0.84307098  0.62233527  0.21129099  1  0.061177  0.000493  0.974552  0.001  0.071893  0.000481  1.047791  0.001  0.071828  0.000237  1.048117  0.0  0.081906  0.0024  0.092122  0.072137  0.000781  1.047505  0.001
H  H67  1  0.65693314  0.87766561  0.71128892  1  0.061251  0.000499  0.974459  0.001  0.071968  0.000481  1.047689  0.001  0.0719  0.000237  1.048032  0.0  0.081777  0.0024  0.092127  0.072212  0.000781  1.047403  0.001
H  H68  1  0.48885502  0.19294408  0.14423234  1  0.061665  -9.1e-05  0.952623  0.0  0.077173  4.6e-05  1.020579  0.0  0.078455  2.7e-05  1.018259  0.0  0.090029  0.000641  0.097247  0.076347  9.7e-05  1.022161  0.001
H  H69  1  0.01114974  0.30705252  0.64423026  1  0.06163  -9.1e-05  0.952628  0.0  0.077133  4.6e-05  1.020588  0.0  0.078415  2.7e-05  1.018268  0.0  0.090173  0.000641  0.097232  0.076309  9.7e-05  1.022169  0.001
H  H70  1  0.98884816  0.30705326  0.85576904  1  0.061641  -9.3e-05  0.952609  0.0  0.077157  4.6e-05  1.02058  0.0  0.078439  2.7e-05  1.018258  0.0  0.090169  0.000641  0.097251  0.076332  9.7e-05  1.022162  0.001
H  H71  1  0.51114144  0.19294629  0.35577112  1  0.061659  -9.5e-05  0.952659  0.0  0.077174  4.6e-05  1.020599  0.0  0.078457  2.7e-05  1.018277  0.0  0.090002  0.000641  0.097252  0.076353  9.7e-05  1.022175  0.001
H  H72  1  0.51114724  0.80705798  0.85576628  1  0.06165  -9.2e-05  0.952448  0.0  0.077145  4.6e-05  1.020478  0.0  0.078434  2.7e-05  1.018153  0.0  0.089931  0.000641  0.09723  0.076285  9.7e-05  1.02209  0.001
H  H73  1  0.98884671  0.69294658  0.35577043  1  0.061631  -9.4e-05  0.952576  0.0  0.077138  4.6e-05  1.020542  0.0  0.07842  2.7e-05  1.01822  0.0  0.090158  0.000641  0.097238  0.076314  9.7e-05  1.022121  0.001
H  H74  1  0.01115119  0.69294585  0.14423026  1  0.061627  -9.3e-05  0.952583  0.0  0.077132  4.6e-05  1.020566  0.0  0.078413  2.7e-05  1.018244  0.0  0.090178  0.000641  0.097252  0.076309  9.7e-05  1.022146  0.001
H  H75  1  0.48885937  0.80705355  0.64422542  1  0.061657  -9e-05  0.952605  0.0  0.077184  4.6e-05  1.020547  0.0  0.078467  2.7e-05  1.018233  0.0  0.089785  0.000641  0.097267  0.076363  9.7e-05  1.022123  0.001
C  C76  1  0.12536527  0.37581538  0.06932959  1  -0.085543  0.000521  3.654969  0.0  -0.184405  0.001335  3.915017  0.001  -0.176459  0.000795  3.917618  0.001  0.401732  0.002715  -0.158031  -0.189582  0.001841  3.913382  0.002
C  C77  1  0.37463078  0.12418417  0.56933097  1  -0.085576  0.000524  3.654897  0.001  -0.184447  0.001335  3.914958  0.001  -0.176515  0.000795  3.917549  0.001  0.401898  0.002714  -0.158058  -0.189623  0.001841  3.913322  0.002
C  C78  1  0.62537004  0.12418122  0.93066972  1  -0.085703  0.000526  3.654977  0.001  -0.184472  0.001335  3.915041  0.001  -0.176531  0.000795  3.917618  0.001  0.401686  0.002715  -0.158091  -0.189649  0.001841  3.913407  0.002
C  C79  1  0.87463118  0.37581833  0.43066834  1  -0.085656  0.000519  3.654913  0.0  -0.184561  0.001335  3.914988  0.001  -0.17661  0.000795  3.917584  0.001  0.401691  0.002714  -0.158102  -0.189737  0.001841  3.913352  0.002
C  C80  1  0.87463118  0.62418373  0.93066903  1  -0.08551  0.000524  3.655012  0.001  -0.184361  0.001335  3.915071  0.001  -0.176424  0.000795  3.917666  0.001  0.401774  0.002715  -0.158031  -0.189537  0.001841  3.91344  0.002
C  C81  1  0.62536713  0.87581862  0.43067041  1  -0.085729  0.000503  3.655003  0.0  -0.184532  0.001335  3.91505  0.001  -0.176577  0.000795  3.917642  0.001  0.401634  0.002715  -0.158071  -0.189708  0.001841  3.913415  0.002
C  C82  1  0.37463223  0.87581862  0.06933028  1  -0.085754  0.000527  3.655  0.001  -0.18459  0.001335  3.915071  0.001  -0.176634  0.000795  3.917663  0.001  0.401806  0.002714  -0.158126  -0.189766  0.001841  3.913436  0.002
C  C83  1  0.12536673  0.62418077  0.56933166  1  -0.085649  0.000514  3.655001  0.0  -0.184506  0.001335  3.915056  0.001  -0.176549  0.000795  3.917644  0.001  0.401718  0.002715  -0.158098  -0.18968  0.001841  3.913419  0.002
C  C84  1  0.83212596  0.42010681  0.14996885  1  0.045357  -0.0008  3.618266  -0.001  -0.017218  0.000175  3.87978  0.0  -0.010405  -0.000232  3.885085  0.0  0.386791  0.000875  -0.080514  -0.021887  0.000538  3.87635  0.0
C  C85  1  0.66786799  0.07989126  0.64997508  1  0.045569  -0.000793  3.618136  -0.001  -0.017048  0.000175  3.879653  0.0  -0.010226  -0.000232  3.884931  0.0  0.386929  0.000875  -0.080422  -0.021719  0.000538  3.876223  0.0
C  C86  1  0.33213137  0.07989422  0.85002838  1  0.045418  -0.000789  3.618278  -0.001  -0.017123  0.000175  3.87982  0.0  -0.010309  -0.000232  3.885121  0.0  0.386976  0.000875  -0.08049  -0.021792  0.000538  3.876391  0.0
C  C87  1  0.16786759  0.42010755  0.35002699  1  0.045634  -0.000793  3.61818  -0.001  -0.01703  0.000175  3.879733  0.0  -0.010193  -0.000232  3.884999  0.0  0.386941  0.000874  -0.080447  -0.021701  0.000537  3.876302  0.0
C  C88  1  0.16787340  0.57989525  0.85002769  1  0.045348  -0.00078  3.618367  -0.001  -0.017213  0.000175  3.879919  0.0  -0.0104  -0.000232  3.885223  0.0  0.386784  0.000875  -0.080476  -0.021883  0.000538  3.876489  0.0
C  C89  1  0.33213282  0.92010710  0.35002907  1  0.045453  -0.000777  3.61816  -0.001  -0.017121  0.000175  3.879685  0.0  -0.010307  -0.000232  3.88499  0.0  0.386958  0.000875  -0.080489  -0.02179  0.000538  3.876255  0.0
C  C90  1  0.66786799  0.92010636  0.14997301  1  0.045331  -0.000798  3.618316  -0.001  -0.017247  0.000175  3.879856  0.0  -0.010437  -0.000232  3.885158  0.0  0.38687  0.000875  -0.080517  -0.021916  0.000538  3.876426  0.0
C  C91  1  0.83213322  0.57989229  0.64997508  1  0.045522  -0.000799  3.618167  -0.001  -0.017144  0.000175  3.879754  0.0  -0.010323  -0.000232  3.885041  0.0  0.387042  0.000875  -0.080498  -0.021815  0.000538  3.876322  0.0
C  C92  1  0.68479371  0.33935111  0.13671147  1  0.047445  0.000758  3.624709  0.0  -0.020451  0.001521  3.89414  0.001  -0.012915  0.00074  3.89979  0.0  0.378221  0.002953  -0.083997  -0.02571  0.002245  3.890101  0.001
C  C93  1  0.81520606  0.16064623  0.63671078  1  0.047363  0.000761  3.62477  0.0  -0.020478  0.001522  3.894183  0.001  -0.01291  0.000741  3.899812  0.0  0.378209  0.002953  -0.084033  -0.025746  0.002245  3.890163  0.001
C  C94  1  0.18479621  0.16064770  0.86328922  1  0.047543  0.000728  3.624676  0.0  -0.020407  0.001522  3.894191  0.001  -0.012864  0.000741  3.89984  0.0  0.378199  0.002953  -0.084028  -0.025667  0.002245  3.890154  0.001
C  C95  1  0.31519984  0.33935406  0.36328853  1  0.047504  0.000743  3.624689  0.0  -0.020425  0.001521  3.894194  0.001  -0.01288  0.000741  3.899844  0.0  0.386908  0.002947  -0.084036  -0.025691  0.002245  3.890171  0.001
C  C96  1  0.31520275  0.66065095  0.86328645  1  0.047586  0.00075  3.624628  0.0  -0.020368  0.001521  3.894121  0.001  -0.012837  0.00074  3.899777  0.0  0.378321  0.002952  -0.083987  -0.025627  0.002244  3.890083  0.001
C  C97  1  0.18479475  0.83935288  0.36328853  1  0.047515  0.00073  3.624687  0.0  -0.020424  0.001522  3.894185  0.001  -0.012883  0.000741  3.899829  0.0  0.378207  0.002953  -0.084024  -0.02569  0.002245  3.890164  0.001
C  C98  1  0.81520315  0.83935288  0.13671078  1  0.047495  0.000745  3.62485  0.0  -0.020388  0.001522  3.894289  0.001  -0.012831  0.000741  3.899919  0.0  0.378204  0.002953  -0.084034  -0.02565  0.002245  3.890254  0.001
C  C99  1  0.68479806  0.66064578  0.63671286  1  0.047455  0.000752  3.62489  0.0  -0.020487  0.001522  3.894361  0.001  -0.012926  0.000741  3.899999  0.0  0.387096  0.002947  -0.084013  -0.025755  0.002245  3.890347  0.001
C  C100  1  0.56933673  0.19006583  0.20983333  1  0.052408  -0.000737  3.61834  -0.001  -0.011979  0.000186  3.881453  0.0  -0.003569  -0.000241  3.886976  0.0  0.345212  0.001325  -0.082976  -0.017821  0.000717  3.877395  0.0
C  C101  1  0.93066303  0.30993151  0.70983195  1  0.052328  -0.000734  3.618291  -0.001  -0.011975  0.000185  3.881383  0.0  -0.00356  -0.000241  3.886903  0.0  0.376746  0.001291  -0.082964  -0.017805  0.000717  3.8773  0.0
C  C102  1  0.06933633  0.30993299  0.79016667  1  0.052374  -0.000724  3.618389  -0.001  -0.012025  0.000186  3.881522  0.0  -0.003609  -0.00024  3.887039  0.0  0.34488  0.001325  -0.082993  -0.017862  0.000718  3.877455  0.0
C  C103  1  0.43065972  0.19006656  0.29016944  1  0.052238  -0.00071  3.61844  -0.001  -0.012144  0.000185  3.881581  0.0  -0.003728  -0.000241  3.887098  0.0  0.376982  0.001291  -0.083008  -0.017977  0.000718  3.877501  0.0
C  C104  1  0.43066408  0.80993476  0.79016044  1  0.052478  -0.000727  3.618439  -0.001  -0.012009  0.000186  3.881641  0.0  -0.003609  -0.000241  3.887188  0.0  0.345348  0.001325  -0.083001  -0.017817  0.000717  3.877579  0.0
C  C105  1  0.06933488  0.69006685  0.29016736  1  0.052337  -0.000714  3.618339  -0.001  -0.012008  0.000186  3.881434  0.0  -0.003593  -0.000241  3.88695  0.0  0.376814  0.001291  -0.082994  -0.017845  0.000718  3.877368  0.0
C  C106  1  0.93066158  0.69006685  0.20983402  1  0.052318  -0.000723  3.618394  -0.001  -0.012064  0.000186  3.881502  0.0  -0.003644  -0.000241  3.887016  0.0  0.344864  0.001325  -0.083014  -0.017899  0.000718  3.877427  0.0
C  C107  1  0.56934109  0.80993402  0.70983056  1  0.05218  -0.000746  3.618496  -0.001  -0.012213  0.000186  3.881712  0.0  -0.00381  -0.000241  3.887254  0.0  0.377262  0.001291  -0.08301  -0.018043  0.000717  3.877624  0.0
I  I108  1  0.05949337  0.11744586  0.11777987  1  -0.434483  0.167159  1.016621  0.151  -0.45449  0.088742  1.34387  0.082  -0.497372  0.057365  1.32027  0.058  -0.504683  0.154424  -0.208757  -0.426873  0.111232  1.360933  0.097
I  I109  1  0.44050268  0.38255443  0.61778264  1  -0.4345  0.167109  1.016636  0.151  -0.454498  0.08874  1.34389  0.082  -0.497383  0.057365  1.32029  0.058  -0.504688  0.154422  -0.208769  -0.426882  0.111232  1.360958  0.097
I  I110  1  0.55949958  0.38255074  0.88222221  1  -0.434474  0.16711  1.016598  0.151  -0.454487  0.088743  1.34387  0.082  -0.497373  0.057364  1.320276  0.058  -0.504658  0.154424  -0.208762  -0.426872  0.111232  1.360933  0.097
I  I111  1  0.94050745  0.11744660  0.38222082  1  -0.434481  0.167155  1.01661  0.151  -0.454497  0.08874  1.343872  0.082  -0.49738  0.057364  1.320272  0.058  -0.504691  0.15442  -0.208764  -0.426879  0.11123  1.360937  0.097
I  I112  1  0.94050164  0.88255546  0.88221736  1  -0.43452  0.167109  1.016679  0.151  -0.45451  0.088739  1.343911  0.082  -0.497401  0.057364  1.320309  0.058  -0.504706  0.154418  -0.208769  -0.426896  0.11123  1.360976  0.097
I  I113  1  0.55948651  0.61745132  0.38222428  1  -0.434483  0.167161  1.016642  0.151  -0.454501  0.088746  1.343913  0.082  -0.497393  0.057367  1.320314  0.058  -0.504684  0.154428  -0.208768  -0.426881  0.111236  1.360979  0.097
I  I114  1  0.44050123  0.61744541  0.11778264  1  -0.434505  0.16711  1.016653  0.151  -0.454504  0.08874  1.343896  0.082  -0.49739  0.057365  1.320298  0.058  -0.504688  0.154422  -0.208766  -0.426891  0.111232  1.360967  0.097
I  I115  1  0.05949337  0.88255251  0.61777710  1  -0.434452  0.16716  1.0166  0.151  -0.454483  0.088742  1.343888  0.082  -0.497378  0.057366  1.320289  0.058  -0.504699  0.154424  -0.208748  -0.426866  0.111232  1.360954  0.097
O  O116  1  0.02484916  0.37829057  0.15643904  1  -0.263816  0.019703  2.394363  0.032  -0.177707  0.020995  2.646521  0.035  -0.207205  0.017095  2.654979  0.03  -1.036476  0.041199  -0.225609  -0.157651  0.023628  2.64083  0.038
O  O117  1  0.47514834  0.12170824  0.65644112  1  -0.263802  0.019701  2.394174  0.032  -0.177728  0.020995  2.646384  0.035  -0.20723  0.017096  2.654849  0.03  -1.03649  0.0412  -0.225613  -0.157675  0.023628  2.6407  0.038
O  O118  1  0.52485102  0.12170824  0.84355888  1  -0.263762  0.019703  2.394287  0.032  -0.177794  0.020995  2.646531  0.035  -0.207296  0.017096  2.655003  0.03  -1.036376  0.0412  -0.225616  -0.157741  0.023628  2.640846  0.038
O  O119  1  0.97514294  0.37829500  0.34355750  1  -0.263899  0.019704  2.394248  0.032  -0.177677  0.020995  2.646321  0.035  -0.207176  0.017095  2.654778  0.03  -1.036411  0.0412  -0.225568  -0.157624  0.023628  2.640635  0.038
O  O120  1  0.97515165  0.62170853  0.84356096  1  -0.263858  0.0197  2.394434  0.032  -0.177738  0.020994  2.646563  0.035  -0.207237  0.017095  2.655032  0.03  -1.0365  0.041197  -0.225625  -0.157681  0.023626  2.640866  0.038
O  O121  1  0.52485392  0.87829234  0.34355888  1  -0.263749  0.019704  2.394168  0.032  -0.177674  0.020994  2.646348  0.035  -0.207173  0.017095  2.654808  0.03  -1.036414  0.041199  -0.225574  -0.15762  0.023627  2.64066  0.038
O  O122  1  0.47514399  0.87829308  0.15643904  1  -0.263753  0.019701  2.394309  0.032  -0.177623  0.020993  2.646433  0.035  -0.207127  0.017094  2.654906  0.03  -1.036578  0.041199  -0.225541  -0.157568  0.023626  2.640742  0.038
O  O123  1  0.02485642  0.62170779  0.65644181  1  -0.263817  0.019702  2.394201  0.032  -0.17766  0.020994  2.646334  0.035  -0.207167  0.017095  2.654801  0.03  -1.036409  0.041198  -0.225542  -0.157611  0.023627  2.640657  0.038
O  O124  1  0.70086566  0.27354697  0.21548679  1  -0.294759  0.030522  2.357624  0.05  -0.214822  0.024927  2.614441  0.042  -0.247869  0.018853  2.623618  0.033  -1.036148  0.053408  -0.222101  -0.191105  0.030548  2.607678  0.049
O  O125  1  0.79913120  0.22645258  0.71548609  1  -0.294718  0.03052  2.357705  0.05  -0.214851  0.024927  2.614514  0.042  -0.247914  0.018852  2.623706  0.033  -1.036051  0.053409  -0.222134  -0.191134  0.030548  2.607752  0.049
O  O126  1  0.20086816  0.22645406  0.78451529  1  -0.294779  0.03052  2.35769  0.05  -0.214782  0.024927  2.614458  0.042  -0.247836  0.018852  2.623647  0.033  -1.036026  0.053407  -0.222086  -0.191065  0.030548  2.607696  0.049
O  O127  1  0.29912935  0.27354623  0.28451391  1  -0.294793  0.03052  2.357683  0.05  -0.214838  0.024927  2.614457  0.042  -0.247904  0.018852  2.623672  0.033  -1.036129  0.053407  -0.222133  -0.191121  0.030548  2.607694  0.049
O  O128  1  0.29913515  0.72645509  0.78451114  1  -0.294886  0.03052  2.357802  0.05  -0.214825  0.024927  2.614585  0.042  -0.247884  0.018852  2.623796  0.033  -1.036131  0.053405  -0.222096  -0.191108  0.030547  2.607814  0.049
O  O129  1  0.20086525  0.77354652  0.28451460  1  -0.294808  0.030523  2.35765  0.05  -0.214796  0.024927  2.614382  0.042  -0.247857  0.018853  2.623582  0.033  -1.036091  0.053408  -0.222115  -0.191082  0.030548  2.607621  0.049
O  O130  1  0.79912975  0.77354578  0.21548471  1  -0.294753  0.030519  2.357706  0.05  -0.214806  0.024926  2.614469  0.042  -0.247877  0.018852  2.623678  0.033  -1.036028  0.053406  -0.222121  -0.19109  0.030547  2.607712  0.049
O  O131  1  0.70087146  0.72645435  0.71548540  1  -0.294761  0.030522  2.357712  0.05  -0.214767  0.024927  2.614488  0.042  -0.24782  0.018852  2.623668  0.033  -1.036114  0.053406  -0.222131  -0.191052  0.030547  2.607725  0.049
