# generated using pymatgen
data_ZnSiH4C8(N2F5)2
_symmetry_space_group_name_H-M   'P 1'
_cell_length_a   7.33703693
_cell_length_b   7.33671148
_cell_length_c   7.60722362
_cell_angle_alpha   82.43027383
_cell_angle_beta   82.37104120
_cell_angle_gamma   97.14876810
_symmetry_Int_Tables_number   1
_chemical_formula_structural   ZnSiH4C8(N2F5)2
_chemical_formula_sum   'Zn1 Si1 H4 C8 N4 F10'
_cell_volume   398.11280637
_cell_formula_units_Z   1
loop_
 _symmetry_equiv_pos_site_id
 _symmetry_equiv_pos_as_xyz
  1  'x, y, z'
loop_
 _atom_site_type_symbol
 _atom_site_label
 _atom_site_symmetry_multiplicity
 _atom_site_fract_x
 _atom_site_fract_y
 _atom_site_fract_z
 _atom_site_occupancy
 _atom_site_pbe_bader_charge
 _atom_site_pbe_bader_spin_density
 _atom_site_pbe_cm5_charge
 _atom_site_pbe_ddec_charge
 _atom_site_pbe_ddec_spin_density
 _atom_site_pbe_ddec_sum_bond_order
 _atom_site_pbe_magmom
Zn  Zn0  1  0.49996281  0.49996222  0.49998998  1  1.351184  0  0.70564  0.826107  0  2.197791  0
Si  Si1  1  0.50004597  0.49998741  0.99996302  1  3.225565  0  0.266935  1.728179  0  3.91491  0
H  H2  1  0.76277292  0.37243715  0.75741370  1  0.271933  0  0.126022  0.146537  0  1.051261  0
H  H3  1  0.23728454  0.62760884  0.24253731  1  0.272309  0  0.126185  0.14681  0  1.051002  0
H  H4  1  0.37245269  0.76284822  0.75747353  1  0.271547  0  0.126118  0.146521  0  1.050713  0
H  H5  1  0.62750763  0.23716752  0.24258380  1  0.27175  0  0.125968  0.146398  0  1.050719  0
C  C6  1  0.05383164  0.42398362  0.64749571  1  1.106483  0  0.245558  0.391284  0  4.042718  0
C  C7  1  0.94616525  0.57603524  0.35249290  1  1.106399  0  0.245677  0.39129  0  4.042905  0
C  C8  1  0.86569180  0.42857919  0.63968788  1  0.552544  0  0.058108  -0.037107  0  3.860788  0
C  C9  1  0.13432538  0.57144837  0.36027369  1  0.551903  0  0.058022  -0.037231  0  3.860339  0
C  C10  1  0.42394601  0.05392453  0.64758939  1  1.105115  0  0.245498  0.391528  0  4.041904  0
C  C11  1  0.57601677  0.94609367  0.35247421  1  1.105252  0  0.245411  0.391206  0  4.042678  0
C  C12  1  0.42858621  0.86575228  0.63971855  1  0.553677  0  0.058323  -0.036697  0  3.860486  0
C  C13  1  0.57136659  0.13426365  0.36034852  1  0.55295  0  0.058339  -0.036642  0  3.86124  0
N  N14  1  0.18877405  0.49311020  0.51090489  1  -1.24097  0  -0.291569  -0.270223  0  3.471485  0
N  N15  1  0.81125598  0.50691607  0.48904797  1  -1.24124  0  -0.291602  -0.270167  0  3.47196  0
N  N16  1  0.49301595  0.18873756  0.51104401  1  -1.240575  0  -0.291286  -0.269976  0  3.474413  0
N  N17  1  0.50692263  0.81127572  0.48902816  1  -1.240716  0  -0.291512  -0.270126  0  3.473364  0
F  F18  1  0.52830160  0.52803919  0.22693131  1  -0.814022  0  -0.214694  -0.513642  0  1.359341  0
F  F19  1  0.47172472  0.47192811  0.77303897  1  -0.81461  0  -0.214585  -0.513585  0  1.359464  0
F  F20  1  0.65441646  0.34472985  0.99986338  1  -0.819999  0  -0.205282  -0.501027  0  1.183257  0
F  F21  1  0.34561708  0.65523439  0.00009869  1  -0.819894  0  -0.205274  -0.501059  0  1.18328  0
F  F22  1  0.67358444  0.67281561  0.91748297  1  -0.827215  0  -0.248172  -0.537214  0  1.104797  0
F  F23  1  0.32644286  0.32713854  0.08250001  1  -0.827179  0  -0.248396  -0.537381  0  1.10441  0
F  F24  1  0.10168195  0.34623128  0.79921095  1  -0.600725  0  -0.047232  -0.093166  0  1.431746  0
F  F25  1  0.89838263  0.65378841  0.20075058  1  -0.6006  0  -0.047359  -0.093268  0  1.431593  0
F  F26  1  0.34616970  0.10181383  0.79942328  1  -0.605557  0  -0.047482  -0.093794  0  1.430804  0
F  F27  1  0.65381006  0.89821107  0.20063873  1  -0.605304  0  -0.047361  -0.093556  0  1.431069  0
