# generated using pymatgen
data_TbH4C6N9O2
_symmetry_space_group_name_H-M   'P 1'
_cell_length_a   7.36667094
_cell_length_b   11.15054513
_cell_length_c   14.11532549
_cell_angle_alpha   90.00017053
_cell_angle_beta   93.50077534
_cell_angle_gamma   89.99930194
_symmetry_Int_Tables_number   1
_chemical_formula_structural   TbH4C6N9O2
_chemical_formula_sum   'Tb4 H16 C24 N36 O8'
_cell_volume   1157.30307101
_cell_formula_units_Z   4
loop_
 _symmetry_equiv_pos_site_id
 _symmetry_equiv_pos_as_xyz
  1  'x, y, z'
loop_
 _atom_site_type_symbol
 _atom_site_label
 _atom_site_symmetry_multiplicity
 _atom_site_fract_x
 _atom_site_fract_y
 _atom_site_fract_z
 _atom_site_occupancy
 _atom_site_hle17_bader_spin_density
 _atom_site_hle17_ddec_charge
 _atom_site_hle17_ddec_spin_density
 _atom_site_hle17_ddec_sum_bond_order
 _atom_site_hle17_magmom
 _atom_site_hse06_10hf_bader_spin_density
 _atom_site_hse06_10hf_ddec_charge
 _atom_site_hse06_10hf_ddec_spin_density
 _atom_site_hse06_10hf_ddec_sum_bond_order
 _atom_site_hse06_10hf_magmom
 _atom_site_hse06_bader_spin_density
 _atom_site_hse06_ddec_charge
 _atom_site_hse06_ddec_spin_density
 _atom_site_hse06_ddec_sum_bond_order
 _atom_site_hse06_magmom
 _atom_site_pbe_bader_spin_density
 _atom_site_pbe_cm5_charge
 _atom_site_pbe_ddec_charge
 _atom_site_pbe_ddec_spin_density
 _atom_site_pbe_ddec_sum_bond_order
 _atom_site_pbe_magmom
Tb  Tb0  1  0.06269592  0.25174702  0.43468351  1  0  2.288519  0  1.645547  0  0  2.136538  0  2.116052  0  0  2.247816  0  1.9459  0  0  1.644981  2.105002  0  2.145219  0
Tb  Tb1  1  0.43730733  0.75174727  0.06531677  1  0  2.288542  0  1.645447  0  0  2.136602  0  2.115878  0  0  2.247833  0  1.945793  0  0  1.644955  2.105072  0  2.145044  0
Tb  Tb2  1  0.93730350  0.74825045  0.56531633  1  0  2.288545  0  1.645537  0  0  2.136615  0  2.11597  0  0  2.247839  0  1.945895  0  0  1.64498  2.105065  0  2.145164  0
Tb  Tb3  1  0.56269479  0.24825288  0.93468529  1  0  2.288492  0  1.645559  0  0  2.136483  0  2.116095  0  0  2.247774  0  1.945919  0  0  1.644944  2.104947  0  2.145265  0
H  H4  1  0.32657606  0.44591668  0.39993627  1  0  0.423706  0  0.873853  0  0  0.388047  0  0.94447  0  0  0.397948  0  0.930509  0  0  0.301915  0.381276  0  0.954127  0
H  H5  1  0.17342361  0.94591917  0.10006577  1  0  0.423725  0  0.873815  0  0  0.388074  0  0.94442  0  0  0.397973  0  0.930461  0  0  0.301901  0.381304  0  0.954077  0
H  H6  1  0.67342606  0.55408348  0.60006508  1  0  0.423672  0  0.873896  0  0  0.38802  0  0.944502  0  0  0.397919  0  0.930544  0  0  0.301903  0.381249  0  0.954158  0
H  H7  1  0.82657578  0.05408099  0.89993691  1  0  0.423757  0  0.87377  0  0  0.388093  0  0.944395  0  0  0.397997  0  0.930429  0  0  0.301923  0.381323  0  0.954052  0
H  H8  1  0.16611161  0.50928472  0.45038321  1  0  0.437254  0  0.853374  0  0  0.408175  0  0.914915  0  0  0.417426  0  0.901883  0  0  0.307839  0.401765  0  0.92414  0
H  H9  1  0.33388655  0.00928799  0.04961916  1  0  0.437357  0  0.853208  0  0  0.408268  0  0.914787  0  0  0.417522  0  0.901751  0  0  0.307873  0.401857  0  0.924007  0
H  H10  1  0.83388645  0.49071364  0.54961729  1  0  0.437236  0  0.853392  0  0  0.408159  0  0.914933  0  0  0.41741  0  0.901902  0  0  0.307835  0.401748  0  0.924159  0
H  H11  1  0.66611014  0.99071217  0.95038200  1  0  0.437359  0  0.853187  0  0  0.408271  0  0.914778  0  0  0.417523  0  0.901747  0  0  0.307876  0.401861  0  0.923997  0
H  H12  1  0.32048687  0.10972359  0.56336247  1  0  0.426882  0  0.873158  0  0  0.390116  0  0.94553  0  0  0.400231  0  0.931321  0  0  0.30249  0.383122  0  0.955488  0
H  H13  1  0.17952012  0.60972374  0.93664136  1  0  0.426935  0  0.87308  0  0  0.39018  0  0.945439  0  0  0.400296  0  0.931229  0  0  0.302558  0.383187  0  0.955395  0
H  H14  1  0.67950978  0.89027836  0.43664152  1  0  0.426826  0  0.873227  0  0  0.390074  0  0.945578  0  0  0.400187  0  0.931372  0  0  0.302489  0.383077  0  0.955539  0
H  H15  1  0.82048334  0.39028000  0.06336146  1  0  0.426897  0  0.873129  0  0  0.390149  0  0.945473  0  0  0.400264  0  0.931264  0  0  0.302528  0.383154  0  0.95543  0
H  H16  1  0.12656199  0.05046719  0.57540205  1  0  0.44879  0  0.832792  0  0  0.419733  0  0.895421  0  0  0.428722  0  0.882605  0  0  0.314248  0.413623  0  0.904272  0
H  H17  1  0.37344613  0.55046575  0.92459885  1  0  0.448711  0  0.832892  0  0  0.419654  0  0.895528  0  0  0.428643  0  0.882713  0  0  0.314226  0.413544  0  0.90438  0
H  H18  1  0.87344014  0.94953297  0.42459930  1  0  0.448809  0  0.83276  0  0  0.419757  0  0.895382  0  0  0.428747  0  0.882565  0  0  0.314279  0.413649  0  0.904231  0
H  H19  1  0.62655463  0.44953530  0.07540316  1  0  0.448812  0  0.832799  0  0  0.419715  0  0.895454  0  0  0.428703  0  0.88264  0  0  0.314237  0.413607  0  0.904303  0
C  C20  1  0.19328221  0.36847189  0.04734926  1  0  0.587209  0  3.91401  0  0  0.54136  0  4.198463  0  0  0.568781  0  4.209734  0  0  0.340255  0.523463  0  4.191484  0
C  C21  1  0.30672020  0.86847557  0.45265623  1  0  0.587258  0  3.913866  0  0  0.541424  0  4.1983  0  0  0.568837  0  4.209572  0  0  0.340298  0.523526  0  4.191319  0
C  C22  1  0.80671992  0.63152917  0.95265209  1  0  0.587386  0  3.913943  0  0  0.541553  0  4.198379  0  0  0.568973  0  4.209644  0  0  0.340324  0.523656  0  4.1914  0
C  C23  1  0.69327242  0.13152997  0.54734267  1  0  0.58726  0  3.914015  0  0  0.541459  0  4.198453  0  0  0.568877  0  4.209727  0  0  0.340283  0.523559  0  4.191472  0
C  C24  1  0.51464952  0.14164964  0.16893111  1  0  0.569307  0  3.948126  0  0  0.528773  0  4.225475  0  0  0.557125  0  4.237202  0  0  0.336664  0.510136  0  4.21849  0
C  C25  1  0.98535097  0.64165232  0.33106516  1  0  0.569319  0  3.947854  0  0  0.528808  0  4.225204  0  0  0.557154  0  4.23693  0  0  0.336678  0.510172  0  4.218211  0
C  C26  1  0.48534584  0.85834783  0.83106717  1  0  0.569402  0  3.947973  0  0  0.528885  0  4.225309  0  0  0.55723  0  4.237031  0  0  0.336816  0.510248  0  4.218325  0
C  C27  1  0.01464720  0.35834335  0.66892542  1  0  0.569458  0  3.948094  0  0  0.528979  0  4.225425  0  0  0.55733  0  4.237146  0  0  0.33672  0.510343  0  4.21844  0
C  C28  1  0.07431479  0.34820726  0.19060032  1  0  0.560601  0  3.931371  0  0  0.520315  0  4.209151  0  0  0.547058  0  4.220789  0  0  0.326158  0.503006  0  4.201652  0
C  C29  1  0.42568809  0.84820675  0.30939663  1  0  0.560636  0  3.931285  0  0  0.520359  0  4.209061  0  0  0.547094  0  4.2207  0  0  0.326259  0.50305  0  4.201566  0
C  C30  1  0.92568189  0.65179200  0.80940084  1  0  0.56059  0  3.931437  0  0  0.520316  0  4.209222  0  0  0.547059  0  4.220864  0  0  0.326178  0.503008  0  4.201722  0
C  C31  1  0.57430315  0.15179699  0.69060505  1  0  0.560729  0  3.931631  0  0  0.520491  0  4.209395  0  0  0.547233  0  4.221027  0  0  0.326266  0.50318  0  4.201907  0
C  C32  1  0.45040908  0.17005778  0.32489673  1  0  0.564941  0  3.96541  0  0  0.519288  0  4.261162  0  0  0.546871  0  4.275003  0  0  0.331417  0.501212  0  4.25296  0
C  C33  1  0.04960115  0.67006424  0.17510006  1  0  0.564812  0  3.965575  0  0  0.51918  0  4.261322  0  0  0.546752  0  4.275166  0  0  0.331385  0.501109  0  4.253118  0
C  C34  1  0.54959312  0.82994059  0.67509754  1  0  0.564942  0  3.96578  0  0  0.519288  0  4.261521  0  0  0.54686  0  4.275365  0  0  0.331418  0.501213  0  4.253318  0
C  C35  1  0.95040110  0.32993412  0.82488996  1  0  0.564868  0  3.965784  0  0  0.519259  0  4.261519  0  0  0.54684  0  4.275362  0  0  0.331386  0.501187  0  4.253315  0
C  C36  1  0.82972237  0.92082818  0.14557417  1  0  0.582995  0  3.910074  0  0  0.540287  0  4.190697  0  0  0.567819  0  4.201357  0  0  0.3374  0.522443  0  4.183864  0
C  C37  1  0.67027974  0.42082317  0.35442636  1  0  0.583014  0  3.909907  0  0  0.540306  0  4.190551  0  0  0.567843  0  4.201221  0  0  0.337419  0.522459  0  4.183712  0
C  C38  1  0.17028384  0.07917378  0.85442662  1  0  0.583025  0  3.909988  0  0  0.540308  0  4.190623  0  0  0.567848  0  4.201287  0  0  0.337448  0.522463  0  4.18379  0
C  C39  1  0.32971827  0.57917161  0.64557768  1  0  0.582997  0  3.9099  0  0  0.540301  0  4.190536  0  0  0.567836  0  4.201201  0  0  0.337459  0.522456  0  4.183698  0
C  C40  1  0.99316312  0.02313711  0.26221668  1  0  0.573953  0  3.929914  0  0  0.529857  0  4.211527  0  0  0.557553  0  4.22296  0  0  0.335686  0.511749  0  4.204743  0
C  C41  1  0.50683267  0.52313608  0.23778482  1  0  0.573991  0  3.930038  0  0  0.529897  0  4.211648  0  0  0.557597  0  4.223083  0  0  0.335628  0.511787  0  4.204868  0
C  C42  1  0.00684033  0.97686215  0.73778684  1  0  0.573778  0  3.929872  0  0  0.529664  0  4.211511  0  0  0.557364  0  4.222951  0  0  0.335597  0.511555  0  4.204724  0
C  C43  1  0.49316532  0.47686407  0.76222064  1  0  0.573616  0  3.930074  0  0  0.529514  0  4.211701  0  0  0.557212  0  4.223137  0  0  0.33554  0.511407  0  4.204914  0
N  N44  1  0.54831384  0.13068698  0.25889594  1  0  -0.452127  0  3.259582  0  0  -0.396599  0  3.520536  0  0  -0.4224  0  3.525303  0  0  -0.288169  -0.378486  0  3.515513  0
N  N45  1  0.95169222  0.63069318  0.24110616  1  0  -0.452013  0  3.25957  0  0  -0.396525  0  3.520541  0  0  -0.422308  0  3.525304  0  0  -0.288068  -0.378409  0  3.515515  0
N  N46  1  0.45169104  0.86930869  0.74110196  1  0  -0.452053  0  3.259634  0  0  -0.396535  0  3.520587  0  0  -0.422322  0  3.525348  0  0  -0.288148  -0.37842  0  3.515564  0
N  N47  1  0.04831134  0.36929980  0.75888815  1  0  -0.452131  0  3.259926  0  0  -0.396702  0  3.52093  0  0  -0.4225  0  3.525688  0  0  -0.288115  -0.378585  0  3.515904  0
N  N48  1  0.36979931  0.20230328  0.38991266  1  0  -0.700601  0  2.778216  0  0  -0.662541  0  3.05448  0  0  -0.693327  0  3.058322  0  0  -0.46339  -0.64796  0  3.049916  0
N  N49  1  0.13020482  0.70231065  0.11009037  1  0  -0.700461  0  2.778641  0  0  -0.662399  0  3.05488  0  0  -0.693175  0  3.058726  0  0  -0.463387  -0.647824  0  3.050318  0
N  N50  1  0.63020016  0.79769688  0.61008293  1  0  -0.700657  0  2.778523  0  0  -0.662593  0  3.054769  0  0  -0.693373  0  3.058617  0  0  -0.463437  -0.648011  0  3.050205  0
N  N51  1  0.86979059  0.29768861  0.88990295  1  0  -0.700566  0  2.778482  0  0  -0.662493  0  3.05473  0  0  -0.69328  0  3.05857  0  0  -0.463383  -0.647913  0  3.050167  0
N  N52  1  0.06016856  0.38288169  0.10230351  1  0  -0.483395  0  3.255401  0  0  -0.413222  0  3.500395  0  0  -0.437373  0  3.501319  0  0  -0.294374  -0.396085  0  3.497711  0
N  N53  1  0.43982411  0.88288589  0.39769813  1  0  -0.483321  0  3.255095  0  0  -0.413161  0  3.500083  0  0  -0.437303  0  3.501011  0  0  -0.294333  -0.396022  0  3.497396  0
N  N54  1  0.93983221  0.61711937  0.89769780  1  0  -0.48338  0  3.25543  0  0  -0.413229  0  3.500435  0  0  -0.437379  0  3.501358  0  0  -0.294374  -0.396094  0  3.497752  0
N  N55  1  0.56017121  0.11712055  0.60230298  1  0  -0.483394  0  3.255178  0  0  -0.413324  0  3.500272  0  0  -0.437462  0  3.501188  0  0  -0.294406  -0.396187  0  3.497592  0
N  N56  1  0.07382440  0.31866985  0.27038573  1  0  -0.694572  0  2.854246  0  0  -0.657116  0  3.128695  0  0  -0.687414  0  3.133497  0  0  -0.452028  -0.642938  0  3.12289  0
N  N57  1  0.42617351  0.81867172  0.22961736  1  0  -0.694667  0  2.854545  0  0  -0.657221  0  3.128977  0  0  -0.687504  0  3.133764  0  0  -0.452158  -0.643046  0  3.123178  0
N  N58  1  0.92617230  0.68132583  0.72961401  1  0  -0.694609  0  2.854326  0  0  -0.657153  0  3.12875  0  0  -0.687443  0  3.133544  0  0  -0.452036  -0.642972  0  3.122944  0
N  N59  1  0.57382317  0.18132934  0.77038381  1  0  -0.69462  0  2.854912  0  0  -0.657161  0  3.129325  0  0  -0.687461  0  3.134117  0  0  -0.452072  -0.642986  0  3.123526  0
N  N60  1  0.49533605  0.14400818  0.08504973  1  0  -0.724023  0  2.81545  0  0  -0.675588  0  3.076727  0  0  -0.706285  0  3.078899  0  0  -0.450575  -0.660811  0  3.073317  0
N  N61  1  0.00466778  0.64400876  0.41495386  1  0  -0.724118  0  2.814899  0  0  -0.675703  0  3.076165  0  0  -0.706399  0  3.078344  0  0  -0.450657  -0.660918  0  3.072754  0
N  N62  1  0.50467019  0.85599108  0.91494893  1  0  -0.724132  0  2.815293  0  0  -0.675717  0  3.076565  0  0  -0.706411  0  3.078751  0  0  -0.450694  -0.660939  0  3.073159  0
N  N63  1  0.99532761  0.35599230  0.58504159  1  0  -0.724138  0  2.815357  0  0  -0.675709  0  3.076596  0  0  -0.706416  0  3.078786  0  0  -0.450642  -0.660926  0  3.073183  0
N  N64  1  0.02231228  0.06952541  0.33669019  1  0  -0.715155  0  2.820736  0  0  -0.674784  0  3.096973  0  0  -0.705377  0  3.099317  0  0  -0.448212  -0.660637  0  3.09325  0
N  N65  1  0.47768749  0.56952482  0.16331167  1  0  -0.715238  0  2.82083  0  0  -0.674878  0  3.097077  0  0  -0.705463  0  3.099409  0  0  -0.448185  -0.660729  0  3.093358  0
N  N66  1  0.97768710  0.93046937  0.66331249  1  0  -0.715096  0  2.820393  0  0  -0.674737  0  3.09667  0  0  -0.705314  0  3.098997  0  0  -0.4482  -0.660582  0  3.092936  0
N  N67  1  0.52231187  0.43047534  0.83669383  1  0  -0.71491  0  2.820809  0  0  -0.674532  0  3.097035  0  0  -0.705133  0  3.099392  0  0  -0.448119  -0.660382  0  3.093315  0
N  N68  1  0.30862277  0.35866745  0.99390466  1  0  -0.702535  0  2.820737  0  0  -0.66121  0  3.100455  0  0  -0.691335  0  3.103023  0  0  -0.461418  -0.646997  0  3.096511  0
N  N69  1  0.19137153  0.85866944  0.50609578  1  0  -0.702589  0  2.820544  0  0  -0.661274  0  3.100263  0  0  -0.69139  0  3.102831  0  0  -0.46144  -0.647059  0  3.09632  0
N  N70  1  0.69138070  0.64133271  0.00609816  1  0  -0.702691  0  2.820625  0  0  -0.661378  0  3.100341  0  0  -0.691489  0  3.102891  0  0  -0.461473  -0.647164  0  3.096395  0
N  N71  1  0.80862650  0.14133251  0.49390614  1  0  -0.702646  0  2.820677  0  0  -0.661332  0  3.10039  0  0  -0.691456  0  3.10295  0  0  -0.461466  -0.647119  0  3.096442  0
N  N72  1  0.70407552  0.87042928  0.10926839  1  0  -0.685794  0  2.815943  0  0  -0.648047  0  3.094294  0  0  -0.678755  0  3.096853  0  0  -0.453624  -0.633947  0  3.089811  0
N  N73  1  0.79593159  0.37042251  0.39073361  1  0  -0.685839  0  2.815818  0  0  -0.648102  0  3.094228  0  0  -0.678821  0  3.09679  0  0  -0.453697  -0.63399  0  3.089724  0
N  N74  1  0.29592795  0.12957357  0.89073443  1  0  -0.685839  0  2.815927  0  0  -0.648087  0  3.094313  0  0  -0.678804  0  3.096867  0  0  -0.453694  -0.633979  0  3.089816  0
N  N75  1  0.20407054  0.62957496  0.60926774  1  0  -0.685808  0  2.815814  0  0  -0.648075  0  3.09419  0  0  -0.678784  0  3.096752  0  0  -0.453672  -0.633965  0  3.089704  0
N  N76  1  0.97752946  0.97320984  0.17929656  1  0  -0.480912  0  3.25266  0  0  -0.410479  0  3.495332  0  0  -0.434998  0  3.495891  0  0  -0.290609  -0.393148  0  3.492794  0
N  N77  1  0.52247578  0.47320499  0.32070349  1  0  -0.480817  0  3.252675  0  0  -0.410376  0  3.495333  0  0  -0.434905  0  3.495909  0  0  -0.290513  -0.393049  0  3.492804  0
N  N78  1  0.02247677  0.02679211  0.82070281  1  0  -0.48077  0  3.25283  0  0  -0.410309  0  3.495475  0  0  -0.434839  0  3.496049  0  0  -0.290536  -0.392982  0  3.492941  0
N  N79  1  0.47752494  0.52679337  0.67930135  1  0  -0.480743  0  3.252573  0  0  -0.410316  0  3.495242  0  0  -0.434839  0  3.495807  0  0  -0.290575  -0.39299  0  3.492713  0
O  O80  1  0.23363485  0.43307472  0.44656586  1  0  -0.904145  0  1.910127  0  0  -0.853854  0  2.099839  0  0  -0.882068  0  2.065873  0  0  -0.636312  -0.840431  0  2.119489  0
O  O81  1  0.26636642  0.93307898  0.05343549  1  0  -0.904265  0  1.909923  0  0  -0.85399  0  2.099663  0  0  -0.882202  0  2.065698  0  0  -0.636315  -0.840561  0  2.11932  0
O  O82  1  0.76636457  0.56692365  0.55343398  1  0  -0.904105  0  1.910197  0  0  -0.853832  0  2.099921  0  0  -0.882025  0  2.065933  0  0  -0.636304  -0.840408  0  2.119576  0
O  O83  1  0.73363296  0.06692028  0.94656719  1  0  -0.904294  0  1.909873  0  0  -0.854007  0  2.099645  0  0  -0.882227  0  2.065669  0  0  -0.636331  -0.840578  0  2.119304  0
O  O84  1  0.18742659  0.12416466  0.55662006  1  0  -0.92094  0  1.907408  0  0  -0.869066  0  2.102817  0  0  -0.898032  0  2.069356  0  0  -0.640357  -0.855391  0  2.122215  0
O  O85  1  0.31258012  0.62416198  0.94338521  1  0  -0.920915  0  1.907471  0  0  -0.869071  0  2.102869  0  0  -0.89803  0  2.069406  0  0  -0.640395  -0.855394  0  2.122267  0
O  O86  1  0.81257139  0.87583819  0.44338681  1  0  -0.920918  0  1.907485  0  0  -0.869085  0  2.102899  0  0  -0.898044  0  2.069439  0  0  -0.640395  -0.855406  0  2.122296  0
O  O87  1  0.68742474  0.37584177  0.05661411  1  0  -0.920969  0  1.907393  0  0  -0.86908  0  2.10289  0  0  -0.898048  0  2.069424  0  0  -0.640372  -0.855403  0  2.122289  0
