# generated using pymatgen
data_Cd2H4C5SN6O5
_symmetry_space_group_name_H-M   'P 1'
_cell_length_a   10.57103712
_cell_length_b   11.42455346
_cell_length_c   11.45965395
_cell_angle_alpha   72.19097916
_cell_angle_beta   62.53407213
_cell_angle_gamma   62.44219058
_symmetry_Int_Tables_number   1
_chemical_formula_structural   Cd2H4C5SN6O5
_chemical_formula_sum   'Cd8 H16 C20 S4 N24 O20'
_cell_volume   1081.11239308
_cell_formula_units_Z   4
loop_
 _symmetry_equiv_pos_site_id
 _symmetry_equiv_pos_as_xyz
  1  'x, y, z'
loop_
 _atom_site_type_symbol
 _atom_site_label
 _atom_site_symmetry_multiplicity
 _atom_site_fract_x
 _atom_site_fract_y
 _atom_site_fract_z
 _atom_site_occupancy
 _atom_site_hle17_bader_spin_density
 _atom_site_hle17_ddec_charge
 _atom_site_hle17_ddec_spin_density
 _atom_site_hle17_ddec_sum_bond_order
 _atom_site_hle17_magmom
 _atom_site_hse06_10hf_bader_spin_density
 _atom_site_hse06_10hf_ddec_charge
 _atom_site_hse06_10hf_ddec_spin_density
 _atom_site_hse06_10hf_ddec_sum_bond_order
 _atom_site_hse06_10hf_magmom
 _atom_site_hse06_bader_spin_density
 _atom_site_hse06_ddec_charge
 _atom_site_hse06_ddec_spin_density
 _atom_site_hse06_ddec_sum_bond_order
 _atom_site_hse06_magmom
 _atom_site_pbe_bader_spin_density
 _atom_site_pbe_cm5_charge
 _atom_site_pbe_ddec_charge
 _atom_site_pbe_ddec_spin_density
 _atom_site_pbe_ddec_sum_bond_order
 _atom_site_pbe_magmom
Cd  Cd0  1  0.72150061  0.74997729  0.74997077  1  0  1.215631  0  1.593869  0  0  1.014927  0  2.04997  0  0  1.071897  0  1.994872  0  0  0.766955  0.97353  0  2.087585  0
Cd  Cd1  1  0.27849913  0.25002240  0.25002955  1  0  1.215646  0  1.593846  0  0  1.01497  0  2.049916  0  0  1.071939  0  1.994815  0  0  0.766966  0.973566  0  2.087516  0
Cd  Cd2  1  0.10459802  0.76564569  0.50711388  1  0  1.215854  0  1.650739  0  0  1.027012  0  2.10412  0  0  1.07982  0  2.050575  0  0  0.790108  0.989576  0  2.140639  0
Cd  Cd3  1  0.87732269  0.73437534  0.99289151  1  0  1.214037  0  1.652066  0  0  1.024782  0  2.105631  0  0  1.077594  0  2.052149  0  0  0.789232  0.987333  0  2.142098  0
Cd  Cd4  1  0.89540154  0.23435500  0.49288499  1  0  1.215852  0  1.650723  0  0  1.027017  0  2.104093  0  0  1.079824  0  2.050551  0  0  0.7901  0.98957  0  2.140596  0
Cd  Cd5  1  0.12267810  0.26562535  0.00710827  1  0  1.214075  0  1.652062  0  0  1.024832  0  2.105621  0  0  1.077643  0  2.052133  0  0  0.789254  0.987386  0  2.142086  0
Cd  Cd6  1  0.50000122  0.99999940  0.99999937  1  0  1.153068  0  1.821689  0  0  0.966589  0  2.290455  0  0  1.015058  0  2.239754  0  0  0.781114  0.93166  0  2.325107  0
Cd  Cd7  1  0.00000027  0.50000045  0.49999971  1  0  1.152692  0  1.823141  0  0  0.965968  0  2.292242  0  0  1.01445  0  2.241512  0  0  0.780148  0.931021  0  2.326922  0
H  H8  1  0.60234313  0.72946334  0.02080816  1  0  0.416454  0  0.854363  0  0  0.391978  0  0.918809  0  0  0.401541  0  0.905189  0  0  0.292165  0.38503  0  0.926203  0
H  H9  1  0.85262824  0.77052109  0.47915955  1  0  0.416925  0  0.854428  0  0  0.392487  0  0.918147  0  0  0.402047  0  0.904548  0  0  0.291978  0.385544  0  0.926011  0
H  H10  1  0.39765784  0.27053635  0.97919307  1  0  0.416466  0  0.854409  0  0  0.39199  0  0.918806  0  0  0.401555  0  0.905183  0  0  0.29217  0.38504  0  0.926248  0
H  H11  1  0.14737194  0.22947960  0.52083977  1  0  0.41691  0  0.854418  0  0  0.39247  0  0.918165  0  0  0.402032  0  0.904564  0  0  0.291967  0.385522  0  0.926009  0
H  H12  1  0.25018846  0.56950913  0.84019118  1  0  0.112107  0  0.978793  0  0  0.116186  0  1.046761  0  0  0.119734  0  1.04355  0  0  0.120137  0.113321  0  1.049482  0
H  H13  1  0.15997337  0.93039944  0.65995654  1  0  0.11243  0  0.979902  0  0  0.116413  0  1.047969  0  0  0.120032  0  1.044667  0  0  0.121256  0.11355  0  1.050682  0
H  H14  1  0.74981154  0.43049056  0.15980781  1  0  0.112119  0  0.978781  0  0  0.116175  0  1.046765  0  0  0.119745  0  1.043525  0  0  0.12014  0.113308  0  1.049481  0
H  H15  1  0.84002725  0.06960025  0.34004290  1  0  0.112435  0  0.979895  0  0  0.116415  0  1.047966  0  0  0.120035  0  1.044663  0  0  0.121277  0.113553  0  1.050682  0
H  H16  1  0.26758624  0.80462757  0.11817420  1  0  0.095807  0  0.986462  0  0  0.09962  0  1.054868  0  0  0.102662  0  1.052795  0  0  0.116363  0.097217  0  1.056699  0
H  H17  1  0.69040505  0.69531696  0.38189476  1  0  0.095064  0  0.986812  0  0  0.098827  0  1.055379  0  0  0.101896  0  1.053229  0  0  0.115109  0.096417  0  1.057217  0
H  H18  1  0.73241289  0.19537213  0.88182566  1  0  0.095811  0  0.986447  0  0  0.099621  0  1.054855  0  0  0.102659  0  1.052798  0  0  0.116366  0.097221  0  1.056684  0
H  H19  1  0.30959470  0.30468273  0.61810556  1  0  0.095008  0  0.986853  0  0  0.098803  0  1.055394  0  0  0.101875  0  1.053239  0  0  0.115095  0.096398  0  1.057223  0
H  H20  1  0.01447285  0.81330622  0.14210857  1  0  0.102373  0  0.961046  0  0  0.102891  0  1.035313  0  0  0.106726  0  1.031527  0  0  0.122158  0.099735  0  1.038671  0
H  H21  1  0.46988283  0.68680494  0.35792984  1  0  0.102171  0  0.961318  0  0  0.102591  0  1.035575  0  0  0.106389  0  1.031801  0  0  0.122238  0.099489  0  1.038873  0
H  H22  1  0.98552628  0.18669347  0.85789129  1  0  0.102374  0  0.961033  0  0  0.102895  0  1.035295  0  0  0.106732  0  1.031505  0  0  0.122153  0.099734  0  1.038659  0
H  H23  1  0.53011647  0.31319575  0.64207036  1  0  0.102142  0  0.961302  0  0  0.102565  0  1.03557  0  0  0.106363  0  1.031795  0  0  0.122219  0.099464  0  1.038869  0
C  C24  1  0.53780088  0.54525220  0.79255271  1  0  0.243061  0  3.79923  0  0  0.214415  0  4.077758  0  0  0.223328  0  4.095499  0  0  0.217395  0.208533  0  4.065877  0
C  C25  1  0.37566938  0.95465668  0.70755894  1  0  0.241252  0  3.79846  0  0  0.214585  0  4.074914  0  0  0.223468  0  4.092632  0  0  0.216914  0.208703  0  4.06307  0
C  C26  1  0.46219886  0.45474750  0.20744761  1  0  0.243135  0  3.799216  0  0  0.214475  0  4.077766  0  0  0.223389  0  4.095509  0  0  0.217444  0.208601  0  4.06587  0
C  C27  1  0.62433053  0.04534401  0.29244171  1  0  0.241265  0  3.798485  0  0  0.214604  0  4.074941  0  0  0.223487  0  4.092656  0  0  0.216922  0.208703  0  4.063118  0
C  C28  1  0.39230718  0.61886568  0.89124793  1  0  0.114043  0  3.790759  0  0  0.121092  0  4.039701  0  0  0.121564  0  4.0595  0  0  0.125021  0.120226  0  4.026736  0
C  C29  1  0.40251077  0.88099151  0.60890993  1  0  0.11335  0  3.790308  0  0  0.119185  0  4.04033  0  0  0.119759  0  4.05997  0  0  0.125601  0.118289  0  4.027442  0
C  C30  1  0.60769344  0.38113401  0.10875152  1  0  0.114033  0  3.790761  0  0  0.121081  0  4.039715  0  0  0.121553  0  4.059518  0  0  0.12502  0.120211  0  4.026747  0
C  C31  1  0.59748853  0.11900917  0.39109027  1  0  0.113393  0  3.790303  0  0  0.119209  0  4.040351  0  0  0.119783  0  4.059989  0  0  0.125625  0.118315  0  4.027466  0
C  C32  1  0.25259415  0.62271084  0.90289212  1  0  0.068387  0  3.608686  0  0  0.032303  0  3.85093  0  0  0.036017  0  3.867838  0  0  0.059875  0.029919  0  3.839824  0
C  C33  1  0.27825703  0.87714823  0.59730249  1  0  0.071091  0  3.608762  0  0  0.035381  0  3.851575  0  0  0.039026  0  3.868388  0  0  0.059881  0.033015  0  3.840471  0
C  C34  1  0.74740629  0.37728786  0.09710699  1  0  0.068386  0  3.608714  0  0  0.032325  0  3.850967  0  0  0.036024  0  3.867863  0  0  0.059876  0.029944  0  3.839856  0
C  C35  1  0.72174314  0.12285047  0.40269794  1  0  0.071125  0  3.608811  0  0  0.03544  0  3.851595  0  0  0.039086  0  3.868408  0  0  0.059875  0.033063  0  3.840514  0
C  C36  1  0.26336606  0.75238436  0.05575975  1  0  0.089845  0  3.656066  0  0  0.064812  0  3.918297  0  0  0.065583  0  3.935333  0  0  0.048777  0.063891  0  3.907336  0
C  C37  1  0.57155655  0.74753935  0.44437335  1  0  0.09284  0  3.654735  0  0  0.068273  0  3.915692  0  0  0.069009  0  3.932821  0  0  0.052692  0.067369  0  3.904728  0
C  C38  1  0.73663412  0.24761632  0.94423958  1  0  0.089828  0  3.656091  0  0  0.064802  0  3.918315  0  0  0.06557  0  3.935353  0  0  0.048776  0.06388  0  3.907355  0
C  C39  1  0.42844188  0.25246133  0.55562772  1  0  0.092943  0  3.65475  0  0  0.068361  0  3.915687  0  0  0.069098  0  3.932811  0  0  0.052741  0.067453  0  3.904741  0
C  C40  1  0.12298108  0.75689092  0.06926766  1  0  0.104179  0  3.603877  0  0  0.07368  0  3.853202  0  0  0.078499  0  3.869496  0  0  0.060808  0.070374  0  3.842651  0
C  C41  1  0.44915941  0.74308523  0.43083776  1  0  0.104094  0  3.603524  0  0  0.073662  0  3.85278  0  0  0.07853  0  3.869  0  0  0.060204  0.070313  0  3.84227  0
C  C42  1  0.87701893  0.24310877  0.93073133  1  0  0.104181  0  3.603877  0  0  0.073682  0  3.853188  0  0  0.078501  0  3.869481  0  0  0.060812  0.070378  0  3.842647  0
C  C43  1  0.55083929  0.25691545  0.56916198  1  0  0.104167  0  3.603516  0  0  0.073711  0  3.852808  0  0  0.078579  0  3.869029  0  0  0.060201  0.070367  0  3.842295  0
S  S44  1  0.85194540  0.99067267  0.74855313  1  0  1.57469  0  5.843134  0  0  1.451303  0  6.37459  0  0  1.507602  0  6.341568  0  0  0.550391  1.412125  0  6.395927  0
S  S45  1  0.09111694  0.50928562  0.75143159  1  0  1.57561  0  5.841949  0  0  1.451995  0  6.37349  0  0  1.508318  0  6.340446  0  0  0.54982  1.412798  0  6.394845  0
S  S46  1  0.14805495  0.00932901  0.25144653  1  0  1.574693  0  5.843201  0  0  1.451301  0  6.37466  0  0  1.507603  0  6.341635  0  0  0.550368  1.412113  0  6.396007  0
S  S47  1  0.90888385  0.49071507  0.24856819  1  0  1.575628  0  5.841977  0  0  1.452023  0  6.373502  0  0  1.508355  0  6.340442  0  0  0.549844  1.412816  0  6.394868  0
N  N48  1  0.66590437  0.57250728  0.74167481  1  0  -0.314499  0  3.12772  0  0  -0.26265  0  3.412818  0  0  -0.279262  0  3.430149  0  0  -0.217041  -0.250851  0  3.400455  0
N  N49  1  0.48013142  0.92747832  0.75842052  1  0  -0.314245  0  3.126571  0  0  -0.263129  0  3.411544  0  0  -0.279734  0  3.428837  0  0  -0.218017  -0.25134  0  3.399236  0
N  N50  1  0.33409493  0.42749341  0.25832539  1  0  -0.314482  0  3.127699  0  0  -0.262621  0  3.412797  0  0  -0.279235  0  3.43013  0  0  -0.217025  -0.250813  0  3.400416  0
N  N51  1  0.51986981  0.07252138  0.24157938  1  0  -0.314248  0  3.126668  0  0  -0.263132  0  3.411638  0  0  -0.279738  0  3.42893  0  0  -0.218029  -0.251337  0  3.399319  0
N  N52  1  0.76974918  0.48531878  0.65462530  1  0  -0.114757  0  3.222909  0  0  -0.067321  0  3.509086  0  0  -0.075539  0  3.528801  0  0  -0.117396  -0.061362  0  3.495083  0
N  N53  1  0.40970842  0.01472355  0.84541683  1  0  -0.113548  0  3.222061  0  0  -0.066121  0  3.508321  0  0  -0.074332  0  3.528027  0  0  -0.115796  -0.060168  0  3.494329  0
N  N54  1  0.23025073  0.51468190  0.34537536  1  0  -0.114798  0  3.222899  0  0  -0.067379  0  3.509095  0  0  -0.075597  0  3.528811  0  0  -0.117427  -0.061429  0  3.495113  0
N  N55  1  0.59029132  0.98527614  0.15458348  1  0  -0.113586  0  3.22211  0  0  -0.066165  0  3.508379  0  0  -0.074375  0  3.528081  0  0  -0.115802  -0.060207  0  3.494367  0
N  N56  1  0.29138358  0.59203354  0.34675612  1  0  -0.109479  0  3.109034  0  0  -0.07178  0  3.4035  0  0  -0.077986  0  3.419836  0  0  -0.089142  -0.067048  0  3.391896  0
N  N57  1  0.73015269  0.90796153  0.15322752  1  0  -0.106701  0  3.105729  0  0  -0.068707  0  3.399875  0  0  -0.074923  0  3.416257  0  0  -0.087426  -0.063954  0  3.388212  0
N  N58  1  0.70861677  0.40796615  0.65324465  1  0  -0.10944  0  3.109001  0  0  -0.071743  0  3.403454  0  0  -0.077951  0  3.419792  0  0  -0.089119  -0.067004  0  3.391833  0
N  N59  1  0.26984810  0.09203915  0.84677226  1  0  -0.106745  0  3.105758  0  0  -0.068759  0  3.399915  0  0  -0.074973  0  3.416294  0  0  -0.087445  -0.064009  0  3.388256  0
N  N60  1  0.30254430  0.80751948  0.50851749  1  0  -0.277414  0  3.222403  0  0  -0.201572  0  3.486903  0  0  -0.218959  0  3.505492  0  0  -0.303034  -0.189795  0  3.473913  0
N  N61  1  0.11846427  0.69243782  0.99162300  1  0  -0.275164  0  3.222  0  0  -0.198856  0  3.485463  0  0  -0.216269  0  3.504105  0  0  -0.302234  -0.187055  0  3.472396  0
N  N62  1  0.69745544  0.19248021  0.49148282  1  0  -0.277543  0  3.222491  0  0  -0.201707  0  3.487007  0  0  -0.219094  0  3.505596  0  0  -0.303055  -0.189921  0  3.474005  0
N  N63  1  0.88153635  0.30756188  0.00837644  1  0  -0.275184  0  3.222014  0  0  -0.198881  0  3.485471  0  0  -0.216294  0  3.504118  0  0  -0.30224  -0.187078  0  3.472399  0
N  N64  1  0.56225049  0.44329932  0.73870027  1  0  -0.250487  0  2.897613  0  0  -0.232466  0  3.175189  0  0  -0.240981  0  3.188071  0  0  -0.197157  -0.226623  0  3.166907  0
N  N65  1  0.24430112  0.05662539  0.76135092  1  0  -0.252218  0  2.898003  0  0  -0.23491  0  3.17535  0  0  -0.243446  0  3.188272  0  0  -0.198697  -0.229043  0  3.167042  0
N  N66  1  0.43775030  0.55669938  0.26130062  1  0  -0.250502  0  2.897695  0  0  -0.232477  0  3.175277  0  0  -0.240997  0  3.188165  0  0  -0.197164  -0.226626  0  3.166983  0
N  N67  1  0.75569879  0.94337530  0.23864973  1  0  -0.252263  0  2.897996  0  0  -0.23496  0  3.175343  0  0  -0.243494  0  3.188262  0  0  -0.198737  -0.229097  0  3.167051  0
N  N68  1  0.39815216  0.68462238  0.96692425  1  0  -0.291621  0  3.054654  0  0  -0.26694  0  3.327037  0  0  -0.273524  0  3.3422  0  0  -0.294008  -0.262175  0  3.316739  0
N  N69  1  0.54978257  0.81527561  0.53319813  1  0  -0.294596  0  3.054925  0  0  -0.270083  0  3.327921  0  0  -0.276698  0  3.343012  0  0  -0.297769  -0.265304  0  3.317656  0
N  N70  1  0.60184741  0.31537831  0.03307462  1  0  -0.291624  0  3.054669  0  0  -0.266945  0  3.327044  0  0  -0.273527  0  3.342206  0  0  -0.294016  -0.262176  0  3.316744  0
N  N71  1  0.45021717  0.18472408  0.46680219  1  0  -0.294642  0  3.054935  0  0  -0.270126  0  3.327939  0  0  -0.276743  0  3.343034  0  0  -0.297768  -0.265341  0  3.31767  0
O  O72  1  0.87019673  0.89806061  0.66769502  1  0  -0.777909  0  2.048078  0  0  -0.698661  0  2.331977  0  0  -0.725258  0  2.311842  0  0  -0.371684  -0.679625  0  2.34533  0
O  O73  1  0.93593643  0.60192025  0.83229822  1  0  -0.778707  0  2.047801  0  0  -0.69917  0  2.331592  0  0  -0.725681  0  2.311273  0  0  -0.372118  -0.680176  0  2.345064  0
O  O74  1  0.12980362  0.10193908  0.33230575  1  0  -0.777874  0  2.048104  0  0  -0.698652  0  2.332049  0  0  -0.725246  0  2.311912  0  0  -0.371666  -0.679612  0  2.345399  0
O  O75  1  0.06406331  0.39807944  0.16770209  1  0  -0.778699  0  2.047762  0  0  -0.699181  0  2.331569  0  0  -0.725698  0  2.311245  0  0  -0.372137  -0.680189  0  2.345036  0
O  O76  1  0.65666476  0.78714681  0.95940591  1  0  -0.970316  0  1.835131  0  0  -0.86025  0  2.103869  0  0  -0.897386  0  2.072203  0  0  -0.588904  -0.833338  0  2.122506  0
O  O77  1  0.90326419  0.71284268  0.54053917  1  0  -0.971152  0  1.835599  0  0  -0.860942  0  2.104233  0  0  -0.898137  0  2.072534  0  0  -0.588509  -0.834017  0  2.123343  0
O  O78  1  0.34333542  0.21285387  0.04059342  1  0  -0.970346  0  1.835113  0  0  -0.860291  0  2.103815  0  0  -0.897427  0  2.072147  0  0  -0.588925  -0.833377  0  2.122494  0
O  O79  1  0.09673599  0.28715800  0.45946015  1  0  -0.971123  0  1.835552  0  0  -0.860912  0  2.104202  0  0  -0.898109  0  2.072501  0  0  -0.588505  -0.833987  0  2.123284  0
O  O80  1  0.18435748  0.58683339  0.65129059  1  0  -0.747538  0  2.008845  0  0  -0.68602  0  2.284857  0  0  -0.711169  0  2.267554  0  0  -0.371439  -0.667789  0  2.296034  0
O  O81  1  0.92265499  0.91310601  0.84865084  1  0  -0.748399  0  2.009103  0  0  -0.687218  0  2.285477  0  0  -0.712344  0  2.268173  0  0  -0.372242  -0.669005  0  2.296647  0
O  O82  1  0.81564270  0.41316730  0.34870874  1  0  -0.747541  0  2.008847  0  0  -0.686009  0  2.284837  0  0  -0.71116  0  2.267532  0  0  -0.371437  -0.667776  0  2.296008  0
O  O83  1  0.07734300  0.08689567  0.15135010  1  0  -0.748429  0  2.009168  0  0  -0.687234  0  2.285523  0  0  -0.712363  0  2.268216  0  0  -0.372235  -0.66901  0  2.296688  0
O  O84  1  0.06234842  0.92128040  0.33883529  1  0  -0.735286  0  2.018512  0  0  -0.665661  0  2.299287  0  0  -0.69081  0  2.278933  0  0  -0.36395  -0.647796  0  2.312984  0
O  O85  1  0.82243768  0.57878147  0.16124907  1  0  -0.737236  0  2.020026  0  0  -0.667608  0  2.300672  0  0  -0.692847  0  2.280469  0  0  -0.365566  -0.649724  0  2.314364  0
O  O86  1  0.93765176  0.07872029  0.66116403  1  0  -0.735323  0  2.01855  0  0  -0.665704  0  2.299328  0  0  -0.690851  0  2.278977  0  0  -0.36396  -0.647831  0  2.313  0
O  O87  1  0.17756162  0.42121922  0.83875113  1  0  -0.737217  0  2.02001  0  0  -0.667591  0  2.300668  0  0  -0.692826  0  2.280464  0  0  -0.365551  -0.649711  0  2.314363  0
O  O88  1  0.68578428  0.07192603  0.81155009  1  0  -0.732037  0  1.998632  0  0  -0.672871  0  2.273771  0  0  -0.695859  0  2.255496  0  0  -0.36299  -0.656293  0  2.285773  0
O  O89  1  0.06912527  0.42804135  0.68848020  1  0  -0.730824  0  1.998006  0  0  -0.67169  0  2.273715  0  0  -0.694599  0  2.255228  0  0  -0.360587  -0.655116  0  2.285745  0
O  O90  1  0.31421502  0.92807466  0.18845010  1  0  -0.732085  0  1.99863  0  0  -0.672919  0  2.273772  0  0  -0.695909  0  2.255498  0  0  -0.363005  -0.656335  0  2.285774  0
O  O91  1  0.93087491  0.57195934  0.31151913  1  0  -0.730842  0  1.998075  0  0  -0.671713  0  2.273784  0  0  -0.694627  0  2.255298  0  0  -0.360596  -0.655127  0  2.285788  0
