# generated using pymatgen
data_Ag2H11C24N3(O2F3)2
_symmetry_space_group_name_H-M   'P 1'
_cell_length_a   7.02327882
_cell_length_b   11.12188893
_cell_length_c   15.29362039
_cell_angle_alpha   89.99979322
_cell_angle_beta   90.00015905
_cell_angle_gamma   94.90262191
_symmetry_Int_Tables_number   1
_chemical_formula_structural   Ag2H11C24N3(O2F3)2
_chemical_formula_sum   'Ag4 H22 C48 N6 O8 F12'
_cell_volume   1190.24657406
_cell_formula_units_Z   2
loop_
 _symmetry_equiv_pos_site_id
 _symmetry_equiv_pos_as_xyz
  1  'x, y, z'
loop_
 _atom_site_type_symbol
 _atom_site_label
 _atom_site_symmetry_multiplicity
 _atom_site_fract_x
 _atom_site_fract_y
 _atom_site_fract_z
 _atom_site_occupancy
 _atom_site_hle17_bader_spin_density
 _atom_site_hle17_ddec_charge
 _atom_site_hle17_ddec_spin_density
 _atom_site_hle17_ddec_sum_bond_order
 _atom_site_hle17_magmom
 _atom_site_hse06_10hf_bader_spin_density
 _atom_site_hse06_10hf_ddec_charge
 _atom_site_hse06_10hf_ddec_spin_density
 _atom_site_hse06_10hf_ddec_sum_bond_order
 _atom_site_hse06_10hf_magmom
 _atom_site_hse06_bader_spin_density
 _atom_site_hse06_ddec_charge
 _atom_site_hse06_ddec_spin_density
 _atom_site_hse06_ddec_sum_bond_order
 _atom_site_hse06_magmom
 _atom_site_pbe_bader_spin_density
 _atom_site_pbe_cm5_charge
 _atom_site_pbe_ddec_charge
 _atom_site_pbe_ddec_spin_density
 _atom_site_pbe_ddec_sum_bond_order
 _atom_site_pbe_magmom
Ag  Ag0  1  0.25000271  0.00000513  0.74199452  1  0  0.62823  0  1.500191  0  0  0.504658  0  2.004875  0  0  0.53294  0  1.942363  0  0  0.467189  0.486007  0  2.047925  0
Ag  Ag1  1  0.75000647  0.00000286  0.25800742  1  0  0.628224  0  1.500104  0  0  0.504739  0  2.004563  0  0  0.533075  0  1.941938  0  0  0.467231  0.486081  0  2.047614  0
Ag  Ag2  1  0.24999342  0.99999778  0.55231085  1  0  0.664335  0  1.233524  0  0  0.526384  0  1.688075  0  0  0.566787  0  1.624563  0  0  0.415415  0.497333  0  1.732405  0
Ag  Ag3  1  0.74999543  0.99999552  0.44768978  1  0  0.664339  0  1.233414  0  0  0.526325  0  1.688143  0  0  0.566758  0  1.624581  0  0  0.415363  0.497277  0  1.732466  0
H  H4  1  0.82793817  0.61977212  0.86518402  1  0  0.115422  0  0.928728  0  0  0.126992  0  0.986516  0  0  0.130303  0  0.983953  0  0  0.111183  0.124494  0  0.988546  0
H  H5  1  0.67207053  0.38023378  0.86518292  1  0  0.115422  0  0.928769  0  0  0.127011  0  0.986519  0  0  0.130324  0  0.983947  0  0  0.111214  0.124501  0  0.988564  0
H  H6  1  0.17207786  0.38023893  0.13481661  1  0  0.115385  0  0.928858  0  0  0.12701  0  0.986548  0  0  0.13033  0  0.983959  0  0  0.111191  0.124485  0  0.988624  0
H  H7  1  0.32793625  0.61977184  0.13481575  1  0  0.115412  0  0.928746  0  0  0.126981  0  0.986549  0  0  0.130296  0  0.983978  0  0  0.111162  0.124488  0  0.988572  0
H  H8  1  0.91746742  0.73706270  0.18185717  1  0  0.133438  0  0.987271  0  0  0.137845  0  1.055016  0  0  0.142472  0  1.052158  0  0  0.105884  0.134492  0  1.057244  0
H  H9  1  0.58253595  0.26294370  0.18185495  1  0  0.133458  0  0.987217  0  0  0.137828  0  1.055017  0  0  0.142455  0  1.052159  0  0  0.105881  0.134473  0  1.057246  0
H  H10  1  0.08253497  0.26294201  0.81814673  1  0  0.133489  0  0.987257  0  0  0.137865  0  1.055026  0  0  0.142492  0  1.052169  0  0  0.105899  0.13451  0  1.057257  0
H  H11  1  0.41746656  0.73706191  0.81814502  1  0  0.133441  0  0.987323  0  0  0.137823  0  1.05506  0  0  0.142452  0  1.052195  0  0  0.105871  0.134467  0  1.05729  0
H  H12  1  0.01304960  0.88162066  0.06426029  1  0  0.102122  0  0.949001  0  0  0.114694  0  1.00513  0  0  0.117063  0  1.004427  0  0  0.106415  0.113208  0  1.005115  0
H  H13  1  0.48696177  0.11838321  0.06425702  1  0  0.102061  0  0.94904  0  0  0.114606  0  1.005222  0  0  0.116974  0  1.00452  0  0  0.106364  0.113121  0  1.005186  0
H  H14  1  0.98696134  0.11838406  0.93574492  1  0  0.1021  0  0.948994  0  0  0.114658  0  1.005148  0  0  0.117027  0  1.004444  0  0  0.106389  0.113175  0  1.005111  0
H  H15  1  0.51304905  0.88162062  0.93574230  1  0  0.102127  0  0.949012  0  0  0.114703  0  1.005157  0  0  0.11707  0  1.004454  0  0  0.106416  0.113221  0  1.005122  0
H  H16  1  0.90738695  0.34159616  0.24517754  1  0  0.098664  0  0.957526  0  0  0.108839  0  1.02256  0  0  0.111316  0  1.02149  0  0  0.100921  0.107056  0  1.023393  0
H  H17  1  0.59261498  0.65840724  0.24517888  1  0  0.098688  0  0.957539  0  0  0.108862  0  1.022533  0  0  0.11134  0  1.021463  0  0  0.100945  0.107078  0  1.02337  0
H  H18  1  0.09261034  0.65840223  0.75481785  1  0  0.098718  0  0.957648  0  0  0.108881  0  1.022643  0  0  0.11135  0  1.021594  0  0  0.100919  0.107095  0  1.023485  0
H  H19  1  0.40739133  0.34159477  0.75482436  1  0  0.098587  0  0.95754  0  0  0.108779  0  1.022557  0  0  0.111255  0  1.021482  0  0  0.100916  0.106997  0  1.023391  0
H  H20  1  0.90577051  0.34131645  0.40748509  1  0  0.091638  0  0.959599  0  0  0.099234  0  1.025175  0  0  0.102713  0  1.022479  0  0  0.094267  0.0967  0  1.027207  0
H  H21  1  0.59421839  0.65867804  0.40748643  1  0  0.092235  0  0.958507  0  0  0.099242  0  1.025107  0  0  0.10272  0  1.022412  0  0  0.09427  0.096708  0  1.02714  0
H  H22  1  0.09421683  0.65867109  0.59251096  1  0  0.092057  0  0.958709  0  0  0.099246  0  1.025036  0  0  0.102697  0  1.022397  0  0  0.094257  0.096711  0  1.027068  0
H  H23  1  0.40577654  0.34131312  0.59251616  1  0  0.091629  0  0.959488  0  0  0.099191  0  1.025166  0  0  0.10267  0  1.022469  0  0  0.094241  0.096656  0  1.0272  0
H  H24  1  0.74999235  0.49999569  0.48888016  1  0  0.094664  0  0.959272  0  0  0.103571  0  1.021724  0  0  0.106587  0  1.020231  0  0  0.095155  0.101383  0  1.022901  0
H  H25  1  0.24999618  0.49999004  0.51111917  1  0  0.093991  0  0.960261  0  0  0.103535  0  1.021732  0  0  0.106545  0  1.020253  0  0  0.095132  0.101347  0  1.02291  0
C  C26  1  0.98052855  0.84446461  0.89250502  1  0  0.300729  0  3.754828  0  0  0.282893  0  4.019326  0  0  0.296408  0  4.037682  0  0  0.199645  0.273751  0  4.006976  0
C  C27  1  0.51948932  0.15554480  0.89250627  1  0  0.300621  0  3.754569  0  0  0.282805  0  4.019155  0  0  0.296326  0  4.037499  0  0  0.199531  0.273656  0  4.006807  0
C  C28  1  0.01949295  0.15554465  0.10749627  1  0  0.300702  0  3.754801  0  0  0.282867  0  4.019419  0  0  0.296387  0  4.037767  0  0  0.199594  0.27372  0  4.007065  0
C  C29  1  0.48052505  0.84446444  0.10749567  1  0  0.300773  0  3.75475  0  0  0.28294  0  4.019291  0  0  0.29646  0  4.037633  0  0  0.199641  0.273795  0  4.006943  0
C  C30  1  0.92572519  0.75898084  0.95829135  1  0  -0.013833  0  3.917051  0  0  0.006495  0  4.156985  0  0  0.000461  0  4.180451  0  0  -0.013525  0.010407  0  4.141038  0
C  C31  1  0.57428412  0.24102553  0.95829114  1  0  -0.013587  0  3.916969  0  0  0.006613  0  4.157103  0  0  0.000577  0  4.180573  0  0  -0.013477  0.010527  0  4.141156  0
C  C32  1  0.07429037  0.24102660  0.04171059  1  0  -0.013556  0  3.916807  0  0  0.006617  0  4.157014  0  0  0.000583  0  4.180486  0  0  -0.01346  0.010532  0  4.141063  0
C  C33  1  0.42572432  0.75898190  0.04170818  1  0  -0.013812  0  3.917177  0  0  0.006495  0  4.157135  0  0  0.000459  0  4.180611  0  0  -0.013517  0.010411  0  4.141189  0
C  C34  1  0.84654632  0.64334846  0.93395646  1  0  -0.08754  0  3.681854  0  0  -0.121154  0  3.937954  0  0  -0.11822  0  3.954146  0  0  -0.069008  -0.122801  0  3.927002  0
C  C35  1  0.65346275  0.35665713  0.93395606  1  0  -0.087642  0  3.681807  0  0  -0.121211  0  3.937963  0  0  -0.118272  0  3.954153  0  0  -0.06908  -0.122851  0  3.92702  0
C  C36  1  0.15346509  0.35665988  0.06604482  1  0  -0.087677  0  3.681749  0  0  -0.12127  0  3.93792  0  0  -0.118333  0  3.954114  0  0  -0.069093  -0.122907  0  3.926972  0
C  C37  1  0.34654712  0.64335030  0.06604392  1  0  -0.087629  0  3.681897  0  0  -0.121235  0  3.938017  0  0  -0.118302  0  3.954218  0  0  -0.06902  -0.122885  0  3.927065  0
C  C38  1  0.79165151  0.56167535  0.99980622  1  0  -0.02957  0  3.820438  0  0  -0.021459  0  4.066477  0  0  -0.025739  0  4.091148  0  0  -0.014295  -0.018772  0  4.049858  0
C  C39  1  0.70835409  0.43833353  0.99980763  1  0  -0.029615  0  3.820452  0  0  -0.021612  0  4.066555  0  0  -0.025894  0  4.091233  0  0  -0.014272  -0.018922  0  4.049934  0
C  C40  1  0.20835882  0.43833569  0.00019311  1  0  -0.029663  0  3.820462  0  0  -0.021637  0  4.066574  0  0  -0.02592  0  4.091254  0  0  -0.014287  -0.018946  0  4.049947  0
C  C41  1  0.29165173  0.56167570  0.00019235  1  0  -0.029478  0  3.820304  0  0  -0.02137  0  4.066361  0  0  -0.025648  0  4.091032  0  0  -0.014266  -0.018684  0  4.049744  0
C  C42  1  0.81591935  0.59650485  0.08921408  1  0  0.169723  0  3.751247  0  0  0.152438  0  4.005551  0  0  0.162137  0  4.024975  0  0  0.107905  0.145865  0  3.992488  0
C  C43  1  0.68408342  0.40350109  0.08921425  1  0  0.169782  0  3.751388  0  0  0.152602  0  4.005581  0  0  0.162295  0  4.025012  0  0  0.10791  0.146024  0  3.992521  0
C  C44  1  0.18408565  0.40349806  0.91078590  1  0  0.169823  0  3.751326  0  0  0.152596  0  4.005536  0  0  0.162291  0  4.024963  0  0  0.107904  0.14602  0  3.992477  0
C  C45  1  0.31592074  0.59650634  0.91078508  1  0  0.169848  0  3.751074  0  0  0.152518  0  4.005418  0  0  0.162217  0  4.024839  0  0  0.107949  0.145943  0  3.992355  0
C  C46  1  0.89691566  0.71064507  0.11370916  1  0  -0.157637  0  3.729068  0  0  -0.177912  0  3.989922  0  0  -0.184537  0  4.009148  0  0  -0.094818  -0.173748  0  3.977585  0
C  C47  1  0.60309341  0.28936437  0.11370887  1  0  -0.157692  0  3.72913  0  0  -0.177963  0  3.989943  0  0  -0.184588  0  4.009172  0  0  -0.094868  -0.173796  0  3.977601  0
C  C48  1  0.10308993  0.28936235  0.88629408  1  0  -0.157726  0  3.729174  0  0  -0.177957  0  3.989951  0  0  -0.184582  0  4.009173  0  0  -0.094864  -0.173795  0  3.977616  0
C  C49  1  0.39691669  0.71064487  0.88629176  1  0  -0.15768  0  3.729156  0  0  -0.1779  0  3.989977  0  0  -0.184524  0  4.009192  0  0  -0.094818  -0.173734  0  3.97764  0
C  C50  1  0.95065758  0.79161125  0.04737555  1  0  -0.06647  0  3.724098  0  0  -0.090734  0  3.973011  0  0  -0.089497  0  3.993904  0  0  -0.075978  -0.091167  0  3.958207  0
C  C51  1  0.54935091  0.20839670  0.04737736  1  0  -0.066424  0  3.723917  0  0  -0.090616  0  3.972828  0  0  -0.089379  0  3.993721  0  0  -0.075863  -0.091041  0  3.958021  0
C  C52  1  0.04935371  0.20839619  0.95262573  1  0  -0.066493  0  3.723914  0  0  -0.090695  0  3.972834  0  0  -0.089459  0  3.993725  0  0  -0.075902  -0.091115  0  3.958029  0
C  C53  1  0.45065741  0.79160983  0.95262458  1  0  -0.066459  0  3.724254  0  0  -0.090721  0  3.973118  0  0  -0.089483  0  3.994009  0  0  -0.075961  -0.091152  0  3.958315  0
C  C54  1  0.74999667  0.50000171  0.23552550  1  0  0.17482  0  3.776417  0  0  0.170177  0  4.024143  0  0  0.175002  0  4.046753  0  0  0.085345  0.166916  0  4.00867  0
C  C55  1  0.24999694  0.50000118  0.76447448  1  0  0.174782  0  3.776412  0  0  0.170162  0  4.02411  0  0  0.174985  0  4.046715  0  0  0.085325  0.1669  0  4.00864  0
C  C56  1  0.83872294  0.41087289  0.28084065  1  0  -0.140188  0  3.739869  0  0  -0.162475  0  3.991983  0  0  -0.165106  0  4.012497  0  0  -0.093564  -0.160579  0  3.978032  0
C  C57  1  0.66127705  0.58912492  0.28084226  1  0  -0.140238  0  3.740079  0  0  -0.162535  0  3.992172  0  0  -0.165168  0  4.012689  0  0  -0.0936  -0.160636  0  3.978221  0
C  C58  1  0.16127424  0.58912459  0.71915606  1  0  -0.140311  0  3.740103  0  0  -0.162613  0  3.992172  0  0  -0.165253  0  4.012701  0  0  -0.093589  -0.160714  0  3.978218  0
C  C59  1  0.33872321  0.41087437  0.71916034  1  0  -0.140133  0  3.739802  0  0  -0.162453  0  3.991986  0  0  -0.165075  0  4.012482  0  0  -0.093597  -0.160551  0  3.978036  0
C  C60  1  0.83764732  0.41095351  0.37201657  1  0  -0.055094  0  3.766393  0  0  -0.066866  0  4.014175  0  0  -0.069126  0  4.03635  0  0  -0.093845  -0.065343  0  3.999231  0
C  C61  1  0.66234745  0.58904386  0.37201818  1  0  -0.054692  0  3.76484  0  0  -0.066849  0  4.013877  0  0  -0.069112  0  4.036053  0  0  -0.093843  -0.065324  0  3.998935  0
C  C62  1  0.16234465  0.58903674  0.62798144  1  0  -0.054778  0  3.76541  0  0  -0.066745  0  4.013914  0  0  -0.069014  0  4.036113  0  0  -0.093813  -0.065233  0  3.998972  0
C  C63  1  0.33765080  0.41095092  0.62798245  1  0  -0.054943  0  3.766009  0  0  -0.06675  0  4.013988  0  0  -0.069012  0  4.036162  0  0  -0.093756  -0.065234  0  3.999047  0
C  C64  1  0.74999478  0.49999406  0.41770080  1  0  -0.068518  0  3.748144  0  0  -0.08551  0  3.99535  0  0  -0.087677  0  4.017969  0  0  -0.094336  -0.084043  0  3.980113  0
C  C65  1  0.24999410  0.49999438  0.58229852  1  0  -0.068773  0  3.749196  0  0  -0.08556  0  3.995473  0  0  -0.087729  0  4.018088  0  0  -0.094358  -0.084086  0  3.980222  0
C  C66  1  0.97063227  0.15647561  0.63486319  1  0  0.502628  0  4.00708  0  0  0.449382  0  4.291505  0  0  0.480268  0  4.290765  0  0  0.199783  0.428416  0  4.291287  0
C  C67  1  0.52935401  0.84352142  0.63486135  1  0  0.503461  0  4.005331  0  0  0.449527  0  4.291544  0  0  0.480358  0  4.290923  0  0  0.199867  0.428559  0  4.291328  0
C  C68  1  0.02935744  0.84351915  0.36512371  1  0  0.502736  0  4.007188  0  0  0.449502  0  4.291577  0  0  0.480396  0  4.290806  0  0  0.199844  0.428536  0  4.291365  0
C  C69  1  0.47063427  0.15647334  0.36512359  1  0  0.502623  0  4.007338  0  0  0.449446  0  4.291662  0  0  0.480327  0  4.290917  0  0  0.199775  0.428479  0  4.291449  0
C  C70  1  0.79561528  0.23325624  0.63682392  1  0  0.679946  0  3.638384  0  0  0.610131  0  3.980155  0  0  0.636735  0  3.954094  0  0  0.300425  0.591092  0  3.998873  0
C  C71  1  0.70436638  0.76673806  0.63682513  1  0  0.682244  0  3.634427  0  0  0.609995  0  3.980231  0  0  0.636383  0  3.954565  0  0  0.300363  0.590958  0  3.99895  0
C  C72  1  0.20437584  0.76673852  0.36317540  1  0  0.679997  0  3.638153  0  0  0.610205  0  3.979821  0  0  0.636797  0  3.953779  0  0  0.300472  0.591167  0  3.998544  0
C  C73  1  0.29561122  0.23325127  0.36317289  1  0  0.679808  0  3.638697  0  0  0.610336  0  3.979868  0  0  0.63695  0  3.9538  0  0  0.300483  0.591298  0  3.99859  0
N  N74  1  0.02471935  0.91557185  0.83828953  1  0  -0.428063  0  2.823871  0  0  -0.384159  0  3.108752  0  0  -0.398541  0  3.111963  0  0  -0.336701  -0.374981  0  3.10721  0
N  N75  1  0.47528929  0.08443109  0.83828111  1  0  -0.428105  0  2.823469  0  0  -0.384182  0  3.108362  0  0  -0.398531  0  3.11151  0  0  -0.336655  -0.375003  0  3.106821  0
N  N76  1  0.97530191  0.08443560  0.16171960  1  0  -0.428211  0  2.82386  0  0  -0.384212  0  3.108603  0  0  -0.398563  0  3.111742  0  0  -0.336707  -0.375029  0  3.107057  0
N  N77  1  0.52471714  0.91557183  0.16171102  1  0  -0.428103  0  2.82377  0  0  -0.384227  0  3.108678  0  0  -0.398579  0  3.111816  0  0  -0.336713  -0.375044  0  3.107135  0
N  N78  1  0.75000224  0.50000284  0.14208261  1  0  -0.184076  0  3.502676  0  0  -0.105609  0  3.72101  0  0  -0.124188  0  3.74482  0  0  -0.227559  -0.092854  0  3.704472  0
N  N79  1  0.25000169  0.50000277  0.85791671  1  0  -0.184122  0  3.502623  0  0  -0.105628  0  3.720965  0  0  -0.124208  0  3.744772  0  0  -0.22755  -0.092876  0  3.704429  0
O  O80  1  0.06123259  0.15180302  0.70500622  1  0  -0.547331  0  2.162406  0  0  -0.491203  0  2.426373  0  0  -0.519716  0  2.4177  0  0  -0.29972  -0.471315  0  2.431574  0
O  O81  1  0.43875767  0.84819600  0.70501079  1  0  -0.547344  0  2.161869  0  0  -0.491238  0  2.425999  0  0  -0.519753  0  2.417349  0  0  -0.299711  -0.471347  0  2.431199  0
O  O82  1  0.93878558  0.84820263  0.29499702  1  0  -0.547247  0  2.163353  0  0  -0.49117  0  2.427329  0  0  -0.519661  0  2.418619  0  0  -0.299698  -0.471293  0  2.432538  0
O  O83  1  0.56122219  0.15179964  0.29499899  1  0  -0.547162  0  2.163322  0  0  -0.49113  0  2.427305  0  0  -0.519616  0  2.418607  0  0  -0.299694  -0.471251  0  2.432512  0
O  O84  1  0.99702866  0.10514488  0.56232323  1  0  -0.584594  0  2.195523  0  0  -0.511993  0  2.48021  0  0  -0.545484  0  2.468374  0  0  -0.317846  -0.488428  0  2.487459  0
O  O85  1  0.50295831  0.89484978  0.56232579  1  0  -0.58381  0  2.194568  0  0  -0.511986  0  2.480665  0  0  -0.545461  0  2.468826  0  0  -0.317834  -0.488422  0  2.487914  0
O  O86  1  0.00296258  0.89485079  0.43768198  1  0  -0.584442  0  2.194225  0  0  -0.512116  0  2.479519  0  0  -0.545612  0  2.467671  0  0  -0.31787  -0.488537  0  2.486762  0
O  O87  1  0.49702630  0.10513866  0.43767942  1  0  -0.584589  0  2.194794  0  0  -0.512077  0  2.479574  0  0  -0.545544  0  2.467678  0  0  -0.317773  -0.4885  0  2.486814  0
F  F88  1  0.79886785  0.30947856  0.70658167  1  0  -0.247948  0  1.166601  0  0  -0.205703  0  1.325722  0  0  -0.215725  0  1.311435  0  0  -0.100308  -0.198324  0  1.335589  0
F  F89  1  0.70111205  0.69050999  0.70657980  1  0  -0.246783  0  1.165593  0  0  -0.205709  0  1.325818  0  0  -0.215808  0  1.31163  0  0  -0.100292  -0.198332  0  1.335689  0
F  F90  1  0.20112162  0.69051440  0.29341961  1  0  -0.247999  0  1.166614  0  0  -0.205765  0  1.32573  0  0  -0.215789  0  1.311447  0  0  -0.10031  -0.198385  0  1.335601  0
F  F91  1  0.29885975  0.30946759  0.29341298  1  0  -0.247936  0  1.166759  0  0  -0.205742  0  1.325754  0  0  -0.215762  0  1.311463  0  0  -0.100303  -0.198359  0  1.335624  0
F  F92  1  0.78356088  0.30139150  0.56358806  1  0  -0.231154  0  1.1827  0  0  -0.196639  0  1.357155  0  0  -0.207112  0  1.3422  0  0  -0.088653  -0.188966  0  1.367498  0
F  F93  1  0.71642846  0.69861037  0.56358684  1  0  -0.240537  0  1.19183  0  0  -0.196677  0  1.357122  0  0  -0.207227  0  1.342264  0  0  -0.088738  -0.189008  0  1.367467  0
F  F94  1  0.21643630  0.69860598  0.43641257  1  0  -0.231186  0  1.182501  0  0  -0.196702  0  1.357044  0  0  -0.207175  0  1.342095  0  0  -0.088711  -0.189031  0  1.36739  0
F  F95  1  0.28355791  0.30139160  0.43640725  1  0  -0.231259  0  1.182775  0  0  -0.196745  0  1.357023  0  0  -0.207213  0  1.342062  0  0  -0.088705  -0.189074  0  1.36737  0
F  F96  1  0.63061082  0.15878812  0.64263679  1  0  -0.259064  0  1.17227  0  0  -0.215459  0  1.346596  0  0  -0.225911  0  1.329259  0  0  -0.098776  -0.208404  0  1.359228  0
F  F97  1  0.86937325  0.84120255  0.64264390  1  0  -0.257997  0  1.171221  0  0  -0.215372  0  1.346492  0  0  -0.225079  0  1.328522  0  0  -0.098724  -0.208318  0  1.359121  0
F  F98  1  0.36938660  0.84120035  0.35735926  1  0  -0.259023  0  1.172088  0  0  -0.215448  0  1.346408  0  0  -0.225877  0  1.329053  0  0  -0.098802  -0.208395  0  1.359042  0
F  F99  1  0.13060519  0.15878226  0.35736196  1  0  -0.258988  0  1.172293  0  0  -0.21555  0  1.346554  0  0  -0.226031  0  1.329232  0  0  -0.098827  -0.208498  0  1.359187  0
