# generated using pymatgen
data_LiH5(C2O)4
_symmetry_space_group_name_H-M   'P 1'
_cell_length_a   5.09018450
_cell_length_b   8.36312960
_cell_length_c   16.23276052
_cell_angle_alpha   90.00101782
_cell_angle_beta   89.99925385
_cell_angle_gamma   89.64140277
_symmetry_Int_Tables_number   1
_chemical_formula_structural   LiH5(C2O)4
_chemical_formula_sum   'Li4 H20 C32 O16'
_cell_volume   691.01301442
_cell_formula_units_Z   4
loop_
 _symmetry_equiv_pos_site_id
 _symmetry_equiv_pos_as_xyz
  1  'x, y, z'
loop_
 _atom_site_type_symbol
 _atom_site_label
 _atom_site_symmetry_multiplicity
 _atom_site_fract_x
 _atom_site_fract_y
 _atom_site_fract_z
 _atom_site_occupancy
 _atom_site_pbe_bader_spin_density
 _atom_site_pbe_cm5_charge
 _atom_site_pbe_ddec_charge
 _atom_site_pbe_ddec_spin_density
 _atom_site_pbe_ddec_sum_bond_order
 _atom_site_pbe_magmom
Li  Li0  1  0.20269977  0.53415923  0.55241761  1  0  0.504817  0.810151  0  0.510274  0
Li  Li1  1  0.79729854  0.96584308  0.05241901  1  0  0.504813  0.810147  0  0.510279  0
Li  Li2  1  0.79728998  0.46583770  0.44758119  1  0  0.504818  0.810145  0  0.510306  0
Li  Li3  1  0.20270303  0.03416575  0.94758164  1  0  0.50481  0.81015  0  0.510286  0
H  H4  1  0.44631274  0.31116611  0.76049347  1  0  0.112615  0.114468  0  1.018364  0
H  H5  1  0.55368034  0.18884044  0.26049764  1  0  0.112617  0.114456  0  1.018362  0
H  H6  1  0.55368490  0.68883916  0.23951026  1  0  0.112604  0.114451  0  1.018327  0
H  H7  1  0.44631333  0.81115409  0.73950055  1  0  0.112586  0.114411  0  1.018317  0
H  H8  1  0.95389120  0.52766316  0.94075481  1  0  0.110044  0.106668  0  1.036539  0
H  H9  1  0.04610052  0.97234305  0.44075500  1  0  0.110024  0.106626  0  1.03662  0
H  H10  1  0.04612804  0.47234080  0.05924337  1  0  0.110048  0.106667  0  1.036523  0
H  H11  1  0.95388729  0.02766226  0.55924565  1  0  0.110029  0.106661  0  1.036563  0
H  H12  1  0.19348099  0.66705726  0.82986519  1  0  0.106154  0.111233  0  1.024392  0
H  H13  1  0.80651345  0.83294630  0.32986472  1  0  0.106161  0.111205  0  1.02439  0
H  H14  1  0.80652449  0.33294199  0.17012929  1  0  0.106191  0.111267  0  1.024365  0
H  H15  1  0.19348025  0.16705898  0.67013592  1  0  0.106162  0.111239  0  1.024345  0
H  H16  1  0.07066758  0.62430157  0.68439338  1  0  0.113545  0.096255  0  1.059277  0
H  H17  1  0.92933497  0.87570051  0.18439342  1  0  0.11354  0.096225  0  1.059353  0
H  H18  1  0.92933004  0.37569772  0.31560295  1  0  0.113529  0.096209  0  1.05931  0
H  H19  1  0.07066654  0.12428800  0.81560846  1  0  0.113529  0.096138  0  1.059433  0
H  H20  1  0.58038264  0.24909111  0.03801013  1  0  0.314819  0.358381  0  0.984389  0
H  H21  1  0.41961789  0.25091847  0.53801537  1  0  0.314813  0.358418  0  0.984322  0
H  H22  1  0.41962091  0.75092250  0.96199175  1  0  0.314844  0.358497  0  0.984226  0
H  H23  1  0.58038364  0.74907601  0.46198466  1  0  0.314878  0.358501  0  0.984188  0
C  C24  1  0.75042288  0.46354394  0.71231997  1  0  -0.01205  -0.059064  0  3.960633  0
C  C25  1  0.24958401  0.03645848  0.21232153  1  0  -0.012063  -0.059068  0  3.960604  0
C  C26  1  0.24957474  0.53645774  0.28768006  1  0  -0.01209  -0.059125  0  3.96068  0
C  C27  1  0.75042144  0.96353359  0.78767850  1  0  -0.012102  -0.059164  0  3.960749  0
C  C28  1  0.60997863  0.38885511  0.77542379  1  0  -0.062413  -0.082331  0  3.917894  0
C  C29  1  0.39001970  0.11114715  0.27542791  1  0  -0.062441  -0.082372  0  3.918146  0
C  C30  1  0.39002096  0.61114537  0.22457871  1  0  -0.062408  -0.082307  0  3.917924  0
C  C31  1  0.60998379  0.88884613  0.72457396  1  0  -0.062345  -0.082189  0  3.918043  0
C  C32  1  0.68438649  0.40972938  0.85775354  1  0  -0.015516  -0.065867  0  3.983671  0
C  C33  1  0.31560641  0.09027695  0.35775469  1  0  -0.015475  -0.06574  0  3.983711  0
C  C34  1  0.31561312  0.59027827  0.14224834  1  0  -0.015582  -0.065873  0  3.983581  0
C  C35  1  0.68438529  0.90971520  0.64224595  1  0  -0.015611  -0.065979  0  3.983899  0
C  C36  1  0.89555024  0.51016897  0.87703495  1  0  -0.065706  -0.052948  0  3.906881  0
C  C37  1  0.10444612  0.98982903  0.37703567  1  0  -0.065711  -0.053003  0  3.906991  0
C  C38  1  0.10446112  0.48982905  0.12296508  1  0  -0.065698  -0.052953  0  3.906981  0
C  C39  1  0.89554756  0.01016788  0.62296374  1  0  -0.065702  -0.052985  0  3.90702  0
C  C40  1  0.03201164  0.58747293  0.81453258  1  0  -0.084293  -0.080672  0  3.965944  0
C  C41  1  0.96798934  0.91253007  0.31453095  1  0  -0.084259  -0.080495  0  3.966036  0
C  C42  1  0.96799775  0.41252391  0.18546498  1  0  -0.084242  -0.080601  0  3.966238  0
C  C43  1  0.03200041  0.08746567  0.68546662  1  0  -0.084267  -0.080605  0  3.966064  0
C  C44  1  0.96224116  0.56280730  0.73255747  1  0  -0.061334  -0.066364  0  3.934817  0
C  C45  1  0.03775738  0.93719048  0.23255860  1  0  -0.061346  -0.066438  0  3.934909  0
C  C46  1  0.03775448  0.43718721  0.26743825  1  0  -0.061332  -0.066358  0  3.934962  0
C  C47  1  0.96224415  0.06280281  0.76744143  1  0  -0.06134  -0.066259  0  3.934847  0
C  C48  1  0.67896174  0.43615262  0.62403741  1  0  0.239518  0.639289  0  4.172344  0
C  C49  1  0.32103711  0.06385276  0.12403831  1  0  0.239519  0.639304  0  4.172506  0
C  C50  1  0.32102998  0.56384550  0.37596200  1  0  0.239576  0.639398  0  4.172346  0
C  C51  1  0.67896443  0.93614411  0.87596295  1  0  0.239552  0.639456  0  4.17236  0
C  C52  1  0.54974706  0.31691934  0.92300538  1  0  0.252492  0.615656  0  4.097565  0
C  C53  1  0.45025291  0.18308922  0.42300807  1  0  0.252574  0.615644  0  4.097728  0
C  C54  1  0.45026632  0.68309662  0.07699958  1  0  0.252476  0.61553  0  4.097838  0
C  C55  1  0.54974468  0.81689931  0.57698950  1  0  0.252596  0.615761  0  4.098046  0
O  O56  1  0.84138365  0.47610822  0.56824700  1  0  -0.437586  -0.719095  0  2.240848  0
O  O57  1  0.15860973  0.02390842  0.06824942  1  0  -0.437648  -0.719141  0  2.241013  0
O  O58  1  0.15861003  0.52388750  0.43175241  1  0  -0.437615  -0.719146  0  2.240863  0
O  O59  1  0.84139183  0.97609683  0.93174937  1  0  -0.437601  -0.719204  0  2.241027  0
O  O60  1  0.45329485  0.37598635  0.60784688  1  0  -0.355859  -0.646641  0  2.2528  0
O  O61  1  0.54669880  0.12402209  0.10784679  1  0  -0.355863  -0.64664  0  2.252712  0
O  O62  1  0.54669884  0.62401296  0.39215376  1  0  -0.355885  -0.646716  0  2.252842  0
O  O63  1  0.45329686  0.87597840  0.89215385  1  0  -0.355875  -0.646715  0  2.252662  0
O  O64  1  0.65468733  0.33200580  0.99728650  1  0  -0.305839  -0.479248  0  2.34501  0
O  O65  1  0.34531341  0.16799815  0.49729071  1  0  -0.305896  -0.479359  0  2.344951  0
O  O66  1  0.34530837  0.66800785  0.00271537  1  0  -0.305871  -0.479341  0  2.344762  0
O  O67  1  0.65469990  0.83199509  0.50270747  1  0  -0.305936  -0.479382  0  2.344854  0
O  O68  1  0.35945777  0.22876311  0.90840465  1  0  -0.353388  -0.599841  0  2.228284  0
O  O69  1  0.64053103  0.27124619  0.40840798  1  0  -0.353389  -0.599777  0  2.228586  0
O  O70  1  0.64053594  0.77124457  0.09159846  1  0  -0.353344  -0.599743  0  2.228808  0
O  O71  1  0.35946858  0.72876146  0.59159143  1  0  -0.353369  -0.599859  0  2.228846  0
