# generated using pymatgen
data_CaH8(CO2)4
_symmetry_space_group_name_H-M   'P 1'
_cell_length_a   9.74728554
_cell_length_b   8.79431698
_cell_length_c   10.19133416
_cell_angle_alpha   90.00123233
_cell_angle_beta   90.00058764
_cell_angle_gamma   89.99992655
_symmetry_Int_Tables_number   1
_chemical_formula_structural   CaH8(CO2)4
_chemical_formula_sum   'Ca4 H32 C16 O32'
_cell_volume   873.60848896
_cell_formula_units_Z   4
loop_
 _symmetry_equiv_pos_site_id
 _symmetry_equiv_pos_as_xyz
  1  'x, y, z'
loop_
 _atom_site_type_symbol
 _atom_site_label
 _atom_site_symmetry_multiplicity
 _atom_site_fract_x
 _atom_site_fract_y
 _atom_site_fract_z
 _atom_site_occupancy
 _atom_site_hle17_bader_spin_density
 _atom_site_hle17_ddec_charge
 _atom_site_hle17_ddec_spin_density
 _atom_site_hle17_ddec_sum_bond_order
 _atom_site_hle17_magmom
 _atom_site_hse06_10hf_bader_spin_density
 _atom_site_hse06_10hf_ddec_charge
 _atom_site_hse06_10hf_ddec_spin_density
 _atom_site_hse06_10hf_ddec_sum_bond_order
 _atom_site_hse06_10hf_magmom
 _atom_site_hse06_bader_spin_density
 _atom_site_hse06_ddec_charge
 _atom_site_hse06_ddec_spin_density
 _atom_site_hse06_ddec_sum_bond_order
 _atom_site_hse06_magmom
 _atom_site_pbe_bader_spin_density
 _atom_site_pbe_cm5_charge
 _atom_site_pbe_ddec_charge
 _atom_site_pbe_ddec_spin_density
 _atom_site_pbe_ddec_sum_bond_order
 _atom_site_pbe_magmom
Ca  Ca0  1  0.21931806  0.30782183  0.67705062  1  0  1.535114  0  1.082833  0  0  1.400822  0  1.427227  0  0  1.442783  0  1.383267  0  0  0.876993  1.367671  0  1.459388  0
Ca  Ca1  1  0.78068309  0.80782719  0.82294822  1  0  1.53517  0  1.0828  0  0  1.400776  0  1.427314  0  0  1.442739  0  1.383352  0  0  0.876975  1.367628  0  1.459468  0
Ca  Ca2  1  0.28068004  0.69217321  0.17705231  1  0  1.535147  0  1.082865  0  0  1.400815  0  1.427287  0  0  1.442774  0  1.383328  0  0  0.876999  1.36767  0  1.459437  0
Ca  Ca3  1  0.71932060  0.19218028  0.32294807  1  0  1.535124  0  1.082901  0  0  1.400778  0  1.427336  0  0  1.442736  0  1.383379  0  0  0.876981  1.367644  0  1.459502  0
H  H4  1  0.35897952  0.76309503  0.64431129  1  0  0.083182  0  0.899002  0  0  0.090113  0  0.957152  0  0  0.093066  0  0.954126  0  0  0.12368  0.087684  0  0.960096  0
H  H5  1  0.64101636  0.26310873  0.85569688  1  0  0.083222  0  0.898795  0  0  0.090111  0  0.957028  0  0  0.093065  0  0.954001  0  0  0.123628  0.087682  0  0.959969  0
H  H6  1  0.14101768  0.23689298  0.14430658  1  0  0.083168  0  0.89892  0  0  0.090114  0  0.957134  0  0  0.093065  0  0.95411  0  0  0.12365  0.08769  0  0.960077  0
H  H7  1  0.85897900  0.73689553  0.35570212  1  0  0.08324  0  0.898853  0  0  0.090132  0  0.957075  0  0  0.093092  0  0.954045  0  0  0.123671  0.087711  0  0.960016  0
H  H8  1  0.27830605  0.86660821  0.84459576  1  0  0.085791  0  0.931571  0  0  0.093907  0  0.992409  0  0  0.096916  0  0.989414  0  0  0.125604  0.0916  0  0.994758  0
H  H9  1  0.72168407  0.36660992  0.65540598  1  0  0.085801  0  0.931717  0  0  0.093888  0  0.992523  0  0  0.096897  0  0.98953  0  0  0.125601  0.091585  0  0.994861  0
H  H10  1  0.22170258  0.13338669  0.34459675  1  0  0.085745  0  0.931512  0  0  0.093854  0  0.992389  0  0  0.096866  0  0.989396  0  0  0.125565  0.091554  0  0.994737  0
H  H11  1  0.77831217  0.63338063  0.15540759  1  0  0.085853  0  0.931683  0  0  0.093903  0  0.99249  0  0  0.096914  0  0.989498  0  0  0.125568  0.091605  0  0.99483  0
H  H12  1  0.45859535  0.55027648  0.72641544  1  0  0.39371  0  0.843783  0  0  0.377206  0  0.899996  0  0  0.386581  0  0.889684  0  0  0.32969  0.370368  0  0.907611  0
H  H13  1  0.54141345  0.05028308  0.77357302  1  0  0.393751  0  0.843734  0  0  0.377231  0  0.899989  0  0  0.38661  0  0.889669  0  0  0.329635  0.3704  0  0.907602  0
H  H14  1  0.04141025  0.44971885  0.22643118  1  0  0.393743  0  0.843705  0  0  0.377232  0  0.899939  0  0  0.386609  0  0.889623  0  0  0.329669  0.370408  0  0.907545  0
H  H15  1  0.95858889  0.94971045  0.27357565  1  0  0.393683  0  0.843875  0  0  0.377161  0  0.900129  0  0  0.386537  0  0.889816  0  0  0.329589  0.370341  0  0.907731  0
H  H16  1  0.11962848  0.70940648  0.93650149  1  0  0.38292  0  0.913048  0  0  0.35322  0  0.989502  0  0  0.365604  0  0.976063  0  0  0.308523  0.344568  0  0.998802  0
H  H17  1  0.88036475  0.20940406  0.56349315  1  0  0.38287  0  0.913158  0  0  0.35314  0  0.989682  0  0  0.36553  0  0.976224  0  0  0.308516  0.344489  0  0.998979  0
H  H18  1  0.38036358  0.29060829  0.43650209  1  0  0.382885  0  0.913122  0  0  0.353168  0  0.989606  0  0  0.365548  0  0.976176  0  0  0.30853  0.344521  0  0.998897  0
H  H19  1  0.61963779  0.79059050  0.06349659  1  0  0.382874  0  0.913201  0  0  0.353158  0  0.989683  0  0  0.365537  0  0.97625  0  0  0.308518  0.344511  0  0.998968  0
H  H20  1  0.07117858  0.33474892  0.90585338  1  0  0.421608  0  0.88197  0  0  0.389939  0  0.946316  0  0  0.401711  0  0.929132  0  0  0.296027  0.381499  0  0.958685  0
H  H21  1  0.92882285  0.83475988  0.59414732  1  0  0.421539  0  0.882047  0  0  0.389871  0  0.946399  0  0  0.401642  0  0.929217  0  0  0.296026  0.381432  0  0.958766  0
H  H22  1  0.42882071  0.66525771  0.40585205  1  0  0.42152  0  0.882075  0  0  0.389881  0  0.946366  0  0  0.401648  0  0.929192  0  0  0.296022  0.381444  0  0.958729  0
H  H23  1  0.57117349  0.16524395  0.09415039  1  0  0.421568  0  0.882011  0  0  0.38989  0  0.946377  0  0  0.401663  0  0.929193  0  0  0.29603  0.381454  0  0.958737  0
H  H24  1  0.18601017  0.46301581  0.92207811  1  0  0.417635  0  0.884887  0  0  0.385255  0  0.95161  0  0  0.395978  0  0.935828  0  0  0.302116  0.377802  0  0.962585  0
H  H25  1  0.81398901  0.96302116  0.57791795  1  0  0.417558  0  0.884987  0  0  0.385261  0  0.95155  0  0  0.39598  0  0.935774  0  0  0.302179  0.377812  0  0.962529  0
H  H26  1  0.31398856  0.53699092  0.42207744  1  0  0.417707  0  0.884814  0  0  0.385346  0  0.951502  0  0  0.396068  0  0.935722  0  0  0.302187  0.377892  0  0.962484  0
H  H27  1  0.68600584  0.03698257  0.07792179  1  0  0.41757  0  0.884969  0  0  0.385201  0  0.951673  0  0  0.395921  0  0.935896  0  0  0.302103  0.377747  0  0.962648  0
H  H28  1  0.14472438  0.97159766  0.69885354  1  0  0.420225  0  0.885634  0  0  0.388658  0  0.950557  0  0  0.399941  0  0.934171  0  0  0.294364  0.380352  0  0.962571  0
H  H29  1  0.85527731  0.47160380  0.80115360  1  0  0.420265  0  0.885602  0  0  0.388677  0  0.950555  0  0  0.399959  0  0.934171  0  0  0.294343  0.380377  0  0.962558  0
H  H30  1  0.35527398  0.02839068  0.19884623  1  0  0.420199  0  0.885669  0  0  0.388641  0  0.950587  0  0  0.399923  0  0.934202  0  0  0.294374  0.380332  0  0.962605  0
H  H31  1  0.64472612  0.52840809  0.30115174  1  0  0.420333  0  0.885521  0  0  0.38873  0  0.950485  0  0  0.400011  0  0.934101  0  0  0.294385  0.380429  0  0.962489  0
H  H32  1  0.07438908  0.06077638  0.81184559  1  0  0.42288  0  0.877148  0  0  0.392242  0  0.940645  0  0  0.403778  0  0.923712  0  0  0.299276  0.383965  0  0.95275  0
H  H33  1  0.92561185  0.56077287  0.68815793  1  0  0.422847  0  0.877185  0  0  0.392235  0  0.940643  0  0  0.403768  0  0.923716  0  0  0.299275  0.383954  0  0.952756  0
H  H34  1  0.42560941  0.93922515  0.31184225  1  0  0.422879  0  0.877148  0  0  0.392239  0  0.940636  0  0  0.403774  0  0.923705  0  0  0.299298  0.383962  0  0.952739  0
H  H35  1  0.57439350  0.43922811  0.18815835  1  0  0.422923  0  0.877112  0  0  0.392248  0  0.940655  0  0  0.403781  0  0.923726  0  0  0.299263  0.38397  0  0.952761  0
C  C36  1  0.15488741  0.67592175  0.65532670  1  0  0.674397  0  3.855565  0  0  0.615982  0  4.171249  0  0  0.649058  0  4.163187  0  0  0.227512  0.5934  0  4.176266  0
C  C37  1  0.84512957  0.17593305  0.84466391  1  0  0.674679  0  3.854918  0  0  0.616087  0  4.170831  0  0  0.649158  0  4.162775  0  0  0.227618  0.593498  0  4.175855  0
C  C38  1  0.34511453  0.32406519  0.15533049  1  0  0.67433  0  3.855443  0  0  0.615815  0  4.171338  0  0  0.648886  0  4.163285  0  0  0.227496  0.593222  0  4.176354  0
C  C39  1  0.65487131  0.82408138  0.34465653  1  0  0.67445  0  3.855247  0  0  0.615965  0  4.171011  0  0  0.649042  0  4.162948  0  0  0.227487  0.593382  0  4.176023  0
C  C40  1  0.30202364  0.68315388  0.70709519  1  0  0.055252  0  3.64781  0  0  0.026227  0  3.910599  0  0  0.02832  0  3.916598  0  0  -0.001611  0.02426  0  3.907689  0
C  C41  1  0.69798261  0.18315912  0.79289369  1  0  0.055057  0  3.647342  0  0  0.026013  0  3.910199  0  0  0.028106  0  3.916197  0  0  -0.00165  0.024046  0  3.907291  0
C  C42  1  0.19797751  0.31683565  0.20710389  1  0  0.055263  0  3.647358  0  0  0.026049  0  3.910563  0  0  0.028144  0  3.916562  0  0  -0.001635  0.024088  0  3.907634  0
C  C43  1  0.80201804  0.81684249  0.29289663  1  0  0.055172  0  3.647742  0  0  0.026073  0  3.910544  0  0  0.028156  0  3.916544  0  0  -0.001665  0.024097  0  3.907648  0
C  C44  1  0.30630546  0.74469421  0.84834670  1  0  0.05049  0  3.618501  0  0  0.020788  0  3.873371  0  0  0.022315  0  3.879942  0  0  0.002918  0.019629  0  3.869133  0
C  C45  1  0.69369982  0.24469941  0.65164419  1  0  0.050414  0  3.618973  0  0  0.020903  0  3.873659  0  0  0.022426  0  3.880226  0  0  0.003029  0.019755  0  3.869404  0
C  C46  1  0.19369585  0.25530867  0.34835513  1  0  0.050587  0  3.618578  0  0  0.020909  0  3.873665  0  0  0.022428  0  3.880241  0  0  0.003051  0.019756  0  3.869418  0
C  C47  1  0.80629552  0.75529794  0.15164927  1  0  0.050176  0  3.619443  0  0  0.020785  0  3.873922  0  0  0.02231  0  3.880492  0  0  0.003033  0.019627  0  3.869675  0
C  C48  1  0.45248285  0.73722137  0.90479047  1  0  0.676966  0  3.816681  0  0  0.623743  0  4.1248  0  0  0.657898  0  4.115907  0  0  0.237434  0.600311  0  4.130631  0
C  C49  1  0.54751985  0.23721714  0.59521097  1  0  0.677323  0  3.816789  0  0  0.62391  0  4.125147  0  0  0.658082  0  4.116229  0  0  0.237544  0.60049  0  4.130967  0
C  C50  1  0.04751546  0.26277730  0.40478569  1  0  0.6772  0  3.816835  0  0  0.623777  0  4.125271  0  0  0.657954  0  4.116352  0  0  0.237497  0.60035  0  4.131101  0
C  C51  1  0.95247850  0.76277987  0.09522287  1  0  0.677317  0  3.816524  0  0  0.62389  0  4.12482  0  0  0.658058  0  4.115909  0  0  0.237503  0.600469  0  4.130643  0
O  O52  1  0.10024493  0.54617670  0.63978840  1  0  -0.679758  0  1.990008  0  0  -0.619094  0  2.22572  0  0  -0.645814  0  2.215105  0  0  -0.346415  -0.599594  0  2.232463  0
O  O53  1  0.89975901  0.04617869  0.86020680  1  0  -0.679873  0  1.990063  0  0  -0.619032  0  2.225764  0  0  -0.645746  0  2.215135  0  0  -0.346361  -0.599531  0  2.232507  0
O  O54  1  0.39976166  0.45381015  0.13980024  1  0  -0.679819  0  1.990248  0  0  -0.618926  0  2.225848  0  0  -0.645643  0  2.215226  0  0  -0.346329  -0.599418  0  2.232582  0
O  O55  1  0.60024337  0.95383583  0.36019985  1  0  -0.679901  0  1.990091  0  0  -0.619097  0  2.225753  0  0  -0.645823  0  2.215131  0  0  -0.346352  -0.599588  0  2.232486  0
O  O56  1  0.09573586  0.80232489  0.63564679  1  0  -0.637356  0  1.986902  0  0  -0.575338  0  2.204441  0  0  -0.601113  0  2.192176  0  0  -0.297135  -0.557062  0  2.212777  0
O  O57  1  0.90426975  0.30234659  0.86435972  1  0  -0.637505  0  1.986578  0  0  -0.575397  0  2.20416  0  0  -0.601176  0  2.191899  0  0  -0.297225  -0.55713  0  2.212498  0
O  O58  1  0.40426266  0.19765852  0.13564657  1  0  -0.63729  0  1.986678  0  0  -0.575221  0  2.204262  0  0  -0.600997  0  2.192004  0  0  -0.297136  -0.556938  0  2.212591  0
O  O59  1  0.59572326  0.69767250  0.36435300  1  0  -0.637281  0  1.986703  0  0  -0.575244  0  2.20424  0  0  -0.601019  0  2.191975  0  0  -0.297135  -0.556971  0  2.212572  0
O  O60  1  0.36300357  0.53500714  0.69882654  1  0  -0.595009  0  2.117895  0  0  -0.54287  0  2.341589  0  0  -0.559875  0  2.330511  0  0  -0.419377  -0.530717  0  2.349904  0
O  O61  1  0.63700111  0.03499632  0.80116829  1  0  -0.59502  0  2.11757  0  0  -0.542865  0  2.341277  0  0  -0.559871  0  2.330198  0  0  -0.419316  -0.53072  0  2.349579  0
O  O62  1  0.13699787  0.46499484  0.19883104  1  0  -0.595089  0  2.117499  0  0  -0.542887  0  2.341244  0  0  -0.559895  0  2.330164  0  0  -0.419386  -0.530742  0  2.34954  0
O  O63  1  0.86300130  0.96500875  0.30116844  1  0  -0.594935  0  2.117643  0  0  -0.542788  0  2.341365  0  0  -0.559789  0  2.330285  0  0  -0.419219  -0.530642  0  2.349668  0
O  O64  1  0.21695439  0.66694307  0.93777891  1  0  -0.611668  0  2.167856  0  0  -0.547586  0  2.395444  0  0  -0.566743  0  2.382834  0  0  -0.399094  -0.533337  0  2.403539  0
O  O65  1  0.78304574  0.16695127  0.56221434  1  0  -0.611566  0  2.168305  0  0  -0.547506  0  2.395805  0  0  -0.566666  0  2.383204  0  0  -0.399124  -0.533254  0  2.403889  0
O  O66  1  0.28304276  0.33305807  0.43777684  1  0  -0.611668  0  2.168242  0  0  -0.547536  0  2.395874  0  0  -0.566684  0  2.383254  0  0  -0.399128  -0.533284  0  2.403964  0
O  O67  1  0.71695275  0.83304214  0.06222127  1  0  -0.611499  0  2.168416  0  0  -0.547456  0  2.395908  0  0  -0.566604  0  2.383298  0  0  -0.399089  -0.53321  0  2.404  0
O  O68  1  0.55149606  0.71665829  0.82615432  1  0  -0.677265  0  1.946834  0  0  -0.621388  0  2.180329  0  0  -0.647651  0  2.168573  0  0  -0.354447  -0.602666  0  2.187922  0
O  O69  1  0.44850183  0.21663660  0.67383173  1  0  -0.677341  0  1.946844  0  0  -0.621452  0  2.180469  0  0  -0.64772  0  2.1687  0  0  -0.354485  -0.602735  0  2.188065  0
O  O70  1  0.94850752  0.28334920  0.32615624  1  0  -0.677341  0  1.947135  0  0  -0.62137  0  2.1807  0  0  -0.647638  0  2.168935  0  0  -0.354447  -0.602651  0  2.188302  0
O  O71  1  0.05149740  0.78334135  0.17384711  1  0  -0.677306  0  1.946913  0  0  -0.621418  0  2.180525  0  0  -0.647682  0  2.168757  0  0  -0.354462  -0.602702  0  2.18812  0
O  O72  1  0.46396748  0.75620532  0.02831113  1  0  -0.658244  0  2.017991  0  0  -0.598988  0  2.253743  0  0  -0.62661  0  2.243036  0  0  -0.337736  -0.579666  0  2.260883  0
O  O73  1  0.53602384  0.25622292  0.47169820  1  0  -0.658357  0  2.018133  0  0  -0.599036  0  2.253961  0  0  -0.626662  0  2.243244  0  0  -0.337762  -0.57972  0  2.261107  0
O  O74  1  0.03603584  0.24378200  0.52830375  1  0  -0.658413  0  2.018009  0  0  -0.599034  0  2.253785  0  0  -0.626667  0  2.243065  0  0  -0.337819  -0.579702  0  2.260925  0
O  O75  1  0.96397463  0.74378772  0.97170182  1  0  -0.658483  0  2.017843  0  0  -0.599088  0  2.253569  0  0  -0.626719  0  2.242856  0  0  -0.337792  -0.579763  0  2.260713  0
O  O76  1  0.17181938  0.35481918  0.90014754  1  0  -0.874353  0  1.810702  0  0  -0.820888  0  1.990091  0  0  -0.842292  0  1.957412  0  0  -0.635925  -0.804914  0  2.012926  0
O  O77  1  0.82818177  0.85482691  0.59984597  1  0  -0.874207  0  1.810767  0  0  -0.820788  0  1.990156  0  0  -0.842188  0  1.957487  0  0  -0.635946  -0.804823  0  2.012963  0
O  O78  1  0.32817807  0.64518628  0.40015212  1  0  -0.874368  0  1.810708  0  0  -0.820951  0  1.990133  0  0  -0.842349  0  1.957463  0  0  -0.635983  -0.804984  0  2.012951  0
O  O79  1  0.67181745  0.14517696  0.09984574  1  0  -0.874243  0  1.810753  0  0  -0.820789  0  1.990152  0  0  -0.84219  0  1.95748  0  0  -0.635879  -0.804813  0  2.012983  0
O  O80  1  0.15864218  0.06209397  0.75668721  1  0  -0.886497  0  1.796068  0  0  -0.83196  0  1.970216  0  0  -0.853862  0  1.936899  0  0  -0.632459  -0.815186  0  1.99349  0
O  O81  1  0.84136174  0.56209676  0.74332029  1  0  -0.886549  0  1.796067  0  0  -0.831997  0  1.97022  0  0  -0.853894  0  1.936905  0  0  -0.632482  -0.815226  0  1.993498  0
O  O82  1  0.34135517  0.93790381  0.25668437  1  0  -0.886476  0  1.796089  0  0  -0.831931  0  1.970236  0  0  -0.853833  0  1.936921  0  0  -0.632525  -0.815159  0  1.993524  0
O  O83  1  0.65864885  0.43791479  0.24331619  1  0  -0.88664  0  1.795928  0  0  -0.832038  0  1.970206  0  0  -0.853939  0  1.936895  0  0  -0.632443  -0.815283  0  1.993513  0
