# generated using pymatgen
data_HgH9C10(NO)3
_symmetry_space_group_name_H-M   'P 1'
_cell_length_a   5.67277621
_cell_length_b   8.15275286
_cell_length_c   12.40337962
_cell_angle_alpha   96.04107261
_cell_angle_beta   89.99987345
_cell_angle_gamma   89.99792010
_symmetry_Int_Tables_number   1
_chemical_formula_structural   HgH9C10(NO)3
_chemical_formula_sum   'Hg2 H18 C20 N6 O6'
_cell_volume   570.45511525
_cell_formula_units_Z   2
loop_
 _symmetry_equiv_pos_site_id
 _symmetry_equiv_pos_as_xyz
  1  'x, y, z'
loop_
 _atom_site_type_symbol
 _atom_site_label
 _atom_site_symmetry_multiplicity
 _atom_site_fract_x
 _atom_site_fract_y
 _atom_site_fract_z
 _atom_site_occupancy
 _atom_site_hle17_bader_spin_density
 _atom_site_hle17_ddec_charge
 _atom_site_hle17_ddec_spin_density
 _atom_site_hle17_ddec_sum_bond_order
 _atom_site_hle17_magmom
 _atom_site_hse06_10hf_bader_spin_density
 _atom_site_hse06_10hf_ddec_charge
 _atom_site_hse06_10hf_ddec_spin_density
 _atom_site_hse06_10hf_ddec_sum_bond_order
 _atom_site_hse06_10hf_magmom
 _atom_site_hse06_bader_spin_density
 _atom_site_hse06_ddec_charge
 _atom_site_hse06_ddec_spin_density
 _atom_site_hse06_ddec_sum_bond_order
 _atom_site_hse06_magmom
 _atom_site_pbe_bader_spin_density
 _atom_site_pbe_cm5_charge
 _atom_site_pbe_ddec_charge
 _atom_site_pbe_ddec_spin_density
 _atom_site_pbe_ddec_sum_bond_order
 _atom_site_pbe_magmom
Hg  Hg0  1  0.71845881  0.77539240  0.52166485  1  0  0.777423  0  1.806714  0  0  0.65485  0  2.222302  0  0  0.692719  0  2.196786  0  0  0.600761  0.628746  0  2.239772  0
Hg  Hg1  1  0.21846109  0.22460434  0.47833704  1  0  0.777467  0  1.806649  0  0  0.654958  0  2.222322  0  0  0.692821  0  2.196805  0  0  0.600774  0.628852  0  2.239782  0
H  H2  1  0.12399204  0.57598351  0.18686465  1  0  0.114245  0  0.954651  0  0  0.121955  0  1.017306  0  0  0.125059  0  1.017076  0  0  0.106425  0.119713  0  1.017666  0
H  H3  1  0.62393221  0.42403588  0.81314912  1  0  0.114243  0  0.954388  0  0  0.122006  0  1.017005  0  0  0.125075  0  1.016799  0  0  0.106482  0.119764  0  1.017351  0
H  H4  1  0.98563812  0.63549120  0.00435526  1  0  0.115335  0  0.940479  0  0  0.122017  0  1.0034  0  0  0.125431  0  1.000901  0  0  0.112542  0.119572  0  1.005149  0
H  H5  1  0.48559512  0.36451526  0.99564451  1  0  0.115346  0  0.940323  0  0  0.121999  0  1.003272  0  0  0.125407  0  1.000791  0  0  0.112551  0.119558  0  1.005014  0
H  H6  1  0.36949269  0.87730261  0.14741938  1  0  0.118079  0  0.940261  0  0  0.124255  0  1.003538  0  0  0.127722  0  1.000875  0  0  0.113445  0.121727  0  1.005465  0
H  H7  1  0.86947509  0.12269216  0.85257419  1  0  0.118012  0  0.940279  0  0  0.124228  0  1.003519  0  0  0.127686  0  1.000863  0  0  0.113415  0.121704  0  1.005448  0
H  H8  1  0.50362359  0.81780062  0.33006247  1  0  0.103793  0  0.968736  0  0  0.116208  0  1.029723  0  0  0.119856  0  1.027645  0  0  0.100113  0.113544  0  1.031456  0
H  H9  1  0.00361075  0.18219941  0.66993014  1  0  0.103736  0  0.96869  0  0  0.11612  0  1.029703  0  0  0.119767  0  1.027629  0  0  0.100066  0.113457  0  1.031437  0
H  H10  1  0.61742410  0.87576342  0.72669915  1  0  0.151634  0  0.987513  0  0  0.154775  0  1.054411  0  0  0.158121  0  1.055362  0  0  0.090276  0.152387  0  1.053896  0
H  H11  1  0.11745893  0.12422745  0.27330007  1  0  0.151547  0  0.987607  0  0  0.154712  0  1.054493  0  0  0.158056  0  1.055441  0  0  0.090302  0.15233  0  1.053971  0
H  H12  1  0.55198085  0.03192661  0.63502234  1  0  0.141685  0  0.989599  0  0  0.148966  0  1.052786  0  0  0.15207  0  1.054609  0  0  0.088118  0.146741  0  1.05165  0
H  H13  1  0.05202445  0.96808229  0.36498444  1  0  0.141599  0  0.989434  0  0  0.148857  0  1.052734  0  0  0.151958  0  1.054561  0  0  0.08807  0.14663  0  1.051603  0
H  H14  1  0.09177356  0.77857491  0.77625983  1  0  0.153257  0  0.930626  0  0  0.173041  0  0.989363  0  0  0.174627  0  0.988663  0  0  0.104046  0.171962  0  0.989799  0
H  H15  1  0.59177657  0.22143634  0.22373818  1  0  0.153327  0  0.930514  0  0  0.173114  0  0.989246  0  0  0.174694  0  0.988553  0  0  0.10407  0.172043  0  0.989673  0
H  H16  1  0.35313872  0.66254540  0.75079198  1  0  0.127082  0  0.971938  0  0  0.141229  0  1.040694  0  0  0.14278  0  1.041083  0  0  0.088168  0.140093  0  1.040486  0
H  H17  1  0.85313959  0.33745845  0.24920212  1  0  0.127211  0  0.971919  0  0  0.141344  0  1.040678  0  0  0.142898  0  1.041063  0  0  0.088185  0.14021  0  1.040466  0
H  H18  1  0.09788924  0.62353245  0.66493292  1  0  0.140559  0  0.970661  0  0  0.157481  0  1.037849  0  0  0.159504  0  1.037392  0  0  0.090759  0.155941  0  1.038287  0
H  H19  1  0.59789123  0.37648355  0.33506455  1  0  0.140606  0  0.97064  0  0  0.157563  0  1.037778  0  0  0.159589  0  1.037319  0  0  0.090777  0.156024  0  1.038216  0
C  C20  1  0.10410274  0.60350365  0.39256439  1  0  0.457563  0  3.956927  0  0  0.420983  0  4.23587  0  0  0.443855  0  4.253834  0  0  0.27905  0.40565  0  4.223158  0
C  C21  1  0.60408964  0.39650754  0.60744409  1  0  0.457785  0  3.956636  0  0  0.421286  0  4.23565  0  0  0.444156  0  4.253607  0  0  0.279169  0.405952  0  4.22296  0
C  C22  1  0.82465467  0.69583677  0.27152710  1  0  0.274158  0  3.801035  0  0  0.265106  0  4.045319  0  0  0.278738  0  4.065707  0  0  0.111019  0.256015  0  4.031299  0
C  C23  1  0.32460394  0.30418292  0.72847682  1  0  0.273989  0  3.801258  0  0  0.265062  0  4.045481  0  0  0.278698  0  4.065862  0  0  0.111176  0.255969  0  4.031469  0
C  C24  1  0.95878459  0.64185732  0.17835846  1  0  -0.169352  0  3.712629  0  0  -0.185542  0  3.965177  0  0  -0.194947  0  3.986998  0  0  -0.094171  -0.179428  0  3.950488  0
C  C25  1  0.45872540  0.35815271  0.82165444  1  0  -0.16935  0  3.712125  0  0  -0.185588  0  3.964635  0  0  -0.194956  0  3.986478  0  0  -0.094395  -0.179472  0  3.949955  0
C  C26  1  0.88219557  0.67350875  0.07652160  1  0  -0.066209  0  3.738754  0  0  -0.094409  0  3.998187  0  0  -0.090637  0  4.016702  0  0  -0.076659  -0.096491  0  3.985443  0
C  C27  1  0.38214602  0.32650072  0.92348248  1  0  -0.066277  0  3.738402  0  0  -0.094511  0  3.997852  0  0  -0.090742  0  4.016357  0  0  -0.076775  -0.096588  0  3.985097  0
C  C28  1  0.67079619  0.75934859  0.06641720  1  0  0.043132  0  3.739807  0  0  0.032959  0  3.99896  0  0  0.025587  0  4.023522  0  0  0.066561  0.037534  0  3.982406  0
C  C29  1  0.17075946  0.24063821  0.93357771  1  0  0.042968  0  3.739764  0  0  0.032935  0  3.998769  0  0  0.025561  0  4.023329  0  0  0.066729  0.037517  0  3.982204  0
C  C30  1  0.53310548  0.81086298  0.15743016  1  0  -0.065282  0  3.725732  0  0  -0.088568  0  3.978357  0  0  -0.084703  0  3.996448  0  0  -0.074664  -0.090684  0  3.965973  0
C  C31  1  0.03309470  0.18912871  0.84255790  1  0  -0.065132  0  3.725934  0  0  -0.088503  0  3.978521  0  0  -0.084623  0  3.996617  0  0  -0.074676  -0.090629  0  3.966137  0
C  C32  1  0.60874967  0.77744524  0.25878615  1  0  -0.150856  0  3.714865  0  0  -0.169218  0  3.963556  0  0  -0.177298  0  3.984085  0  0  -0.094541  -0.164056  0  3.949799  0
C  C33  1  0.10873446  0.22257415  0.74121150  1  0  -0.150782  0  3.715219  0  0  -0.169109  0  3.963893  0  0  -0.177194  0  3.984425  0  0  -0.094568  -0.163948  0  3.950138  0
C  C34  1  0.53097747  0.90382278  0.65200588  1  0  -0.523221  0  3.609703  0  0  -0.535021  0  3.874997  0  0  -0.557619  0  3.890785  0  0  -0.260447  -0.51985  0  3.864319  0
C  C35  1  0.03101666  0.09618533  0.34799523  1  0  -0.522995  0  3.609569  0  0  -0.534867  0  3.875008  0  0  -0.557461  0  3.890794  0  0  -0.260386  -0.519695  0  3.864322  0
C  C36  1  0.28448049  0.84707269  0.64217581  1  0  0.585284  0  3.708204  0  0  0.576757  0  3.96587  0  0  0.600609  0  3.973828  0  0  0.140839  0.560457  0  3.960064  0
C  C37  1  0.78449468  0.15291578  0.35781586  1  0  0.585458  0  3.70842  0  0  0.57694  0  3.966093  0  0  0.600792  0  3.974054  0  0  0.140947  0.560643  0  3.960286  0
C  C38  1  0.20468994  0.71806556  0.71170142  1  0  -0.443641  0  3.647082  0  0  -0.520817  0  3.876024  0  0  -0.526828  0  3.881798  0  0  -0.258778  -0.51634  0  3.871871  0
C  C39  1  0.70469671  0.28194370  0.28829395  1  0  -0.443975  0  3.646957  0  0  -0.521184  0  3.875908  0  0  -0.527184  0  3.881658  0  0  -0.258895  -0.516707  0  3.871744  0
N  N40  1  0.28442498  0.54321928  0.41519411  1  0  -0.566924  0  2.666652  0  0  -0.526396  0  2.925277  0  0  -0.547681  0  2.93545  0  0  -0.355868  -0.511712  0  2.918009  0
N  N41  1  0.78437920  0.45679612  0.58483781  1  0  -0.566823  0  2.666966  0  0  -0.526274  0  2.925509  0  0  -0.54753  0  2.935633  0  0  -0.355814  -0.511619  0  2.918303  0
N  N42  1  0.90166653  0.67363263  0.37558616  1  0  -0.455587  0  3.346183  0  0  -0.365272  0  3.607274  0  0  -0.394501  0  3.619848  0  0  -0.340625  -0.344854  0  3.597434  0
N  N43  1  0.40164364  0.32636653  0.62442133  1  0  -0.45576  0  3.34586  0  0  -0.365715  0  3.607213  0  0  -0.394952  0  3.619786  0  0  -0.3408  -0.345277  0  3.597324  0
N  N44  1  0.59465326  0.79738794  0.96083850  1  0  0.495956  0  3.920858  0  0  0.525717  0  4.218394  0  0  0.547941  0  4.225989  0  0  0.046787  0.510886  0  4.213283  0
N  N45  1  0.09465772  0.20256893  0.03915476  1  0  0.496253  0  3.921534  0  0  0.525931  0  4.219124  0  0  0.548155  0  4.226719  0  0  0.047059  0.511107  0  4.213993  0
O  O46  1  0.71687182  0.74526166  0.88018902  1  0  -0.403906  0  1.751658  0  0  -0.376067  0  1.957029  0  0  -0.387709  0  1.952299  0  0  -0.145695  -0.368427  0  1.960409  0
O  O47  1  0.21684859  0.25468810  0.11980452  1  0  -0.404074  0  1.752436  0  0  -0.376102  0  1.957698  0  0  -0.387754  0  1.953004  0  0  -0.145824  -0.368522  0  1.96116  0
O  O48  1  0.41105692  0.87976956  0.95398177  1  0  -0.378664  0  1.726819  0  0  -0.359034  0  1.927665  0  0  -0.370232  0  1.924959  0  0  -0.142395  -0.351581  0  1.929622  0
O  O49  1  0.91105004  0.12020414  0.04600409  1  0  -0.378662  0  1.726681  0  0  -0.359078  0  1.927604  0  0  -0.370277  0  1.924896  0  0  -0.142505  -0.351617  0  1.929554  0
O  O50  1  0.14491977  0.90589917  0.57823215  1  0  -0.575534  0  1.992923  0  0  -0.515977  0  2.227021  0  0  -0.542501  0  2.223329  0  0  -0.295039  -0.497552  0  2.229112  0
O  O51  1  0.64496277  0.09409197  0.42175981  1  0  -0.575729  0  1.993432  0  0  -0.5161  0  2.227389  0  0  -0.542601  0  2.223643  0  0  -0.295162  -0.497679  0  2.229481  0
