# generated using pymatgen
data_NaH2C2N5O2
_symmetry_space_group_name_H-M   'P 1'
_cell_length_a   3.60564149
_cell_length_b   9.98200994
_cell_length_c   15.94384114
_cell_angle_alpha   90.00010852
_cell_angle_beta   89.99994439
_cell_angle_gamma   97.83011734
_symmetry_Int_Tables_number   1
_chemical_formula_structural   NaH2C2N5O2
_chemical_formula_sum   'Na4 H8 C8 N20 O8'
_cell_volume   568.49323546
_cell_formula_units_Z   4
loop_
 _symmetry_equiv_pos_site_id
 _symmetry_equiv_pos_as_xyz
  1  'x, y, z'
loop_
 _atom_site_type_symbol
 _atom_site_label
 _atom_site_symmetry_multiplicity
 _atom_site_fract_x
 _atom_site_fract_y
 _atom_site_fract_z
 _atom_site_occupancy
 _atom_site_hle17_bader_spin_density
 _atom_site_hle17_ddec_charge
 _atom_site_hle17_ddec_spin_density
 _atom_site_hle17_ddec_sum_bond_order
 _atom_site_hle17_magmom
 _atom_site_hse06_10hf_bader_spin_density
 _atom_site_hse06_10hf_ddec_charge
 _atom_site_hse06_10hf_ddec_spin_density
 _atom_site_hse06_10hf_ddec_sum_bond_order
 _atom_site_hse06_10hf_magmom
 _atom_site_hse06_bader_spin_density
 _atom_site_hse06_ddec_charge
 _atom_site_hse06_ddec_spin_density
 _atom_site_hse06_ddec_sum_bond_order
 _atom_site_hse06_magmom
 _atom_site_pbe_bader_spin_density
 _atom_site_pbe_cm5_charge
 _atom_site_pbe_ddec_charge
 _atom_site_pbe_ddec_spin_density
 _atom_site_pbe_ddec_sum_bond_order
 _atom_site_pbe_magmom
Na  Na0  1  0.70183901  0.90281528  0.08242665  1  0  0.893626  0  0.394264  0  0  0.842394  0  0.562406  0  0  0.853109  0  0.540057  0  0  0.691801  0.835012  0  0.577895  0
Na  Na1  1  0.29816933  0.59718514  0.58242710  1  0  0.893631  0  0.394257  0  0  0.842388  0  0.562406  0  0  0.853109  0  0.540058  0  0  0.691798  0.834995  0  0.577891  0
Na  Na2  1  0.29816715  0.09718400  0.91757189  1  0  0.893635  0  0.394235  0  0  0.842405  0  0.562373  0  0  0.85312  0  0.540025  0  0  0.6918  0.835022  0  0.577859  0
Na  Na3  1  0.70184198  0.40281312  0.41757332  1  0  0.893619  0  0.394253  0  0  0.84238  0  0.562389  0  0  0.853094  0  0.540037  0  0  0.691794  0.834984  0  0.577876  0
H  H4  1  0.18033438  0.93030189  0.22374272  1  0  0.398691  0  0.915154  0  0  0.361975  0  0.989318  0  0  0.371558  0  0.975385  0  0  0.284455  0.355147  0  0.999296  0
H  H5  1  0.81966472  0.56969794  0.72374304  1  0  0.398653  0  0.91521  0  0  0.361936  0  0.989376  0  0  0.37152  0  0.975441  0  0  0.284441  0.3551  0  0.999366  0
H  H6  1  0.81966623  0.06969740  0.77625581  1  0  0.398665  0  0.915186  0  0  0.361953  0  0.989344  0  0  0.371537  0  0.97541  0  0  0.284455  0.355123  0  0.999325  0
H  H7  1  0.18032758  0.43030137  0.27625675  1  0  0.398666  0  0.915182  0  0  0.361948  0  0.98935  0  0  0.37153  0  0.975417  0  0  0.284462  0.355118  0  0.999328  0
H  H8  1  0.20121431  0.06935074  0.17458029  1  0  0.395675  0  0.914655  0  0  0.35662  0  0.993382  0  0  0.366646  0  0.978517  0  0  0.288653  0.349398  0  1.004057  0
H  H9  1  0.79878581  0.43064873  0.67458040  1  0  0.395596  0  0.914757  0  0  0.356538  0  0.993495  0  0  0.366565  0  0.978626  0  0  0.288629  0.349312  0  1.004172  0
H  H10  1  0.79878353  0.93064855  0.82542013  1  0  0.395592  0  0.914758  0  0  0.356534  0  0.993497  0  0  0.36656  0  0.97863  0  0  0.288632  0.34931  0  1.004173  0
H  H11  1  0.20121995  0.56934954  0.32542001  1  0  0.39562  0  0.914721  0  0  0.356562  0  0.993453  0  0  0.366587  0  0.978589  0  0  0.288629  0.349332  0  1.004139  0
C  C12  1  0.14635548  0.57085508  0.88261135  1  0  0.222338  0  3.91827  0  0  0.201778  0  4.204729  0  0  0.208064  0  4.218779  0  0  0.225268  0.197551  0  4.195253  0
C  C13  1  0.85363708  0.92914421  0.38260964  1  0  0.222409  0  3.918423  0  0  0.201862  0  4.204849  0  0  0.208148  0  4.2189  0  0  0.22533  0.197635  0  4.195375  0
C  C14  1  0.85363681  0.42914422  0.11739033  1  0  0.222299  0  3.918318  0  0  0.201738  0  4.204787  0  0  0.208022  0  4.218839  0  0  0.225257  0.19752  0  4.195305  0
C  C15  1  0.14635798  0.07085509  0.61739015  1  0  0.222399  0  3.91825  0  0  0.201868  0  4.204649  0  0  0.208153  0  4.218706  0  0  0.225314  0.197643  0  4.195167  0
C  C16  1  0.21071616  0.43535480  0.87224425  1  0  0.278448  0  3.710254  0  0  0.260189  0  3.992337  0  0  0.270303  0  4.006523  0  0  0.219324  0.253193  0  3.983066  0
C  C17  1  0.78927847  0.06464727  0.37224401  1  0  0.278524  0  3.710315  0  0  0.260272  0  3.992369  0  0  0.270386  0  4.006557  0  0  0.219422  0.253283  0  3.983082  0
C  C18  1  0.78928207  0.56464551  0.12775491  1  0  0.278463  0  3.71016  0  0  0.26021  0  3.992241  0  0  0.270325  0  4.006426  0  0  0.219352  0.253207  0  3.982966  0
C  C19  1  0.21071344  0.93535102  0.62775578  1  0  0.278573  0  3.71005  0  0  0.260319  0  3.992106  0  0  0.270434  0  4.006293  0  0  0.219445  0.253339  0  3.982816  0
N  N20  1  0.25263552  0.64521486  0.95152890  1  0  -0.308723  0  2.777589  0  0  -0.311997  0  3.056301  0  0  -0.317426  0  3.067019  0  0  -0.188805  -0.308104  0  3.049254  0
N  N21  1  0.74735718  0.85478564  0.45152776  1  0  -0.308735  0  2.777654  0  0  -0.312013  0  3.056358  0  0  -0.317443  0  3.067077  0  0  -0.188811  -0.308119  0  3.049318  0
N  N22  1  0.74737184  0.35478038  0.04847152  1  0  -0.308751  0  2.777922  0  0  -0.312021  0  3.056629  0  0  -0.31745  0  3.067351  0  0  -0.188793  -0.308128  0  3.04959  0
N  N23  1  0.25264105  0.14521467  0.54847078  1  0  -0.308751  0  2.777768  0  0  -0.312032  0  3.056478  0  0  -0.317461  0  3.067199  0  0  -0.188796  -0.308141  0  3.049431  0
N  N24  1  0.14414401  0.76366297  0.93166614  1  0  0.446528  0  3.837541  0  0  0.480021  0  4.137084  0  0  0.488971  0  4.154901  0  0  0.089543  0.473613  0  4.125153  0
N  N25  1  0.85585549  0.73634050  0.43166609  1  0  0.446521  0  3.8375  0  0  0.480016  0  4.137048  0  0  0.488969  0  4.154864  0  0  0.089574  0.4736  0  4.125131  0
N  N26  1  0.85584946  0.23633937  0.06833302  1  0  0.446648  0  3.837712  0  0  0.480146  0  4.137242  0  0  0.489092  0  4.155062  0  0  0.089628  0.473726  0  4.125335  0
N  N27  1  0.14415305  0.26365777  0.56833307  1  0  0.446531  0  3.837608  0  0  0.480024  0  4.137152  0  0  0.488972  0  4.154972  0  0  0.089533  0.473614  0  4.125216  0
N  N28  1  0.97964722  0.76383608  0.85510295  1  0  -0.148149  0  2.837268  0  0  -0.135627  0  3.111259  0  0  -0.136879  0  3.119684  0  0  -0.07221  -0.134362  0  3.105635  0
N  N29  1  0.02035138  0.73616413  0.35510369  1  0  -0.14814  0  2.83702  0  0  -0.135637  0  3.111018  0  0  -0.136889  0  3.119442  0  0  -0.072211  -0.134364  0  3.105401  0
N  N30  1  0.02034941  0.23616726  0.14489872  1  0  -0.148234  0  2.837358  0  0  -0.13571  0  3.111337  0  0  -0.136963  0  3.119764  0  0  -0.072272  -0.134438  0  3.105716  0
N  N31  1  0.97965595  0.26383819  0.64489610  1  0  -0.148122  0  2.837068  0  0  -0.135597  0  3.111048  0  0  -0.136849  0  3.119474  0  0  -0.072183  -0.134326  0  3.105424  0
N  N32  1  0.98210121  0.64086661  0.82404198  1  0  -0.24792  0  3.04803  0  0  -0.214747  0  3.31702  0  0  -0.22329  0  3.329152  0  0  -0.17264  -0.208807  0  3.308792  0
N  N33  1  0.01789432  0.85913959  0.32404224  1  0  -0.24806  0  3.048042  0  0  -0.214893  0  3.317048  0  0  -0.223436  0  3.329179  0  0  -0.172761  -0.208959  0  3.308831  0
N  N34  1  0.01789109  0.35913270  0.17595781  1  0  -0.247873  0  3.048259  0  0  -0.214705  0  3.317254  0  0  -0.223245  0  3.329388  0  0  -0.172631  -0.208768  0  3.309024  0
N  N35  1  0.98211262  0.14086172  0.67595755  1  0  -0.248102  0  3.048183  0  0  -0.214948  0  3.317193  0  0  -0.22349  0  3.329326  0  0  -0.172783  -0.209018  0  3.308978  0
N  N36  1  0.27019993  0.32442220  0.86343764  1  0  -0.392581  0  2.587161  0  0  -0.372757  0  2.824215  0  0  -0.38024  0  2.832415  0  0  -0.335885  -0.367872  0  2.819279  0
N  N37  1  0.72977376  0.17557583  0.36343692  1  0  -0.392609  0  2.58732  0  0  -0.372798  0  2.824379  0  0  -0.380279  0  2.832576  0  0  -0.33595  -0.367916  0  2.81943  0
N  N38  1  0.72979592  0.67557912  0.13656089  1  0  -0.392583  0  2.587132  0  0  -0.372765  0  2.824192  0  0  -0.380249  0  2.83239  0  0  -0.335901  -0.367877  0  2.819254  0
N  N39  1  0.27020983  0.82442247  0.63656287  1  0  -0.3926  0  2.587163  0  0  -0.372787  0  2.82422  0  0  -0.380272  0  2.832419  0  0  -0.335917  -0.367913  0  2.819275  0
O  O40  1  0.19054716  0.86798458  0.97942633  1  0  -0.620901  0  1.786037  0  0  -0.597239  0  2.033888  0  0  -0.615776  0  2.028191  0  0  -0.324766  -0.584169  0  2.037422  0
O  O41  1  0.80947077  0.63201697  0.47942805  1  0  -0.620877  0  1.785923  0  0  -0.597187  0  2.033706  0  0  -0.615725  0  2.028011  0  0  -0.324753  -0.584102  0  2.037234  0
O  O42  1  0.80946255  0.13201672  0.02057472  1  0  -0.620949  0  1.786039  0  0  -0.597297  0  2.033892  0  0  -0.61583  0  2.028197  0  0  -0.324796  -0.584219  0  2.037432  0
O  O43  1  0.19054764  0.36798533  0.52057300  1  0  -0.62089  0  1.785865  0  0  -0.597233  0  2.033713  0  0  -0.615766  0  2.028013  0  0  -0.324768  -0.584152  0  2.037233  0
O  O44  1  0.24531840  0.97455552  0.16889586  1  0  -0.917015  0  1.845374  0  0  -0.870588  0  2.037566  0  0  -0.88502  0  2.00414  0  0  -0.704738  -0.860573  0  2.06136  0
O  O45  1  0.75468407  0.52544516  0.66889614  1  0  -0.916918  0  1.845475  0  0  -0.870492  0  2.037666  0  0  -0.884929  0  2.004242  0  0  -0.704709  -0.860475  0  2.06147  0
O  O46  1  0.75467983  0.02544478  0.83110393  1  0  -0.916918  0  1.845451  0  0  -0.870494  0  2.037634  0  0  -0.884926  0  2.004208  0  0  -0.704731  -0.860479  0  2.061432  0
O  O47  1  0.24531377  0.47455414  0.33110428  1  0  -0.916949  0  1.845399  0  0  -0.870512  0  2.037595  0  0  -0.884944  0  2.004169  0  0  -0.704726  -0.860497  0  2.061395  0
