# generated using pymatgen
data_Cd3H20C20O19
_symmetry_space_group_name_H-M   'P 1'
_cell_length_a   6.63123614
_cell_length_b   11.62779822
_cell_length_c   17.43960000
_cell_angle_alpha   90.00000000
_cell_angle_beta   98.97035535
_cell_angle_gamma   90.00000000
_symmetry_Int_Tables_number   1
_chemical_formula_structural   Cd3H20C20O19
_chemical_formula_sum   'Cd6 H40 C40 O38'
_cell_volume   1328.26263804
_cell_formula_units_Z   2
loop_
 _symmetry_equiv_pos_site_id
 _symmetry_equiv_pos_as_xyz
  1  'x, y, z'
loop_
 _atom_site_type_symbol
 _atom_site_label
 _atom_site_symmetry_multiplicity
 _atom_site_fract_x
 _atom_site_fract_y
 _atom_site_fract_z
 _atom_site_occupancy
 _atom_site_hle17_bader_spin_density
 _atom_site_hle17_ddec_charge
 _atom_site_hle17_ddec_spin_density
 _atom_site_hle17_ddec_sum_bond_order
 _atom_site_hle17_magmom
 _atom_site_hse06_10hf_bader_spin_density
 _atom_site_hse06_10hf_ddec_charge
 _atom_site_hse06_10hf_ddec_spin_density
 _atom_site_hse06_10hf_ddec_sum_bond_order
 _atom_site_hse06_10hf_magmom
 _atom_site_hse06_bader_spin_density
 _atom_site_hse06_ddec_charge
 _atom_site_hse06_ddec_spin_density
 _atom_site_hse06_ddec_sum_bond_order
 _atom_site_hse06_magmom
 _atom_site_pbe_bader_charge
 _atom_site_pbe_bader_spin_density
 _atom_site_pbe_cm5_charge
 _atom_site_pbe_ddec_charge
 _atom_site_pbe_ddec_spin_density
 _atom_site_pbe_ddec_sum_bond_order
 _atom_site_pbe_magmom
Cd  Cd0  1  0.25001792  0.83077465  0.25000457  1  0  1.328611  0  1.482849  0  0  1.144073  0  1.927943  0  0  1.204336  0  1.864781  0  1.38257  0  0.795686  1.099939  0  1.972072  0
Cd  Cd1  1  0.75000338  0.16923324  0.74999984  1  0  1.328736  0  1.482704  0  0  1.144235  0  1.927781  0  0  1.204494  0  1.864617  0  1.382689  0  0.795734  1.100106  0  1.971911  0
Cd  Cd2  1  0.80896404  0.34689456  0.52860963  1  0  1.249661  0  1.479853  0  0  1.068824  0  1.90315  0  0  1.133361  0  1.843879  0  1.322507  0  0.772991  1.022354  0  1.943967  0
Cd  Cd3  1  0.69102135  0.34688596  0.97138535  1  0  1.249727  0  1.47994  0  0  1.068873  0  1.903214  0  0  1.133406  0  1.843943  0  1.322614  0  0.77304  1.022404  0  1.944028  0
Cd  Cd4  1  0.19102062  0.65311075  0.47138803  1  0  1.2497  0  1.479832  0  0  1.068866  0  1.903156  0  0  1.133402  0  1.843878  0  1.322584  0  0.773051  1.022397  0  1.943973  0
Cd  Cd5  1  0.30895415  0.65310645  0.02861119  1  0  1.249726  0  1.479854  0  0  1.068845  0  1.903128  0  0  1.133388  0  1.843859  0  1.32249  0  0.77302  1.022379  0  1.943946  0
H  H6  1  0.52754827  0.45592982  0.26185787  1  0  0.10954  0  0.945821  0  0  0.118841  0  1.008484  0  0  0.123245  0  1.004181  0  0.10499  0  0.10974  0.11564  0  1.011659  0
H  H7  1  0.97245697  0.45594788  0.23813370  1  0  0.109207  0  0.945951  0  0  0.118632  0  1.008469  0  0  0.123033  0  1.004174  0  0.104757  0  0.109702  0.115435  0  1.01165  0
H  H8  1  0.47245777  0.54405657  0.73813876  1  0  0.109244  0  0.946015  0  0  0.118682  0  1.008533  0  0  0.123081  0  1.004238  0  0.104744  0  0.109711  0.115482  0  1.011709  0
H  H9  1  0.02754144  0.54406775  0.76186363  1  0  0.109431  0  0.945877  0  0  0.11879  0  1.008465  0  0  0.123191  0  1.004165  0  0.104903  0  0.109721  0.115586  0  1.011638  0
H  H10  1  0.37849475  0.20309520  0.08174731  1  0  0.136397  0  0.960945  0  0  0.144678  0  1.023617  0  0  0.149074  0  1.019809  0  0.149058  0  0.113604  0.141509  0  1.026363  0
H  H11  1  0.12148155  0.20311584  0.41824856  1  0  0.136316  0  0.961071  0  0  0.144587  0  1.023743  0  0  0.148987  0  1.019927  0  0.149068  0  0.113574  0.141418  0  1.026492  0
H  H12  1  0.62149449  0.79688861  0.91825177  1  0  0.136253  0  0.961058  0  0  0.14453  0  1.023752  0  0  0.14894  0  1.0199  0  0.148716  0  0.113566  0.141364  0  1.026502  0
H  H13  1  0.87849701  0.79689205  0.58174529  1  0  0.136299  0  0.961048  0  0  0.14457  0  1.023767  0  0  0.148983  0  1.019909  0  0.149049  0  0.113584  0.141405  0  1.026517  0
H  H14  1  0.52869634  0.09751803  0.32133498  1  0  0.113595  0  0.945956  0  0  0.121339  0  1.013492  0  0  0.125772  0  1.008935  0  0.077975  0  0.107007  0.118131  0  1.016814  0
H  H15  1  0.97130432  0.09753609  0.17865918  1  0  0.113596  0  0.945954  0  0  0.121319  0  1.013558  0  0  0.125765  0  1.008992  0  0.078011  0  0.106953  0.118108  0  1.016883  0
H  H16  1  0.47130817  0.90246836  0.67866213  1  0  0.113513  0  0.945896  0  0  0.121227  0  1.013508  0  0  0.125669  0  1.008945  0  0.077829  0  0.106931  0.118018  0  1.016832  0
H  H17  1  0.02869408  0.90248298  0.82133298  1  0  0.113547  0  0.945954  0  0  0.121323  0  1.013464  0  0  0.125761  0  1.008905  0  0.077836  0  0.106979  0.118114  0  1.016786  0
H  H18  1  0.68845804  0.99280705  0.13547166  1  0  0.093985  0  0.931029  0  0  0.105188  0  0.994161  0  0  0.107186  0  0.991757  0  0.109566  0  0.111058  0.10375  0  0.995958  0
H  H19  1  0.81154567  0.99282253  0.36453473  1  0  0.094059  0  0.930958  0  0  0.105275  0  0.994117  0  0  0.107281  0  0.99171  0  0.10954  0  0.111035  0.103854  0  0.995898  0
H  H20  1  0.31152662  0.00717591  0.86453288  1  0  0.09404  0  0.930994  0  0  0.105266  0  0.994111  0  0  0.10727  0  0.991709  0  0.109381  0  0.11105  0.103842  0  0.995895  0
H  H21  1  0.18845884  0.00717677  0.63545952  1  0  0.093994  0  0.931057  0  0  0.105266  0  0.994101  0  0  0.107227  0  0.991738  0  0.109496  0  0.111045  0.103826  0  0.9959  0
H  H22  1  0.47929885  0.04035158  0.06621931  1  0  0.107057  0  0.942596  0  0  0.115915  0  1.006415  0  0  0.118511  0  1.004008  0  0.116039  0  0.114869  0.11399  0  1.008325  0
H  H23  1  0.02072020  0.04036190  0.43378139  1  0  0.107139  0  0.94243  0  0  0.116012  0  1.006266  0  0  0.118611  0  1.003861  0  0.115886  0  0.114913  0.114087  0  1.008176  0
H  H24  1  0.52069955  0.95963998  0.93378203  1  0  0.107177  0  0.942482  0  0  0.116053  0  1.006284  0  0  0.118651  0  1.003881  0  0.11586  0  0.114907  0.114129  0  1.008194  0
H  H25  1  0.97928278  0.95964858  0.56621047  1  0  0.107308  0  0.942295  0  0  0.116146  0  1.006106  0  0  0.118743  0  1.003695  0  0.115957  0  0.114952  0.114218  0  1.00802  0
H  H26  1  0.30234512  0.58655043  0.21015300  1  0  0.437484  0  0.862489  0  0  0.403653  0  0.930147  0  0  0.414973  0  0.913703  0  0.635397  0  0.290892  0.39562  0  0.941793  0
H  H27  1  0.19782659  0.58654269  0.28986191  1  0  0.437301  0  0.862708  0  0  0.40353  0  0.930349  0  0  0.414843  0  0.913916  0  0.63555  0  0.290853  0.395494  0  0.942002  0
H  H28  1  0.69775404  0.41345489  0.78985890  1  0  0.437381  0  0.862642  0  0  0.403635  0  0.930194  0  0  0.414951  0  0.913755  0  0.635884  0  0.290893  0.3956  0  0.941845  0
H  H29  1  0.80227104  0.41345575  0.71014703  1  0  0.437635  0  0.862292  0  0  0.403836  0  0.929903  0  0  0.415151  0  0.913463  0  0.6359  0  0.290955  0.395803  0  0.94155  0
H  H30  1  0.96373500  0.88023027  0.12057663  1  0  0.420243  0  0.816358  0  0  0.404566  0  0.867236  0  0  0.412785  0  0.858841  0  0.600559  0  0.32262  0.398615  0  0.873408  0
H  H31  1  0.53628092  0.88025349  0.37945742  1  0  0.419886  0  0.817084  0  0  0.404317  0  0.86776  0  0  0.412537  0  0.859365  0  0.60097  0  0.322476  0.398366  0  0.873927  0
H  H32  1  0.03626951  0.11975956  0.87944800  1  0  0.420008  0  0.816836  0  0  0.404392  0  0.867591  0  0  0.41261  0  0.859195  0  0.601285  0  0.322515  0.398445  0  0.873756  0
H  H33  1  0.46372511  0.11975870  0.62056272  1  0  0.420095  0  0.816694  0  0  0.40445  0  0.867502  0  0  0.412668  0  0.859106  0  0.601444  0  0.322588  0.398502  0  0.873667  0
H  H34  1  0.93975533  0.75095128  0.13636174  1  0  0.440666  0  0.850628  0  0  0.410258  0  0.911393  0  0  0.421876  0  0.894765  0  0.661436  0  0.292289  0.402001  0  0.923187  0
H  H35  1  0.56024228  0.75097794  0.36366034  1  0  0.440752  0  0.850554  0  0  0.410275  0  0.911432  0  0  0.421891  0  0.894807  0  0.661678  0  0.292232  0.402017  0  0.923227  0
H  H36  1  0.06023544  0.24903511  0.86365291  1  0  0.440817  0  0.850479  0  0  0.410361  0  0.911322  0  0  0.421975  0  0.894698  0  0.661553  0  0.292299  0.402105  0  0.923114  0
H  H37  1  0.43975765  0.24903769  0.63634969  1  0  0.440749  0  0.850555  0  0  0.410318  0  0.911347  0  0  0.421934  0  0.894721  0  0.661542  0  0.292316  0.40206  0  0.923142  0
H  H38  1  0.34058406  0.36123692  0.53173651  1  0  0.438954  0  0.849198  0  0  0.409887  0  0.909872  0  0  0.419753  0  0.895648  0  0.638734  0  0.299314  0.402887  0  0.919949  0
H  H39  1  0.15941820  0.36124380  0.96825976  1  0  0.438875  0  0.849336  0  0  0.409809  0  0.910003  0  0  0.419676  0  0.895778  0  0.638762  0  0.299289  0.402828  0  0.92006  0
H  H40  1  0.65940366  0.63875549  0.46826936  1  0  0.438932  0  0.849203  0  0  0.409817  0  0.909975  0  0  0.419703  0  0.895728  0  0.638682  0  0.299308  0.402816  0  0.92005  0
H  H41  1  0.84058020  0.63875893  0.03174502  1  0  0.438904  0  0.849258  0  0  0.409824  0  0.909973  0  0  0.41969  0  0.895748  0  0.638741  0  0.299334  0.402825  0  0.920048  0
H  H42  1  0.44416978  0.44161155  0.59641081  1  0  0.440286  0  0.849869  0  0  0.407774  0  0.915716  0  0  0.418731  0  0.899651  0  0.645667  0  0.296429  0.399953  0  0.927163  0
H  H43  1  0.05582484  0.44161585  0.90358442  1  0  0.440268  0  0.849886  0  0  0.407774  0  0.915699  0  0  0.41873  0  0.899638  0  0.645599  0  0.29646  0.399952  0  0.927146  0
H  H44  1  0.55580725  0.55839978  0.40358467  1  0  0.44022  0  0.849997  0  0  0.40757  0  0.915961  0  0  0.418554  0  0.899883  0  0.645765  0  0.296386  0.399747  0  0.927405  0
H  H45  1  0.94416135  0.55836968  0.09641275  1  0  0.440199  0  0.849962  0  0  0.407684  0  0.915806  0  0  0.418648  0  0.89974  0  0.645308  0  0.296491  0.399859  0  0.927255  0
C  C46  1  0.53212375  0.27991800  0.29995225  1  0  -0.048105  0  3.777992  0  0  -0.018653  0  4.008607  0  0  -0.027919  0  4.033677  0  -0.061607  0  -0.014988  -0.01283  0  3.992084  0
C  C47  1  0.96787843  0.27992918  0.20004314  1  0  -0.048145  0  3.777956  0  0  -0.01872  0  4.008585  0  0  -0.027996  0  4.033678  0  -0.058797  0  -0.015016  -0.012898  0  3.992064  0
C  C48  1  0.46787770  0.72007269  0.70004812  1  0  -0.048243  0  3.778096  0  0  -0.018803  0  4.008745  0  0  -0.028071  0  4.033813  0  -0.061444  0  -0.015067  -0.012979  0  3.992224  0
C  C49  1  0.03211997  0.72008215  0.79995246  1  0  -0.047904  0  3.777844  0  0  -0.018485  0  4.00847  0  0  -0.027755  0  4.033546  0  -0.061509  0  -0.014926  -0.012667  0  3.991955  0
C  C50  1  0.50318845  0.36672033  0.24407092  1  0  -0.066978  0  3.685366  0  0  -0.109556  0  3.940773  0  0  -0.106357  0  3.958478  0  0.004467  0  -0.077547  -0.111427  0  3.928904  0
C  C51  1  0.99680763  0.36673753  0.25592239  1  0  -0.066476  0  3.684735  0  0  -0.109059  0  3.940124  0  0  -0.105874  0  3.957832  0  0.002017  0  -0.077391  -0.110941  0  3.92827  0
C  C52  1  0.49681148  0.63326606  0.75592764  1  0  -0.066499  0  3.684953  0  0  -0.109148  0  3.940376  0  0  -0.105964  0  3.958096  0  0.004473  0  -0.077427  -0.111026  0  3.928516  0
C  C53  1  0.00318467  0.63327552  0.74407055  1  0  -0.066889  0  3.685278  0  0  -0.10946  0  3.940645  0  0  -0.106276  0  3.95837  0  0.004882  0  -0.077527  -0.111326  0  3.928771  0
C  C54  1  0.44684606  0.33823858  0.16577119  1  0  -0.060717  0  3.775112  0  0  -0.03474  0  4.016344  0  0  -0.044227  0  4.039808  0  0.001034  0  -0.020547  -0.028697  0  4.000791  0
C  C55  1  0.05313635  0.33825492  0.33422046  1  0  -0.060652  0  3.774796  0  0  -0.034779  0  4.016219  0  0  -0.044233  0  4.039629  0  0.000966  0  -0.020727  -0.028742  0  4.000672  0
C  C56  1  0.55314623  0.66175039  0.83422463  1  0  -0.06079  0  3.775169  0  0  -0.034846  0  4.016583  0  0  -0.044311  0  4.040006  0  0.000739  0  -0.020703  -0.028806  0  4.001039  0
C  C57  1  0.94684374  0.66175469  0.66577463  1  0  -0.060858  0  3.775133  0  0  -0.034867  0  4.016427  0  0  -0.044335  0  4.039859  0  0.001018  0  -0.020614  -0.028826  0  4.000876  0
C  C58  1  0.42284959  0.22301901  0.14298732  1  0  -0.151217  0  3.66036  0  0  -0.190969  0  3.912145  0  0  -0.191235  0  3.930183  0  -0.012151  0  -0.085881  -0.190479  0  3.900191  0
C  C59  1  0.07712976  0.22303277  0.35700529  1  0  -0.151245  0  3.660425  0  0  -0.190932  0  3.912181  0  0  -0.191201  0  3.930215  0  -0.011855  0  -0.085806  -0.190441  0  3.900228  0
C  C60  1  0.57714118  0.77697083  0.85701013  1  0  -0.151032  0  3.660412  0  0  -0.190764  0  3.912195  0  0  -0.191027  0  3.930228  0  -0.011601  0  -0.085718  -0.190281  0  3.900249  0
C  C61  1  0.92285185  0.77697599  0.64298702  1  0  -0.150992  0  3.66028  0  0  -0.190769  0  3.912065  0  0  -0.191027  0  3.930112  0  -0.01212  0  -0.085763  -0.190285  0  3.900117  0
C  C62  1  0.45251007  0.13710248  0.19945983  1  0  0.250779  0  3.799439  0  0  0.253292  0  4.05867  0  0  0.258266  0  4.077462  0  0.324919  0  0.076142  0.249441  0  4.046069  0
C  C63  1  0.04747386  0.13711538  0.30053535  1  0  0.250957  0  3.799807  0  0  0.253502  0  4.058991  0  0  0.258464  0  4.077812  0  0.324629  0  0.076258  0.24965  0  4.046386  0
C  C64  1  0.54747764  0.86288735  0.80053973  1  0  0.250911  0  3.79953  0  0  0.253442  0  4.058775  0  0  0.258422  0  4.077563  0  0.325157  0  0.076231  0.249591  0  4.046173  0
C  C65  1  0.95251843  0.86289681  0.69945645  1  0  0.250695  0  3.799895  0  0  0.253292  0  4.059065  0  0  0.25825  0  4.077884  0  0.325447  0  0.076097  0.249441  0  4.046464  0
C  C66  1  0.50673800  0.16477324  0.27744784  1  0  -0.146988  0  3.706405  0  0  -0.186042  0  3.96057  0  0  -0.186003  0  3.978929  0  0.127219  0  -0.084856  -0.185776  0  3.948339  0
C  C67  1  0.99326113  0.16478786  0.22254508  1  0  -0.14707  0  3.706293  0  0  -0.186132  0  3.960505  0  0  -0.186101  0  3.978882  0  0.128187  0  -0.084809  -0.185864  0  3.94827  0
C  C68  1  0.49326193  0.83521487  0.72254958  1  0  -0.146923  0  3.706243  0  0  -0.185925  0  3.960352  0  0  -0.185897  0  3.978722  0  0.127506  0  -0.084762  -0.185657  0  3.948114  0
C  C69  1  0.00673727  0.83522433  0.77744421  1  0  -0.1471  0  3.706562  0  0  -0.186178  0  3.960694  0  0  -0.186146  0  3.979082  0  0.1274  0  -0.084849  -0.185907  0  3.948455  0
C  C70  1  0.60046743  0.30765412  0.38347223  1  0  0.633765  0  3.927972  0  0  0.584208  0  4.215665  0  0  0.617662  0  4.213209  0  1.532721  0  0.19345  0.561528  0  4.216511  0
C  C71  1  0.89954391  0.30766702  0.11652371  1  0  0.633776  0  3.92804  0  0  0.584303  0  4.215635  0  0  0.617763  0  4.213168  0  1.532594  0  0.19348  0.56162  0  4.216482  0
C  C72  1  0.39954319  0.69233400  0.61652697  1  0  0.633632  0  3.928137  0  0  0.584107  0  4.215809  0  0  0.617567  0  4.213346  0  1.532614  0  0.193378  0.561424  0  4.216654  0
C  C73  1  0.10045754  0.69234948  0.88347437  1  0  0.633592  0  3.928184  0  0  0.584112  0  4.215775  0  0  0.61757  0  4.213312  0  1.532699  0  0.193408  0.561431  0  4.216623  0
C  C74  1  0.40510949  0.42985008  0.10557347  1  0  0.675255  0  3.871152  0  0  0.615415  0  4.168803  0  0  0.651412  0  4.161616  0  1.529425  0  0.213671  0.59097  0  4.172934  0
C  C75  1  0.09487597  0.42986470  0.39441836  1  0  0.67503  0  3.871102  0  0  0.615238  0  4.168731  0  0  0.651219  0  4.161553  0  1.530393  0  0.21379  0.590792  0  4.172861  0
C  C76  1  0.59489197  0.57014233  0.89442519  1  0  0.675097  0  3.871034  0  0  0.615213  0  4.168754  0  0  0.651195  0  4.161577  0  1.530144  0  0.213742  0.590763  0  4.172891  0
C  C77  1  0.90509953  0.57014491  0.60557703  1  0  0.67537  0  3.870763  0  0  0.615518  0  4.168455  0  0  0.651499  0  4.161274  0  1.529737  0  0.213735  0.591071  0  4.172589  0
C  C78  1  0.52248120  0.98571456  0.11768087  1  0  -0.067439  0  3.623075  0  0  -0.119413  0  3.879665  0  0  -0.116892  0  3.878961  0  0.356108  0  -0.067851  -0.121253  0  3.880167  0
C  C79  1  0.97751946  0.98572574  0.38231673  1  0  -0.067807  0  3.622833  0  0  -0.119865  0  3.879623  0  0  -0.11736  0  3.878941  0  0.355978  0  -0.067924  -0.121722  0  3.88012  0
C  C80  1  0.47750652  0.01427613  0.88232098  1  0  -0.068024  0  3.622999  0  0  -0.120016  0  3.879728  0  0  -0.117515  0  3.879053  0  0.356322  0  -0.067991  -0.121874  0  3.880227  0
C  C81  1  0.02248505  0.01428387  0.61767178  1  0  -0.068004  0  3.622983  0  0  -0.119975  0  3.879534  0  0  -0.11743  0  3.878844  0  0.35611  0  -0.067997  -0.12181  0  3.88004  0
C  C82  1  0.47026239  0.86328467  0.09494110  1  0  0.678138  0  3.893164  0  0  0.628565  0  4.186967  0  0  0.663152  0  4.180715  0  1.575355  0  0.202447  0.60488  0  4.190381  0
C  C83  1  0.02972155  0.86329241  0.40505522  1  0  0.678312  0  3.892503  0  0  0.628693  0  4.186404  0  0  0.663274  0  4.180161  0  1.57558  0  0.202616  0.605028  0  4.189796  0
C  C84  1  0.52970853  0.13671032  0.90505803  1  0  0.678607  0  3.892283  0  0  0.628908  0  4.186294  0  0  0.663487  0  4.180049  0  1.576829  0  0.202693  0.605245  0  4.189686  0
C  C85  1  0.97028449  0.13671634  0.59493912  1  0  0.678467  0  3.892706  0  0  0.628919  0  4.186481  0  0  0.663505  0  4.18022  0  1.575773  0  0.202608  0.605233  0  4.189899  0
O  O86  1  0.63584077  0.41276946  0.40369831  1  0  -0.67254  0  2.005097  0  0  -0.603176  0  2.241075  0  0  -0.633829  0  2.232153  0  -1.171538  0  -0.325459  -0.581537  0  2.24647  0
O  O87  1  0.86414920  0.41277978  0.09629177  1  0  -0.672585  0  2.005183  0  0  -0.603269  0  2.241158  0  0  -0.633922  0  2.232208  0  -1.171761  0  -0.325499  -0.581632  0  2.246563  0
O  O88  1  0.36415916  0.58721951  0.59629738  1  0  -0.672512  0  2.005121  0  0  -0.603229  0  2.241214  0  0  -0.633881  0  2.232261  0  -1.171711  0  -0.325438  -0.58159  0  2.246618  0
O  O89  1  0.13585073  0.58723585  0.90370220  1  0  -0.67248  0  2.005163  0  0  -0.60321  0  2.241244  0  0  -0.633865  0  2.232298  0  -1.171474  0  -0.325475  -0.581568  0  2.246641  0
O  O90  1  0.25012021  0.63408995  0.25001924  1  0  -0.878856  0  1.840945  0  0  -0.809279  0  2.042682  0  0  -0.832868  0  2.005777  0  -1.264351  0  -0.604113  -0.792487  0  2.068464  0
O  O91  1  0.75002781  0.36591020  0.75000588  1  0  -0.879095  0  1.840813  0  0  -0.809555  0  2.04265  0  0  -0.83314  0  2.005747  0  -1.265047  0  -0.604206  -0.792767  0  2.068433  0
O  O92  1  0.63205153  0.22562225  0.43227650  1  0  -0.630964  0  1.916468  0  0  -0.569444  0  2.142221  0  0  -0.599094  0  2.135085  0  -1.149163  0  -0.333514  -0.548656  0  2.146438  0
O  O93  1  0.86796134  0.22563945  0.06771552  1  0  -0.63096  0  1.916627  0  0  -0.569477  0  2.142358  0  0  -0.599124  0  2.135208  0  -1.149042  0  -0.333527  -0.548687  0  2.146576  0
O  O94  1  0.36795298  0.77436414  0.56771947  1  0  -0.630866  0  1.916621  0  0  -0.569358  0  2.142379  0  0  -0.599005  0  2.135231  0  -1.148981  0  -0.333483  -0.548567  0  2.146596  0
O  O95  1  0.13203401  0.77438134  0.93227761  1  0  -0.630908  0  1.916588  0  0  -0.569416  0  2.142295  0  0  -0.599064  0  2.135157  0  -1.149196  0  -0.333489  -0.548629  0  2.146513  0
O  O96  1  0.94363922  0.82848617  0.16272907  1  0  -0.81364  0  1.832414  0  0  -0.75522  0  2.019186  0  0  -0.778852  0  1.989733  0  -1.209907  0  -0.568856  -0.7384  0  2.039716  0
O  O97  1  0.55636144  0.82851799  0.33729892  1  0  -0.813378  0  1.833107  0  0  -0.755059  0  2.019845  0  0  -0.778696  0  1.990384  0  -1.21063  0  -0.56866  -0.73824  0  2.040376  0
O  O98  1  0.05634544  0.17149936  0.83729095  1  0  -0.813553  0  1.83279  0  0  -0.755169  0  2.019556  0  0  -0.778801  0  1.9901  0  -1.210794  0  -0.568774  -0.738353  0  2.040085  0
O  O99  1  0.44364918  0.17150280  0.66271748  1  0  -0.813579  0  1.832688  0  0  -0.755183  0  2.019522  0  0  -0.778814  0  1.990064  0  -1.210961  0  -0.568855  -0.738366  0  2.040049  0
O  O100  1  0.38354656  0.40447984  0.03401705  1  0  -0.6752  0  2.049248  0  0  -0.60942  0  2.298885  0  0  -0.637053  0  2.286066  0  -1.182793  0  -0.318773  -0.589888  0  2.306762  0
O  O101  1  0.11644043  0.40449360  0.46597716  1  0  -0.675305  0  2.049441  0  0  -0.609439  0  2.298982  0  0  -0.637075  0  2.286174  0  -1.183429  0  -0.318864  -0.589907  0  2.306866  0
O  O102  1  0.61644726  0.59551171  0.96598058  1  0  -0.675125  0  2.049279  0  0  -0.609275  0  2.298875  0  0  -0.636929  0  2.286104  0  -1.183099  0  -0.318798  -0.589737  0  2.30674  0
O  O103  1  0.88355034  0.59551085  0.53402086  1  0  -0.675318  0  2.049271  0  0  -0.609424  0  2.298844  0  0  -0.637083  0  2.286079  0  -1.182996  0  -0.318783  -0.589895  0  2.306732  0
O  O104  1  0.45625198  0.36289071  0.57535314  1  0  -0.839065  0  1.848869  0  0  -0.775948  0  2.022124  0  0  -0.798575  0  1.988866  0  -1.244608  0  -0.562805  -0.759811  0  2.045388  0
O  O105  1  0.04374569  0.36289673  0.92464343  1  0  -0.839037  0  1.848965  0  0  -0.775932  0  2.022204  0  0  -0.798559  0  1.988947  0  -1.244587  0  -0.562839  -0.759818  0  2.045423  0
O  O106  1  0.54373115  0.63711374  0.42465188  1  0  -0.839011  0  1.848958  0  0  -0.775647  0  2.022607  0  0  -0.79833  0  1.989212  0  -1.24472  0  -0.56276  -0.759502  0  2.045889  0
O  O107  1  0.95625729  0.63709654  0.07536277  1  0  -0.838972  0  1.848962  0  0  -0.775871  0  2.022275  0  0  -0.798507  0  1.988993  0  -1.244257  0  -0.562901  -0.75973  0  2.045545  0
O  O108  1  0.38859684  0.53378549  0.12941670  1  0  -0.647822  0  2.049268  0  0  -0.563014  0  2.289512  0  0  -0.595731  0  2.277798  0  -1.149171  0  -0.311982  -0.540214  0  2.296897  0
O  O109  1  0.11139625  0.53379753  0.37057787  1  0  -0.647503  0  2.048842  0  0  -0.562927  0  2.289327  0  0  -0.595618  0  2.277598  0  -1.149435  0  -0.311997  -0.540111  0  2.296699  0
O  O110  1  0.61140767  0.46620348  0.87058270  1  0  -0.647735  0  2.048957  0  0  -0.562995  0  2.289304  0  0  -0.595689  0  2.277578  0  -1.149491  0  -0.312032  -0.540175  0  2.296672  0
O  O111  1  0.88858535  0.46620864  0.62941789  1  0  -0.647757  0  2.048833  0  0  -0.563131  0  2.289256  0  0  -0.595828  0  2.277536  0  -1.149416  0  -0.312066  -0.540317  0  2.296626  0
O  O112  1  0.42134275  0.02150020  0.18097569  1  0  -0.320078  0  2.322423  0  0  -0.253214  0  2.565675  0  0  -0.269543  0  2.565249  0  -1.079366  0  -0.1983  -0.241282  0  2.565515  0
O  O113  1  0.07864576  0.02151998  0.31901746  1  0  -0.320038  0  2.322661  0  0  -0.253181  0  2.56594  0  0  -0.269502  0  2.565529  0  -1.078822  0  -0.198417  -0.241248  0  2.565782  0
O  O114  1  0.57864344  0.97848447  0.81901919  1  0  -0.319934  0  2.322518  0  0  -0.253124  0  2.565813  0  0  -0.26945  0  2.565396  0  -1.07926  0  -0.198378  -0.241192  0  2.565654  0
O  O115  1  0.92134806  0.97849307  0.68097156  1  0  -0.319861  0  2.322565  0  0  -0.253101  0  2.565845  0  0  -0.269422  0  2.565419  0  -1.0795  0  -0.198267  -0.241169  0  2.565683  0
O  O116  1  0.35371967  0.80395616  0.13210703  1  0  -0.69678  0  2.079034  0  0  -0.612016  0  2.335658  0  0  -0.647897  0  2.323712  0  -1.155359  0  -0.329772  -0.58645  0  2.342788  0
O  O117  1  0.14624594  0.80395530  0.36788649  1  0  -0.696785  0  2.078679  0  0  -0.612015  0  2.335372  0  0  -0.647891  0  2.323422  0  -1.15544  0  -0.329827  -0.586457  0  2.342497  0
O  O118  1  0.64622835  0.19604571  0.86789017  1  0  -0.696902  0  2.078726  0  0  -0.612141  0  2.335496  0  0  -0.648015  0  2.323545  0  -1.156081  0  -0.329867  -0.586585  0  2.342623  0
O  O119  1  0.85375551  0.19604829  0.63210471  1  0  -0.6969  0  2.078831  0  0  -0.612176  0  2.335489  0  0  -0.648052  0  2.323538  0  -1.155329  0  -0.329883  -0.586613  0  2.342625  0
O  O120  1  0.53894041  0.82403563  0.03702295  1  0  -0.613104  0  1.965249  0  0  -0.55887  0  2.200779  0  0  -0.588177  0  2.191872  0  -1.157286  0  -0.311131  -0.538195  0  2.206138  0
O  O121  1  0.96105261  0.82405283  0.46297706  1  0  -0.613143  0  1.965093  0  0  -0.558855  0  2.200613  0  0  -0.588157  0  2.191701  0  -1.157408  0  -0.311206  -0.538189  0  2.20597  0
O  O122  1  0.46103509  0.17594131  0.96298276  1  0  -0.613314  0  1.964857  0  0  -0.558969  0  2.200384  0  0  -0.58827  0  2.191476  0  -1.157928  0  -0.311259  -0.5383  0  2.205735  0
O  O123  1  0.03896869  0.17596109  0.53702047  1  0  -0.613195  0  1.96498  0  0  -0.558989  0  2.200535  0  0  -0.588293  0  2.191628  0  -1.157595  0  -0.311165  -0.538312  0  2.205894  0
