# generated using pymatgen
data_Al2H10C17S2O11
_symmetry_space_group_name_H-M   'P 1'
_cell_length_a   6.85960515
_cell_length_b   11.14414229
_cell_length_c   12.56683547
_cell_angle_alpha   74.69068942
_cell_angle_beta   77.21013548
_cell_angle_gamma   72.10985382
_symmetry_Int_Tables_number   1
_chemical_formula_structural   Al2H10C17S2O11
_chemical_formula_sum   'Al2 H10 C17 S2 O11'
_cell_volume   871.41538375
_cell_formula_units_Z   1
loop_
 _symmetry_equiv_pos_site_id
 _symmetry_equiv_pos_as_xyz
  1  'x, y, z'
loop_
 _atom_site_type_symbol
 _atom_site_label
 _atom_site_symmetry_multiplicity
 _atom_site_fract_x
 _atom_site_fract_y
 _atom_site_fract_z
 _atom_site_occupancy
 _atom_site_pbe_bader_charge
 _atom_site_pbe_bader_spin_density
 _atom_site_pbe_cm5_charge
 _atom_site_pbe_ddec_charge
 _atom_site_pbe_ddec_spin_density
 _atom_site_pbe_ddec_sum_bond_order
 _atom_site_pbe_magmom
Al  Al0  1  0.50100814  0.50028524  0.49718368  1  2.507646  0  0.411184  1.638338  0  2.557761  0
Al  Al1  1  0.00240384  0.49694931  0.49900844  1  2.507911  0  0.403401  1.648526  0  2.561143  0
H  H2  1  0.25477475  0.59756144  0.36471384  1  0.63952  0  0.345432  0.42251  0  0.866511  0
H  H3  1  0.78825009  0.34620792  0.58682553  1  0.605324  0  0.350119  0.427501  0  0.855944  0
H  H4  1  0.13050096  0.11505408  0.49689920  1  0.092513  0  0.10347  0.109671  0  1.016505  0
H  H5  1  0.75512091  0.11742394  0.50385185  1  0.095315  0  0.111718  0.13141  0  1.000807  0
H  H6  1  0.25322036  0.88103580  0.49503733  1  0.126156  0  0.106196  0.116414  0  1.036918  0
H  H7  1  0.61756480  0.49143761  0.12927621  1  0.121956  0  0.110348  0.12955  0  1.011472  0
H  H8  1  0.93929414  0.78397974  0.50252221  1  0.659315  0  0.316377  0.359809  0  0.958764  0
H  H9  1  0.51534024  0.51234816  0.78324852  1  0.101217  0  0.102915  0.159963  0  1.008881  0
H  H10  1  0.45776331  0.59166838  0.89715787  1  0.0472  0  0.092407  0.131824  0  0.993986  0
H  H11  1  0.53548298  0.42051168  0.92130258  1  0.07297  0  0.091354  0.131323  0  1.002859  0
C  C12  1  0.82527246  0.51082069  0.29982702  1  1.585163  0  0.262333  0.656797  0  4.122924  0
C  C13  1  0.63939702  0.72780598  0.49598188  1  1.522655  0  0.265997  0.653724  0  4.071303  0
C  C14  1  0.17891349  0.49109693  0.69483624  1  1.607422  0  0.265094  0.661611  0  4.119005  0
C  C15  1  0.36303797  0.27049535  0.50320416  1  1.545326  0  0.272291  0.653606  0  4.067737  0
C  C16  1  0.57208750  0.86629421  0.49842480  1  -0.028262  0  -0.032543  -0.194033  0  3.973938  0
C  C17  1  0.43565505  0.13012445  0.50114772  1  0.034579  0  -0.009298  -0.016022  0  3.999563  0
C  C18  1  0.71548694  0.93387402  0.50143528  1  0.565971  0  0.097031  0.316975  0  4.057744  0
C  C19  1  0.29310021  0.06361455  0.49836746  1  -0.078382  0  -0.098567  -0.129206  0  4.001087  0
C  C20  1  0.64469034  0.06576847  0.50238743  1  -0.028567  0  -0.095976  -0.216178  0  3.927449  0
C  C21  1  0.36202119  0.93347577  0.49702530  1  0.017788  0  -0.078624  -0.058706  0  3.987606  0
C  C22  1  0.22816021  0.50288029  0.89067524  1  0.0542  0  -0.005593  0.155346  0  4.011755  0
C  C23  1  0.77754947  0.49694826  0.10588928  1  -0.022854  0  -0.087929  -0.128574  0  3.962959  0
C  C24  1  0.11905593  0.49341116  0.81399477  1  -0.194432  0  -0.024298  -0.202783  0  3.954956  0
C  C25  1  0.88941709  0.50629345  0.18126043  1  -0.158514  0  -0.02101  -0.125312  0  3.972792  0
C  C26  1  0.89991952  0.49500519  0.99940498  1  -0.113317  0  -0.023847  -0.016381  0  4.089422  0
C  C27  1  0.10193828  0.50342095  0.99609825  1  -0.219568  0  -0.02406  -0.078315  0  4.052395  0
C  C28  1  0.44565173  0.50797696  0.87068277  1  -0.067251  0  -0.246938  -0.42054  0  4.013407  0
S  S29  1  0.86872917  0.48530715  0.86998026  1  0.288485  0  0.099804  0.130825  0  3.042276  0
S  S30  1  0.14278988  0.51204996  0.12372009  1  0.250315  0  0.080451  0.118792  0  2.803966  0
O  O31  1  0.63974464  0.50821290  0.34399003  1  -1.258293  0  -0.240394  -0.590714  0  2.297104  0
O  O32  1  0.83370460  0.67054326  0.50000124  1  -1.257271  0  -0.235021  -0.600055  0  2.38699  0
O  O33  1  0.03639888  0.48387279  0.64770056  1  -1.264328  0  -0.240577  -0.601686  0  2.363241  0
O  O34  1  0.49837736  0.32527229  0.50814140  1  -1.268735  0  -0.239737  -0.609587  0  2.350026  0
O  O35  1  0.36165838  0.49587073  0.64739596  1  -1.263607  0  -0.23092  -0.572755  0  2.335741  0
O  O36  1  0.17012575  0.32439426  0.50065229  1  -1.270958  0  -0.237423  -0.606367  0  2.346228  0
O  O37  1  0.96649844  0.51798593  0.34807938  1  -1.262795  0  -0.245  -0.615076  0  2.364721  0
O  O38  1  0.50698349  0.67291825  0.48909013  1  -1.259506  0  -0.227619  -0.572253  0  2.340686  0
O  O39  1  0.24117255  0.56194278  0.44446655  1  -1.44816  0  -0.450854  -0.981678  0  2.126317  0
O  O40  1  0.76126126  0.43625002  0.54900418  1  -1.410156  0  -0.449378  -0.981103  0  2.134263  0
O  O41  1  0.91938131  0.87673785  0.50319766  1  -1.173989  0  -0.342316  -0.437194  0  2.299562  0
