# generated using pymatgen
data_HoH7C8O7
_symmetry_space_group_name_H-M   'P 1'
_cell_length_a   7.15659352
_cell_length_b   7.65343280
_cell_length_c   17.29844020
_cell_angle_alpha   92.13275837
_cell_angle_beta   89.99981732
_cell_angle_gamma   90.00003530
_symmetry_Int_Tables_number   1
_chemical_formula_structural   HoH7C8O7
_chemical_formula_sum   'Ho4 H28 C32 O28'
_cell_volume   946.82260945
_cell_formula_units_Z   4
loop_
 _symmetry_equiv_pos_site_id
 _symmetry_equiv_pos_as_xyz
  1  'x, y, z'
loop_
 _atom_site_type_symbol
 _atom_site_label
 _atom_site_symmetry_multiplicity
 _atom_site_fract_x
 _atom_site_fract_y
 _atom_site_fract_z
 _atom_site_occupancy
 _atom_site_hle17_bader_spin_density
 _atom_site_hle17_ddec_charge
 _atom_site_hle17_ddec_spin_density
 _atom_site_hle17_ddec_sum_bond_order
 _atom_site_hle17_magmom
 _atom_site_hse06_10hf_bader_spin_density
 _atom_site_hse06_10hf_ddec_charge
 _atom_site_hse06_10hf_ddec_spin_density
 _atom_site_hse06_10hf_ddec_sum_bond_order
 _atom_site_hse06_10hf_magmom
 _atom_site_hse06_bader_spin_density
 _atom_site_hse06_ddec_charge
 _atom_site_hse06_ddec_spin_density
 _atom_site_hse06_ddec_sum_bond_order
 _atom_site_hse06_magmom
 _atom_site_pbe_bader_spin_density
 _atom_site_pbe_cm5_charge
 _atom_site_pbe_ddec_charge
 _atom_site_pbe_ddec_spin_density
 _atom_site_pbe_ddec_sum_bond_order
 _atom_site_pbe_magmom
Ho  Ho0  1  0.00600714  0.64618024  0.75332056  1  0  2.287169  0  1.59988  0  0  2.141937  0  2.059023  0  0  2.271596  0  1.870438  0  0  1.540372  2.104766  0  2.089441  0
Ho  Ho1  1  0.50600908  0.85382376  0.74668063  1  0  2.287122  0  1.599958  0  0  2.141861  0  2.059161  0  0  2.271555  0  1.870521  0  0  1.540379  2.104709  0  2.089561  0
Ho  Ho2  1  0.99398883  0.35381732  0.24667761  1  0  2.287165  0  1.599925  0  0  2.14196  0  2.059019  0  0  2.271583  0  1.870481  0  0  1.540335  2.104716  0  2.089559  0
Ho  Ho3  1  0.49398549  0.14618171  0.25332170  1  0  2.287129  0  1.599965  0  0  2.141922  0  2.059076  0  0  2.271552  0  1.870525  0  0  1.540348  2.104748  0  2.089521  0
H  H4  1  0.15990763  0.46357578  0.97976997  1  0  0.125542  0  0.94303  0  0  0.132495  0  1.008365  0  0  0.136868  0  1.004777  0  0  0.119063  0.129416  0  1.010787  0
H  H5  1  0.65990833  0.03643281  0.52022976  1  0  0.125541  0  0.942936  0  0  0.132505  0  1.008272  0  0  0.136881  0  1.004678  0  0  0.11908  0.129426  0  1.010692  0
H  H6  1  0.84009671  0.53642307  0.02022648  1  0  0.125576  0  0.942821  0  0  0.132473  0  1.008261  0  0  0.136848  0  1.004669  0  0  0.119064  0.129393  0  1.010681  0
H  H7  1  0.34009602  0.96356874  0.47977252  1  0  0.12558  0  0.942926  0  0  0.132527  0  1.008294  0  0  0.136901  0  1.004707  0  0  0.119089  0.12945  0  1.010714  0
H  H8  1  0.28816019  0.30110080  0.55456123  1  0  0.100316  0  0.936501  0  0  0.116826  0  0.992572  0  0  0.118375  0  0.992639  0  0  0.096006  0.115836  0  0.992223  0
H  H9  1  0.78816329  0.19890000  0.94543880  1  0  0.100311  0  0.936508  0  0  0.11682  0  0.992572  0  0  0.118369  0  0.992639  0  0  0.096023  0.11583  0  0.992227  0
H  H10  1  0.71184555  0.69890335  0.44544050  1  0  0.100324  0  0.936488  0  0  0.116856  0  0.992549  0  0  0.118404  0  0.992613  0  0  0.096027  0.115863  0  0.992203  0
H  H11  1  0.21184665  0.80109759  0.05456168  1  0  0.100263  0  0.936478  0  0  0.116794  0  0.992562  0  0  0.118345  0  0.992624  0  0  0.096023  0.115802  0  0.992212  0
H  H12  1  0.48159695  0.24662616  0.61262500  1  0  0.116269  0  0.944513  0  0  0.128489  0  1.008335  0  0  0.131078  0  1.007218  0  0  0.104262  0.126725  0  1.009072  0
H  H13  1  0.98159914  0.25337344  0.88737535  1  0  0.116257  0  0.944498  0  0  0.128471  0  1.00833  0  0  0.131059  0  1.007213  0  0  0.104264  0.126712  0  1.009065  0
H  H14  1  0.51841019  0.75338324  0.38737796  1  0  0.11628  0  0.944495  0  0  0.128516  0  1.008312  0  0  0.131101  0  1.007195  0  0  0.10429  0.126752  0  1.009051  0
H  H15  1  0.01840800  0.74662021  0.11262335  1  0  0.116242  0  0.944505  0  0  0.128492  0  1.008318  0  0  0.131082  0  1.007197  0  0  0.104279  0.126733  0  1.00905  0
H  H16  1  0.66834811  0.49075362  0.55506731  1  0  0.075386  0  0.92743  0  0  0.0943  0  0.985173  0  0  0.096132  0  0.984159  0  0  0.094875  0.09297  0  0.985832  0
H  H17  1  0.16835019  0.00924712  0.94493231  1  0  0.075377  0  0.927439  0  0  0.094288  0  0.985179  0  0  0.09612  0  0.984164  0  0  0.09489  0.092965  0  0.985836  0
H  H18  1  0.33165903  0.50925313  0.44493388  1  0  0.075462  0  0.927456  0  0  0.094347  0  0.985212  0  0  0.096172  0  0.984208  0  0  0.094894  0.093017  0  0.98587  0
H  H19  1  0.83165835  0.99074783  0.05506583  1  0  0.075451  0  0.927443  0  0  0.094313  0  0.985241  0  0  0.096159  0  0.984209  0  0  0.094894  0.092989  0  0.985896  0
H  H20  1  0.60007142  0.32453912  0.48721384  1  0  0.061763  0  0.962943  0  0  0.080627  0  1.025262  0  0  0.080719  0  1.026767  0  0  0.086775  0.080603  0  1.024048  0
H  H21  1  0.10007136  0.17546102  0.01278542  1  0  0.061715  0  0.962934  0  0  0.080575  0  1.025257  0  0  0.080668  0  1.026763  0  0  0.086752  0.08055  0  1.024051  0
H  H22  1  0.39993013  0.67546501  0.51278673  1  0  0.061727  0  0.962999  0  0  0.08059  0  1.025316  0  0  0.08068  0  1.026818  0  0  0.086761  0.080563  0  1.024107  0
H  H23  1  0.89993438  0.82453395  0.98721387  1  0  0.061746  0  0.962991  0  0  0.080613  0  1.025312  0  0  0.080702  0  1.026818  0  0  0.086771  0.080589  0  1.0241  0
H  H24  1  0.81362334  0.29543868  0.69276961  1  0  0.459984  0  0.820424  0  0  0.434907  0  0.870923  0  0  0.445972  0  0.854915  0  0  0.311225  0.427527  0  0.881604  0
H  H25  1  0.31362381  0.20456999  0.80723108  1  0  0.459969  0  0.820435  0  0  0.434881  0  0.870956  0  0  0.445948  0  0.854945  0  0  0.311204  0.427495  0  0.881647  0
H  H26  1  0.18637123  0.70455761  0.30723144  1  0  0.46002  0  0.820374  0  0  0.434954  0  0.870855  0  0  0.446018  0  0.854846  0  0  0.311255  0.427573  0  0.881535  0
H  H27  1  0.68636517  0.79543805  0.19276839  1  0  0.459983  0  0.820427  0  0  0.434907  0  0.870926  0  0  0.445973  0  0.854915  0  0  0.311206  0.427522  0  0.881613  0
H  H28  1  0.68315068  0.46448670  0.69865377  1  0  0.444196  0  0.85253  0  0  0.414573  0  0.913759  0  0  0.425779  0  0.897634  0  0  0.304934  0.406623  0  0.925343  0
H  H29  1  0.18315668  0.03552189  0.80134593  1  0  0.44385  0  0.852946  0  0  0.414238  0  0.914166  0  0  0.425443  0  0.898045  0  0  0.304782  0.406291  0  0.925742  0
H  H30  1  0.31684668  0.53551351  0.30134675  1  0  0.444063  0  0.852693  0  0  0.414435  0  0.913936  0  0  0.42564  0  0.897814  0  0  0.304882  0.406484  0  0.925521  0
H  H31  1  0.81683789  0.96448352  0.19865235  1  0  0.443749  0  0.853062  0  0  0.414168  0  0.914219  0  0  0.425371  0  0.898102  0  0  0.304751  0.406223  0  0.925788  0
C  C32  1  0.31823628  0.55287181  0.85236506  1  0  0.708927  0  3.853717  0  0  0.656134  0  4.153397  0  0  0.690843  0  4.150104  0  0  0.228624  0.63171  0  4.162183  0
C  C33  1  0.81822926  0.94712972  0.64763569  1  0  0.708806  0  3.853992  0  0  0.656082  0  4.153573  0  0  0.690782  0  4.150299  0  0  0.228635  0.631678  0  4.16232  0
C  C34  1  0.68176388  0.44712705  0.14763255  1  0  0.709006  0  3.853832  0  0  0.656277  0  4.153408  0  0  0.690973  0  4.15013  0  0  0.228656  0.631846  0  4.162203  0
C  C35  1  0.18176670  0.05286528  0.35236592  1  0  0.708802  0  3.854072  0  0  0.656078  0  4.153643  0  0  0.690777  0  4.150361  0  0  0.228536  0.63166  0  4.162417  0
C  C36  1  0.42144011  0.52789935  0.92666431  1  0  -0.027399  0  3.649639  0  0  -0.01519  0  3.885277  0  0  -0.016951  0  3.900443  0  0  0.01112  -0.013639  0  3.874064  0
C  C37  1  0.92143648  0.97209829  0.57333510  1  0  -0.027396  0  3.649553  0  0  -0.01518  0  3.885148  0  0  -0.016942  0  3.900322  0  0  0.011188  -0.013633  0  3.873924  0
C  C38  1  0.57856424  0.47209821  0.07333387  1  0  -0.027569  0  3.649635  0  0  -0.015327  0  3.885204  0  0  -0.017085  0  3.900377  0  0  0.011134  -0.013776  0  3.873997  0
C  C39  1  0.07856367  0.02789668  0.42666478  1  0  -0.027437  0  3.649684  0  0  -0.015196  0  3.885258  0  0  -0.016958  0  3.900432  0  0  0.011152  -0.013647  0  3.874039  0
C  C40  1  0.30990075  0.47832299  0.98833701  1  0  -0.062453  0  3.656223  0  0  -0.098421  0  3.911112  0  0  -0.097762  0  3.926645  0  0  -0.060071  -0.098605  0  3.899841  0
C  C41  1  0.80990011  0.02167781  0.51166185  1  0  -0.06234  0  3.656054  0  0  -0.098342  0  3.910967  0  0  -0.097683  0  3.926499  0  0  -0.060108  -0.098531  0  3.899686  0
C  C42  1  0.69010219  0.52167325  0.01165999  1  0  -0.062409  0  3.655979  0  0  -0.098368  0  3.910894  0  0  -0.09771  0  3.926426  0  0  -0.060108  -0.098551  0  3.899619  0
C  C43  1  0.19010004  0.97831718  0.48833918  1  0  -0.062424  0  3.656154  0  0  -0.098433  0  3.911063  0  0  -0.097775  0  3.926597  0  0  -0.060128  -0.098622  0  3.899787  0
C  C44  1  0.61462276  0.54978552  0.93857111  1  0  -0.047083  0  3.689666  0  0  -0.036404  0  3.927768  0  0  -0.040435  0  3.944508  0  0  0.006461  -0.033449  0  3.915517  0
C  C45  1  0.11462390  0.95020805  0.56142864  1  0  -0.047159  0  3.689663  0  0  -0.036466  0  3.927782  0  0  -0.040494  0  3.944522  0  0  0.006455  -0.033505  0  3.915521  0
C  C46  1  0.38537739  0.45021074  0.06142762  1  0  -0.047008  0  3.689462  0  0  -0.036339  0  3.927635  0  0  -0.040374  0  3.944377  0  0  0.006434  -0.033384  0  3.915389  0
C  C47  1  0.88537765  0.04978430  0.43857062  1  0  -0.047168  0  3.689581  0  0  -0.036493  0  3.92772  0  0  -0.040524  0  3.944459  0  0  0.006433  -0.033532  0  3.915463  0
C  C48  1  0.74500209  0.59534594  0.87544932  1  0  0.687635  0  3.879382  0  0  0.638657  0  4.171686  0  0  0.673803  0  4.168879  0  0  0.219581  0.614441  0  4.179027  0
C  C49  1  0.24500411  0.90465031  0.62455029  1  0  0.687819  0  3.879376  0  0  0.638779  0  4.17177  0  0  0.673925  0  4.168964  0  0  0.219594  0.614558  0  4.17911  0
C  C50  1  0.25499247  0.40464771  0.12454938  1  0  0.687847  0  3.879404  0  0  0.638738  0  4.171932  0  0  0.673885  0  4.169121  0  0  0.219622  0.614512  0  4.179291  0
C  C51  1  0.75499325  0.09534600  0.37545133  1  0  0.68775  0  3.879341  0  0  0.638706  0  4.171764  0  0  0.673852  0  4.168955  0  0  0.219601  0.614478  0  4.179115  0
C  C52  1  0.34914142  0.48483327  0.64613744  1  0  0.775262  0  3.761691  0  0  0.734764  0  4.054188  0  0  0.770382  0  4.046574  0  0  0.235447  0.710931  0  4.06136  0
C  C53  1  0.84914511  0.01516234  0.85386245  1  0  0.774915  0  3.762041  0  0  0.734501  0  4.054396  0  0  0.770117  0  4.046795  0  0  0.235364  0.710667  0  4.061569  0
C  C54  1  0.65085734  0.51517083  0.35386083  1  0  0.775357  0  3.761547  0  0  0.734757  0  4.054193  0  0  0.770359  0  4.046603  0  0  0.235488  0.710928  0  4.061358  0
C  C55  1  0.15085225  0.98483137  0.14614029  1  0  0.775349  0  3.761588  0  0  0.734779  0  4.054206  0  0  0.770396  0  4.046594  0  0  0.235423  0.710945  0  4.061389  0
C  C56  1  0.41294851  0.35502947  0.58353820  1  0  -0.274819  0  3.650399  0  0  -0.313021  0  3.899021  0  0  -0.318791  0  3.905292  0  0  -0.16727  -0.308564  0  3.893131  0
C  C57  1  0.91294761  0.14497011  0.91646281  1  0  -0.274712  0  3.650421  0  0  -0.312932  0  3.898995  0  0  -0.318698  0  3.905264  0  0  -0.167283  -0.308474  0  3.893109  0
C  C58  1  0.58705723  0.64497599  0.41646355  1  0  -0.27487  0  3.650313  0  0  -0.313112  0  3.899064  0  0  -0.318863  0  3.905317  0  0  -0.167348  -0.308653  0  3.893171  0
C  C59  1  0.08705534  0.85502488  0.08353764  1  0  -0.274733  0  3.650166  0  0  -0.312992  0  3.898922  0  0  -0.31876  0  3.905193  0  0  -0.167319  -0.308533  0  3.893032  0
C  C60  1  0.54692871  0.43222728  0.52481948  1  0  -0.081553  0  3.669839  0  0  -0.122647  0  3.931468  0  0  -0.122817  0  3.944623  0  0  -0.167145  -0.122141  0  3.921659  0
C  C61  1  0.04692919  0.06777210  0.97518027  1  0  -0.081514  0  3.669787  0  0  -0.122572  0  3.931387  0  0  -0.122749  0  3.944552  0  0  -0.167143  -0.122069  0  3.921588  0
C  C62  1  0.45307424  0.56777818  0.47518227  1  0  -0.081583  0  3.669934  0  0  -0.122644  0  3.931576  0  0  -0.122807  0  3.944723  0  0  -0.167162  -0.122135  0  3.921764  0
C  C63  1  0.95307655  0.93222024  0.02481841  1  0  -0.081634  0  3.669901  0  0  -0.122713  0  3.931582  0  0  -0.122894  0  3.944738  0  0  -0.167187  -0.122208  0  3.92178  0
O  O64  1  0.29626088  0.70883562  0.82748892  1  0  -0.816265  0  2.120999  0  0  -0.763133  0  2.384061  0  0  -0.808211  0  2.37098  0  0  -0.4354  -0.744489  0  2.391759  0
O  O65  1  0.79625218  0.79117375  0.67251197  1  0  -0.816176  0  2.12117  0  0  -0.763083  0  2.384223  0  0  -0.808154  0  2.371147  0  0  -0.435451  -0.744454  0  2.391911  0
O  O66  1  0.70372390  0.29116589  0.17251104  1  0  -0.816248  0  2.121039  0  0  -0.763144  0  2.38406  0  0  -0.808202  0  2.37098  0  0  -0.435328  -0.744484  0  2.391765  0
O  O67  1  0.20373400  0.20882777  0.32748857  1  0  -0.816133  0  2.121008  0  0  -0.763041  0  2.384031  0  0  -0.808102  0  2.370955  0  0  -0.435309  -0.744386  0  2.391726  0
O  O68  1  0.81140298  0.42014532  0.70959199  1  0  -0.916816  0  1.840343  0  0  -0.868573  0  2.028418  0  0  -0.897645  0  1.987715  0  0  -0.655436  -0.855291  0  2.051719  0
O  O69  1  0.31140909  0.07986461  0.79040525  1  0  -0.916438  0  1.840627  0  0  -0.868197  0  2.028665  0  0  -0.897274  0  1.987963  0  0  -0.65526  -0.854932  0  2.051993  0
O  O70  1  0.18859019  0.57985359  0.29040909  1  0  -0.916717  0  1.840444  0  0  -0.868483  0  2.028487  0  0  -0.897555  0  1.9878  0  0  -0.655398  -0.855188  0  2.051794  0
O  O71  1  0.68858547  0.92014211  0.20959363  1  0  -0.916329  0  1.840659  0  0  -0.868106  0  2.02869  0  0  -0.897172  0  1.987995  0  0  -0.655228  -0.854857  0  2.052057  0
O  O72  1  0.23489084  0.42491938  0.82026504  1  0  -0.635096  0  1.990763  0  0  -0.583759  0  2.215095  0  0  -0.614671  0  2.206033  0  0  -0.298821  -0.56665  0  2.221309  0
O  O73  1  0.73488194  0.07508793  0.67973458  1  0  -0.635039  0  1.990719  0  0  -0.583742  0  2.21503  0  0  -0.614654  0  2.20598  0  0  -0.29884  -0.566648  0  2.221227  0
O  O74  1  0.76511909  0.57507556  0.17973252  1  0  -0.635162  0  1.990757  0  0  -0.583897  0  2.215126  0  0  -0.614805  0  2.20607  0  0  -0.29889  -0.566775  0  2.22134  0
O  O75  1  0.26511821  0.92491750  0.32026543  1  0  -0.635082  0  1.990915  0  0  -0.583801  0  2.21524  0  0  -0.614706  0  2.206183  0  0  -0.29883  -0.566696  0  2.221448  0
O  O76  1  0.68058344  0.65196721  0.81191121  1  0  -0.820028  0  2.265146  0  0  -0.757282  0  2.521804  0  0  -0.802264  0  2.513358  0  0  -0.435424  -0.737692  0  2.52673  0
O  O77  1  0.18059331  0.84802895  0.68808444  1  0  -0.820117  0  2.265316  0  0  -0.757324  0  2.521934  0  0  -0.802298  0  2.513473  0  0  -0.435401  -0.737735  0  2.526859  0
O  O78  1  0.31940833  0.34803032  0.18808465  1  0  -0.82011  0  2.265248  0  0  -0.757308  0  2.521907  0  0  -0.802269  0  2.513438  0  0  -0.435416  -0.73771  0  2.526857  0
O  O79  1  0.81940964  0.15196078  0.31191478  1  0  -0.820063  0  2.265088  0  0  -0.757305  0  2.521757  0  0  -0.802267  0  2.513293  0  0  -0.435391  -0.737698  0  2.526698  0
O  O80  1  0.91943001  0.57486163  0.88361735  1  0  -0.666796  0  2.007778  0  0  -0.622997  0  2.253326  0  0  -0.656143  0  2.245524  0  0  -0.352863  -0.60566  0  2.257626  0
O  O81  1  0.41943071  0.92514258  0.61638388  1  0  -0.666884  0  2.007737  0  0  -0.623072  0  2.25332  0  0  -0.65623  0  2.245529  0  0  -0.352904  -0.605726  0  2.257598  0
O  O82  1  0.08057154  0.42512938  0.11637958  1  0  -0.666926  0  2.00797  0  0  -0.623073  0  2.25355  0  0  -0.656218  0  2.245748  0  0  -0.352923  -0.605724  0  2.257862  0
O  O83  1  0.58056945  0.07486552  0.38361964  1  0  -0.666865  0  2.007882  0  0  -0.623044  0  2.253428  0  0  -0.656188  0  2.245625  0  0  -0.35292  -0.605706  0  2.257745  0
O  O84  1  0.17551407  0.49801820  0.65973367  1  0  -0.734345  0  2.013937  0  0  -0.689504  0  2.262304  0  0  -0.725997  0  2.246831  0  0  -0.406865  -0.671763  0  2.270008  0
O  O85  1  0.67550668  0.00198522  0.84027002  1  0  -0.734253  0  2.013919  0  0  -0.689434  0  2.262235  0  0  -0.725935  0  2.246769  0  0  -0.406837  -0.671696  0  2.269943  0
O  O86  1  0.82448748  0.50198986  0.34026696  1  0  -0.734398  0  2.013806  0  0  -0.689517  0  2.262214  0  0  -0.726001  0  2.246755  0  0  -0.40686  -0.671769  0  2.269929  0
O  O87  1  0.32448649  0.99801639  0.15973630  1  0  -0.734425  0  2.01371  0  0  -0.689559  0  2.262111  0  0  -0.726051  0  2.246644  0  0  -0.406866  -0.671813  0  2.26983  0
O  O88  1  0.47482820  0.57408430  0.68319756  1  0  -0.759823  0  2.085394  0  0  -0.702758  0  2.330442  0  0  -0.739858  0  2.319494  0  0  -0.379416  -0.683591  0  2.336155  0
O  O89  1  0.97482126  0.92591339  0.81680293  1  0  -0.759606  0  2.085603  0  0  -0.702589  0  2.330619  0  0  -0.73968  0  2.31967  0  0  -0.379367  -0.683408  0  2.336312  0
O  O90  1  0.52517615  0.42591984  0.31680360  1  0  -0.759837  0  2.085443  0  0  -0.702723  0  2.330514  0  0  -0.739809  0  2.319565  0  0  -0.379427  -0.683543  0  2.336206  0
O  O91  1  0.02517191  0.07408159  0.18319752  1  0  -0.759759  0  2.08562  0  0  -0.702671  0  2.330681  0  0  -0.73976  0  2.319729  0  0  -0.379364  -0.683479  0  2.336382  0
