# generated using pymatgen
data_CoH28C26N4(ClO4)2
_symmetry_space_group_name_H-M   'P 1'
_cell_length_a   8.90822685
_cell_length_b   10.39630633
_cell_length_c   11.42065681
_cell_angle_alpha   109.81356628
_cell_angle_beta   91.03889896
_cell_angle_gamma   113.99858084
_symmetry_Int_Tables_number   1
_chemical_formula_structural   CoH28C26N4(ClO4)2
_chemical_formula_sum   'Co1 H28 C26 N4 Cl2 O8'
_cell_volume   893.96482496
_cell_formula_units_Z   1
loop_
 _symmetry_equiv_pos_site_id
 _symmetry_equiv_pos_as_xyz
  1  'x, y, z'
loop_
 _atom_site_type_symbol
 _atom_site_label
 _atom_site_symmetry_multiplicity
 _atom_site_fract_x
 _atom_site_fract_y
 _atom_site_fract_z
 _atom_site_occupancy
 _atom_site_hle17_ddec_charge
 _atom_site_hle17_ddec_spin_density
 _atom_site_hle17_ddec_sum_bond_order
 _atom_site_hle17_magmom
 _atom_site_hse06_10hf_ddec_charge
 _atom_site_hse06_10hf_ddec_spin_density
 _atom_site_hse06_10hf_ddec_sum_bond_order
 _atom_site_hse06_10hf_magmom
 _atom_site_hse06_ddec_charge
 _atom_site_hse06_ddec_spin_density
 _atom_site_hse06_ddec_sum_bond_order
 _atom_site_hse06_magmom
 _atom_site_pbe_cm5_charge
 _atom_site_pbe_ddec_charge
 _atom_site_pbe_ddec_spin_density
 _atom_site_pbe_ddec_sum_bond_order
 _atom_site_pbe_magmom
Co  Co0  1  0.50000125  0.49999730  0.49999927  1  0.632188  -1.139689  2.392925  -1.045  0.594552  -1.059347  2.826709  -0.995  0.651873  -1.05462  2.765905  -0.997  0.683615  0.565215  -1.057273  2.861951  -0.986
H  H1  1  0.05540475  0.90236017  0.66333322  1  0.09138  0.000364  0.962074  0.0  0.101911  0.000209  1.036072  0.0  0.102696  0.00014  1.0367  0.0  0.094852  0.101294  0.000197  1.035813  0.0
H  H2  1  0.94460295  0.09764356  0.33667086  1  0.09135  0.000361  0.962128  0.0  0.101903  0.00021  1.036119  0.0  0.102684  0.00014  1.036755  0.0  0.094829  0.101288  0.000197  1.035856  0.0
H  H3  1  0.93539717  0.00554822  0.70966368  1  0.084171  1.3e-05  0.915788  0.0  0.104454  1e-05  0.967071  0.0  0.106057  1.1e-05  0.966738  0.0  0.096416  0.103227  4e-06  0.967512  0.0
H  H4  1  0.06459835  0.99444834  0.29033805  1  0.084218  1.4e-05  0.915893  0.0  0.104509  1e-05  0.967177  0.0  0.106109  1.1e-05  0.966848  0.0  0.096445  0.103281  4e-06  0.967616  0.0
H  H5  1  0.26951889  0.07164884  0.85510633  1  0.06968  -3.8e-05  0.933849  0.0  0.087919  -1.4e-05  0.994363  0.0  0.088779  -1e-05  0.994569  0.0  0.091468  0.087244  -2.1e-05  0.994272  0.0
H  H6  1  0.73048611  0.92836150  0.14489718  1  0.069698  -3.9e-05  0.933852  0.0  0.087926  -1.4e-05  0.994373  0.0  0.088786  -1e-05  0.994581  0.0  0.091478  0.087253  -2.1e-05  0.994283  0.0
H  H7  1  0.07090972  0.99277413  0.89444506  1  0.066206  -2.3e-05  0.942309  0.0  0.085434  -2e-06  1.001914  0.0  0.085903  -4e-06  1.0033  0.0  0.089271  0.085051  2.7e-05  1.001058  0.0
H  H8  1  0.92909516  0.00723844  0.10556176  1  0.066171  -2.2e-05  0.942248  0.0  0.085392  -2e-06  1.001866  0.0  0.085863  -4e-06  1.003253  0.0  0.089252  0.085015  2.7e-05  1.00101  0.0
H  H9  1  0.24527208  0.31327466  0.88895582  1  0.078902  0.000329  0.933504  0.0  0.096651  0.000169  0.992274  0.0  0.097638  0.000108  0.993087  0.0  0.094606  0.095981  0.000228  0.991743  0.0
H  H10  1  0.75473138  0.68673228  0.11104398  1  0.078892  0.000334  0.933291  0.0  0.096616  0.000168  0.992106  0.0  0.097602  0.000107  0.992917  0.0  0.09459  0.095944  0.000228  0.99158  0.0
H  H11  1  0.04340856  0.23507510  0.92457550  1  0.080504  -1.4e-05  0.91499  0.0  0.100558  -1.4e-05  0.967188  0.0  0.102014  -7e-06  0.966736  0.0  0.097193  0.09945  -1.7e-05  0.967682  0.0
H  H12  1  0.95659808  0.76493642  0.07542839  1  0.080464  -6e-06  0.915003  0.0  0.100497  -1.4e-05  0.967224  0.0  0.101952  -7e-06  0.966774  0.0  0.097161  0.099389  -1.7e-05  0.967719  0.0
H  H13  1  0.14403804  0.37716551  0.53417143  1  0.093256  9.8e-05  0.968693  0.0  0.098759  0.000138  1.034668  0.0  0.100788  0.000113  1.031553  0.0  0.119833  0.097316  0.000146  1.036847  0.0
H  H14  1  0.85596510  0.62283804  0.46583430  1  0.093217  9.9e-05  0.968606  0.0  0.098741  0.000137  1.034557  0.0  0.100758  0.000113  1.03148  0.0  0.119834  0.097293  0.000146  1.03675  0.0
H  H15  1  0.96919651  0.19122883  0.61979472  1  0.124812  0.000279  0.943149  0.0  0.135458  6.7e-05  0.999175  0.0  0.138508  6.9e-05  0.998318  0.0  0.111198  0.133303  5.6e-05  0.999803  0.0
H  H16  1  0.03080830  0.80878594  0.38021981  1  0.124816  0.000278  0.943137  0.0  0.135477  6.6e-05  0.999152  0.0  0.138528  6.9e-05  0.998287  0.0  0.111205  0.133321  5.6e-05  0.999782  0.0
H  H17  1  0.38267143  0.08282134  0.65900495  1  0.12175  0.000283  0.950108  0.0  0.130779  6.6e-05  1.008718  0.0  0.13371  7.1e-05  1.007881  0.0  0.108789  0.128689  4.8e-05  1.009398  0.0
H  H18  1  0.61732232  0.91717627  0.34099710  1  0.121742  0.000282  0.950117  0.0  0.130793  6.6e-05  1.00871  0.0  0.133725  7.1e-05  1.007868  0.0  0.108805  0.128703  4.8e-05  1.009393  0.0
H  H19  1  0.54219873  0.27352517  0.57107839  1  0.08594  3.1e-05  0.981968  0.0  0.089561  3.8e-05  1.05094  0.0  0.091602  2.9e-05  1.048108  0.0  0.114066  0.087906  2.8e-05  1.053318  0.0
H  H20  1  0.45779297  0.72646790  0.42891959  1  0.085962  3e-05  0.981829  0.0  0.089559  3.8e-05  1.05082  0.0  0.091597  2.9e-05  1.048016  0.0  0.114056  0.087903  2.8e-05  1.053209  0.0
H  H21  1  0.60392204  0.39467567  0.25936149  1  0.085754  5.4e-05  0.962125  0.0  0.090905  0.000103  1.028383  0.0  0.092863  7.9e-05  1.02563  0.0  0.117696  0.08947  0.000111  1.030274  0.0
H  H22  1  0.39608415  0.60531459  0.74063660  1  0.085733  5.2e-05  0.962202  0.0  0.090866  0.000104  1.028466  0.0  0.092823  7.9e-05  1.025713  0.0  0.117687  0.089434  0.000111  1.030353  0.0
H  H23  1  0.48449353  0.29696380  0.03219262  1  0.112869  0.000312  0.927573  0.0  0.127412  4.9e-05  0.97603  0.0  0.130174  6e-05  0.976127  0.0  0.113597  0.125406  3.8e-05  0.976274  0.0
H  H24  1  0.51551849  0.70305243  0.96780403  1  0.112915  0.000314  0.927549  0.0  0.12746  4.9e-05  0.975994  0.0  0.130227  6.1e-05  0.976093  0.0  0.113671  0.125455  3.8e-05  0.976238  0.0
H  H25  1  0.02414093  0.29734063  0.14538434  1  0.120384  0.000286  0.939997  0.0  0.131246  3.9e-05  0.995699  0.0  0.134369  5.2e-05  0.994728  0.0  0.111674  0.128987  2.1e-05  0.996546  0.0
H  H26  1  0.97586715  0.70266647  0.85462167  1  0.12043  0.000282  0.940037  0.0  0.131306  3.9e-05  0.995727  0.0  0.13443  5.2e-05  0.994754  0.0  0.111683  0.129033  2.1e-05  0.996589  0.0
H  H27  1  0.16209343  0.39874545  0.36571837  1  0.092056  8e-05  0.976186  0.0  0.096424  0.000123  1.046157  0.0  0.098391  9.7e-05  1.04281  0.0  0.118991  0.094708  0.000128  1.048997  0.0
H  H28  1  0.83791611  0.60124715  0.63428661  1  0.092039  8e-05  0.976238  0.0  0.096417  0.000123  1.046183  0.0  0.098385  9.7e-05  1.042844  0.0  0.119015  0.0947  0.000128  1.049024  0.0
C  C29  1  0.06365282  0.01636219  0.71393971  1  -0.169441  1.9e-05  3.698836  0.0  -0.214397  0.000146  3.954993  0.0  -0.216779  7.9e-05  3.96759  0.0  -0.160956  -0.212838  0.000186  3.946805  0.0
C  C30  1  0.93635028  0.98364137  0.28606166  1  -0.16943  2e-05  3.698887  0.0  -0.214475  0.000147  3.955122  0.0  -0.216848  7.9e-05  3.96771  0.0  -0.160994  -0.212914  0.000186  3.94693  0.0
C  C31  1  0.14664680  0.07307625  0.85232925  1  -0.089948  0.000973  3.664683  0.001  -0.130043  0.000459  3.928649  0.0  -0.131198  0.000315  3.942912  0.0  -0.157778  -0.129075  0.000604  3.918947  0.0
C  C32  1  0.85335375  0.92693168  0.14767346  1  -0.089957  0.000976  3.664519  0.001  -0.130012  0.000459  3.928498  0.0  -0.131178  0.000314  3.942772  0.0  -0.157761  -0.129047  0.000604  3.9188  0.0
C  C33  1  0.16607509  0.23351768  0.93070940  1  -0.162519  -2.8e-05  3.715963  -0.001  -0.207233  0.000105  3.972605  0.0  -0.209174  5.6e-05  3.984026  0.0  -0.157891  -0.20591  0.000202  3.965061  0.0
C  C34  1  0.83393215  0.76649276  0.06928977  1  -0.162402  -4e-05  3.715666  -0.001  -0.207099  0.000106  3.972303  0.0  -0.209037  5.6e-05  3.983727  0.0  -0.157835  -0.205776  0.000202  3.964763  0.0
C  C35  1  0.19253058  0.30826516  0.56020553  1  0.116593  0.009404  3.678394  0.007  0.086785  0.003893  3.941332  0.003  0.096392  0.003141  3.958347  0.002  0.042676  0.079796  0.004589  3.930795  0.003
C  C36  1  0.80746354  0.69173582  0.43979757  1  0.116787  0.009394  3.678401  0.007  0.087384  0.003892  3.941616  0.003  0.096564  0.003139  3.958376  0.002  0.04275  0.080326  0.004589  3.930988  0.003
C  C37  1  0.09565703  0.20449621  0.61099595  1  -0.17625  -0.001942  3.709645  -0.003  -0.195416  -5.9e-05  3.957995  0.0  -0.204825  -0.000245  3.9794  -0.001  -0.084896  -0.189015  -2.4e-05  3.943648  -0.001
C  C38  1  0.90434040  0.79550711  0.38901055  1  -0.176349  -0.001938  3.709558  -0.003  -0.195501  -5.8e-05  3.957809  0.0  -0.204933  -0.000244  3.979298  -0.001  -0.084906  -0.18911  -2.4e-05  3.943494  -0.001
C  C39  1  0.16041682  0.12077427  0.65008593  1  0.156789  0.008774  3.727588  0.006  0.172915  0.003637  3.965674  0.002  0.179985  0.002678  3.987125  0.002  0.012923  0.167969  0.004574  3.951046  0.003
C  C40  1  0.83957907  0.87922566  0.34991598  1  0.156753  0.008774  3.72742  0.006  0.172949  0.003638  3.96548  0.002  0.180017  0.002678  3.986922  0.002  0.012942  0.168004  0.004575  3.95085  0.003
C  C41  1  0.32383514  0.14513070  0.63268628  1  -0.159272  -0.002253  3.683169  -0.003  -0.175248  -0.000252  3.924958  -0.001  -0.184123  -0.000398  3.94574  -0.001  -0.081749  -0.169146  -0.000147  3.910843  -0.001
C  C42  1  0.67615367  0.85486336  0.36731549  1  -0.159281  -0.002253  3.683317  -0.003  -0.175276  -0.000252  3.925016  -0.001  -0.184168  -0.000397  3.945875  -0.001  -0.081819  -0.169178  -0.000147  3.910927  -0.001
C  C43  1  0.41421919  0.25093581  0.58202131  1  0.116557  0.009078  3.673979  0.006  0.087818  0.003509  3.930948  0.002  0.097294  0.002878  3.94823  0.002  0.038119  0.080625  0.004255  3.921289  0.003
C  C44  1  0.58578528  0.74906335  0.41797430  1  0.116532  0.009088  3.674112  0.006  0.088243  0.003507  3.931338  0.002  0.097285  0.002875  3.948379  0.002  0.038114  0.080961  0.004252  3.921617  0.003
C  C45  1  0.47586455  0.37128417  0.22972831  1  0.128872  0.011256  3.685716  0.008  0.096172  0.004118  3.944554  0.003  0.106497  0.00334  3.961751  0.002  0.043169  0.089099  0.00497  3.933706  0.003
C  C46  1  0.52413663  0.62871263  0.77026654  1  0.128802  0.011274  3.685395  0.008  0.096141  0.004121  3.944277  0.003  0.106487  0.003342  3.961444  0.002  0.043166  0.089064  0.004973  3.933427  0.003
C  C47  1  0.40738962  0.31673462  0.10294428  1  -0.174829  -0.00305  3.715113  -0.004  -0.190616  -0.000376  3.957605  -0.001  -0.199989  -0.000516  3.978304  -0.001  -0.084908  -0.184804  -0.000326  3.944416  -0.001
C  C48  1  0.59262450  0.68327608  0.89705766  1  -0.174871  -0.003052  3.715029  -0.004  -0.190686  -0.000376  3.957511  -0.001  -0.200066  -0.000516  3.978211  -0.001  -0.085032  -0.184876  -0.000326  3.944329  -0.001
C  C49  1  0.24236895  0.28919067  0.06699754  1  0.154671  0.010855  3.740163  0.007  0.169496  0.004185  3.981111  0.003  0.17709  0.003013  4.002249  0.002  0.012084  0.164153  0.005514  3.967116  0.003
C  C50  1  0.75763210  0.71081841  0.93300466  1  0.154694  0.010846  3.740211  0.007  0.169597  0.004183  3.981071  0.003  0.177193  0.003015  4.002209  0.002  0.012184  0.164251  0.005514  3.967076  0.003
C  C51  1  0.15335741  0.31658257  0.16461199  1  -0.173447  -0.002792  3.702616  -0.004  -0.19077  -0.000262  3.946905  -0.001  -0.200416  -0.000441  3.967765  -0.001  -0.083804  -0.184459  -0.000224  3.933347  -0.001
C  C52  1  0.84665432  0.68342021  0.83538745  1  -0.173611  -0.002783  3.702708  -0.004  -0.190983  -0.000262  3.946985  -0.001  -0.200627  -0.000441  3.967844  -0.001  -0.083905  -0.18466  -0.000225  3.933431  -0.001
C  C53  1  0.22956102  0.37213249  0.29002681  1  0.136249  0.011423  3.655318  0.008  0.104266  0.004456  3.91222  0.003  0.114928  0.003568  3.928852  0.002  0.047749  0.096986  0.00521  3.901816  0.003
C  C54  1  0.77044721  0.62786232  0.70997447  1  0.136278  0.011417  3.655349  0.008  0.104332  0.004456  3.912275  0.003  0.114988  0.003566  3.928925  0.002  0.047744  0.097056  0.005208  3.901865  0.003
N  N55  1  0.35119771  0.33350829  0.54634733  1  -0.259529  0.015736  3.366001  0.011  -0.216982  0.011247  3.661145  0.009  -0.243753  0.011301  3.680627  0.009  -0.33906  -0.200313  0.010096  3.647547  0.007
N  N56  1  0.64880465  0.66648854  0.45365192  1  -0.2596  0.015727  3.366319  0.011  -0.218351  0.011248  3.662733  0.009  -0.243819  0.011301  3.680942  0.009  -0.339078  -0.201402  0.010096  3.648858  0.007
N  N57  1  0.38923364  0.40038670  0.32359779  1  -0.259218  0.014383  3.366278  0.009  -0.210092  0.010834  3.653557  0.008  -0.237001  0.010897  3.672588  0.009  -0.337074  -0.193887  0.009776  3.640821  0.007
N  N58  1  0.61077126  0.59960576  0.67639923  1  -0.259063  0.01438  3.36599  0.009  -0.210045  0.010834  3.653398  0.008  -0.236961  0.010897  3.672415  0.009  -0.337058  -0.193836  0.009777  3.640658  0.007
Cl  Cl59  1  0.27344150  0.74368564  0.61038056  1  1.385245  -0.00164  6.192657  -0.003  1.325664  -0.002585  6.761302  -0.004  1.378104  -0.001987  6.738794  -0.004  0.726598  1.289546  -0.003259  6.774869  -0.005
Cl  Cl60  1  0.72653939  0.25629586  0.38960845  1  1.385488  -0.001643  6.192503  -0.003  1.3259  -0.002589  6.761202  -0.004  1.378347  -0.001985  6.738694  -0.004  0.726701  1.289787  -0.00326  6.774768  -0.005
O  O61  1  0.30694338  0.60906126  0.55192543  1  -0.592003  -0.009301  1.994451  -0.011  -0.560896  -0.010871  2.269757  -0.012  -0.579715  -0.008745  2.252077  -0.009  -0.309733  -0.547727  -0.013507  2.281189  -0.016
O  O62  1  0.69304234  0.39092600  0.44806805  1  -0.591998  -0.009316  1.994399  -0.011  -0.560981  -0.010874  2.269821  -0.012  -0.579794  -0.008741  2.252104  -0.009  -0.309783  -0.547815  -0.01351  2.281253  -0.016
O  O63  1  0.22613601  0.78329304  0.50935284  1  -0.534366  -0.001375  1.828763  -0.003  -0.505437  -0.001442  2.058257  -0.003  -0.52152  -0.001034  2.046269  -0.002  -0.310197  -0.493678  -0.001872  2.065459  -0.003
O  O64  1  0.77388705  0.21671021  0.49063545  1  -0.534411  -0.001346  1.828805  -0.002  -0.505424  -0.001432  2.058255  -0.003  -0.521509  -0.001047  2.046266  -0.002  -0.310185  -0.493669  -0.001873  2.065456  -0.003
O  O65  1  0.13671486  0.70181268  0.67913956  1  -0.537946  -0.002751  1.83879  -0.005  -0.511164  -0.002772  2.075406  -0.005  -0.527364  -0.002008  2.062128  -0.004  -0.314415  -0.499002  -0.003814  2.083482  -0.007
O  O66  1  0.86323513  0.29815543  0.32082137  1  -0.537977  -0.002775  1.838742  -0.005  -0.511212  -0.002775  2.075376  -0.005  -0.52741  -0.002001  2.062087  -0.004  -0.314354  -0.499055  -0.003814  2.083464  -0.007
O  O67  1  0.42302874  0.86962061  0.69626093  1  -0.52997  0.001023  1.788446  0.001  -0.509332  0.000723  2.007884  0.001  -0.523826  0.000613  1.995378  0.0  -0.322297  -0.498774  0.000843  2.015914  0.001
O  O68  1  0.57693286  0.13035223  0.30375411  1  -0.53012  0.001035  1.788363  0.001  -0.509474  0.000716  2.007791  0.001  -0.52397  0.000609  1.995283  0.0  -0.322427  -0.498913  0.000843  2.015823  0.001
