# generated using pymatgen
data_KLiSb2H4(C2O3)4
_symmetry_space_group_name_H-M   'P 1'
_cell_length_a   6.32781717
_cell_length_b   8.15931725
_cell_length_c   8.85441198
_cell_angle_alpha   119.86068968
_cell_angle_beta   89.99412933
_cell_angle_gamma   112.86431789
_symmetry_Int_Tables_number   1
_chemical_formula_structural   KLiSb2H4(C2O3)4
_chemical_formula_sum   'K1 Li1 Sb2 H4 C8 O12'
_cell_volume   354.45941213
_cell_formula_units_Z   1
loop_
 _symmetry_equiv_pos_site_id
 _symmetry_equiv_pos_as_xyz
  1  'x, y, z'
loop_
 _atom_site_type_symbol
 _atom_site_label
 _atom_site_symmetry_multiplicity
 _atom_site_fract_x
 _atom_site_fract_y
 _atom_site_fract_z
 _atom_site_occupancy
 _atom_site_hle17_bader_spin_density
 _atom_site_hle17_ddec_charge
 _atom_site_hle17_ddec_spin_density
 _atom_site_hle17_ddec_sum_bond_order
 _atom_site_hle17_magmom
 _atom_site_hse06_10hf_bader_spin_density
 _atom_site_hse06_10hf_ddec_charge
 _atom_site_hse06_10hf_ddec_spin_density
 _atom_site_hse06_10hf_ddec_sum_bond_order
 _atom_site_hse06_10hf_magmom
 _atom_site_hse06_bader_spin_density
 _atom_site_hse06_ddec_charge
 _atom_site_hse06_ddec_spin_density
 _atom_site_hse06_ddec_sum_bond_order
 _atom_site_hse06_magmom
 _atom_site_pbe_bader_spin_density
 _atom_site_pbe_cm5_charge
 _atom_site_pbe_ddec_charge
 _atom_site_pbe_ddec_spin_density
 _atom_site_pbe_ddec_sum_bond_order
 _atom_site_pbe_magmom
K  K0  1  0.52643595  0.99991429  0.50016565  1  0  0.941719  0  0.453684  0  0  0.884211  0  0.6424  0  0  0.897907  0  0.620007  0  0  0.822083  0.873911  0  0.658212  0
Li  Li1  1  0.52227237  0.99991483  0.99992165  1  0  0.879968  0  0.387764  0  0  0.850405  0  0.479974  0  0  0.859019  0  0.464244  0  0  0.517054  0.843947  0  0.491722  0
Sb  Sb2  1  0.83439116  0.59520603  0.31277362  1  0  1.322183  0  2.617025  0  0  1.181522  0  3.108671  0  0  1.225658  0  3.070548  0  0  0.751428  1.145712  0  3.137084  0
Sb  Sb3  1  0.24008138  0.40490183  0.68716885  1  0  1.323219  0  2.615602  0  0  1.182401  0  3.107498  0  0  1.226528  0  3.069365  0  0  0.752147  1.146562  0  3.135935  0
H  H4  1  0.83766236  0.83241712  0.79366387  1  0  0.07165  0  0.917739  0  0  0.077878  0  0.986611  0  0  0.080194  0  0.984202  0  0  0.119839  0.076262  0  0.98843  0
H  H5  1  0.00516900  0.16776564  0.20642413  1  0  0.071821  0  0.916838  0  0  0.078464  0  0.985463  0  0  0.080849  0  0.983068  0  0  0.120136  0.076801  0  0.987271  0
H  H6  1  0.01926301  0.83630849  0.05098868  1  0  0.085044  0  0.91598  0  0  0.092764  0  0.979001  0  0  0.095244  0  0.976918  0  0  0.122591  0.091025  0  0.980555  0
H  H7  1  0.18391453  0.16368734  0.94900380  1  0  0.084788  0  0.916395  0  0  0.092667  0  0.979628  0  0  0.095137  0  0.977554  0  0  0.122141  0.09093  0  0.981204  0
C  C8  1  0.94177224  0.87572261  0.70785948  1  0  0.056979  0  3.69819  0  0  0.032885  0  3.948203  0  0  0.035323  0  3.954942  0  0  -0.003473  0.031036  0  3.943315  0
C  C9  1  0.06571743  0.12433622  0.29214174  1  0  0.059489  0  3.697863  0  0  0.03339  0  3.949829  0  0  0.035571  0  3.957107  0  0  -0.003242  0.031696  0  3.944685  0
C  C10  1  0.12215990  0.78775882  0.67593609  1  0  0.659354  0  3.839779  0  0  0.606049  0  4.146358  0  0  0.639264  0  4.137012  0  0  0.21989  0.583372  0  4.15194  0
C  C11  1  0.33427818  0.21192949  0.32373678  1  0  0.658812  0  3.842137  0  0  0.607081  0  4.146665  0  0  0.64028  0  4.13746  0  0  0.220789  0.584389  0  4.152225  0
C  C12  1  0.96831534  0.87992303  0.18021098  1  0  0.049699  0  3.68987  0  0  0.028235  0  3.93615  0  0  0.029721  0  3.943801  0  0  -0.002362  0.027114  0  3.930668  0
C  C13  1  0.08930367  0.12033134  0.81989392  1  0  0.049135  0  3.690083  0  0  0.026256  0  3.938056  0  0  0.02772  0  3.945604  0  0  -0.002882  0.025128  0  3.932609  0
C  C14  1  0.69815670  0.78211390  0.13885538  1  0  0.64935  0  3.841624  0  0  0.595642  0  4.150926  0  0  0.628853  0  4.141704  0  0  0.214515  0.572925  0  4.156554  0
C  C15  1  0.91701961  0.21801427  0.86136748  1  0  0.651957  0  3.840583  0  0  0.598287  0  4.150233  0  0  0.631514  0  4.14099  0  0  0.215752  0.575579  0  4.155839  0
O  O16  1  0.79061545  0.80400536  0.54856560  1  0  -0.608521  0  2.050723  0  0  -0.550229  0  2.310642  0  0  -0.568307  0  2.302865  0  0  -0.367878  -0.536108  0  2.315491  0
O  O17  1  0.98691978  0.19618515  0.45155649  1  0  -0.608263  0  2.050024  0  0  -0.549803  0  2.311021  0  0  -0.567746  0  2.303242  0  0  -0.367905  -0.535747  0  2.315828  0
O  O18  1  0.14063115  0.68709158  0.51202656  1  0  -0.622945  0  2.037604  0  0  -0.55866  0  2.283174  0  0  -0.584198  0  2.27283  0  0  -0.324719  -0.540092  0  2.289695  0
O  O19  1  0.45390696  0.31256883  0.48755849  1  0  -0.624178  0  2.03839  0  0  -0.5604  0  2.283474  0  0  -0.585926  0  2.273109  0  0  -0.325117  -0.541843  0  2.290033  0
O  O20  1  0.06651665  0.81422863  0.27034711  1  0  -0.604807  0  2.050249  0  0  -0.545952  0  2.307779  0  0  -0.563445  0  2.299253  0  0  -0.365019  -0.532195  0  2.313037  0
O  O21  1  0.25334309  0.18613460  0.72978246  1  0  -0.604794  0  2.050085  0  0  -0.545494  0  2.308039  0  0  -0.563013  0  2.299542  0  0  -0.36535  -0.531785  0  2.313433  0
O  O22  1  0.59343036  0.66145614  0.19814045  1  0  -0.588404  0  2.006729  0  0  -0.521484  0  2.243181  0  0  -0.546334  0  2.232751  0  0  -0.305101  -0.50341  0  2.249797  0
O  O23  1  0.93306833  0.33857234  0.80206759  1  0  -0.588918  0  2.006978  0  0  -0.521777  0  2.243372  0  0  -0.546608  0  2.232877  0  0  -0.305049  -0.50372  0  2.250034  0
O  O24  1  0.24573418  0.81877069  0.80587682  1  0  -0.689962  0  2.037938  0  0  -0.649434  0  2.292434  0  0  -0.672491  0  2.282107  0  0  -0.363207  -0.633114  0  2.299231  0
O  O25  1  0.42644743  0.18066988  0.19363327  1  0  -0.689578  0  2.03995  0  0  -0.64953  0  2.293795  0  0  -0.672538  0  2.283426  0  0  -0.363096  -0.63325  0  2.300665  0
O  O26  1  0.58900593  0.82170494  0.05433625  1  0  -0.69208  0  2.006988  0  0  -0.657524  0  2.264799  0  0  -0.678911  0  2.252896  0  0  -0.367025  -0.642399  0  2.272735  0
O  O27  1  0.76838134  0.17836901  0.94599408  1  0  -0.692715  0  2.005087  0  0  -0.657851  0  2.262222  0  0  -0.679263  0  2.250339  0  0  -0.366943  -0.642726  0  2.27013  0
