# generated using pymatgen
data_GdH9C16O9
_symmetry_space_group_name_H-M   'P 1'
_cell_length_a   6.63009429
_cell_length_b   13.05117716
_cell_length_c   16.39580788
_cell_angle_alpha   108.76956002
_cell_angle_beta   89.99997441
_cell_angle_gamma   90.00002862
_symmetry_Int_Tables_number   1
_chemical_formula_structural   GdH9C16O9
_chemical_formula_sum   'Gd4 H36 C64 O36'
_cell_volume   1343.29002348
_cell_formula_units_Z   4
loop_
 _symmetry_equiv_pos_site_id
 _symmetry_equiv_pos_as_xyz
  1  'x, y, z'
loop_
 _atom_site_type_symbol
 _atom_site_label
 _atom_site_symmetry_multiplicity
 _atom_site_fract_x
 _atom_site_fract_y
 _atom_site_fract_z
 _atom_site_occupancy
 _atom_site_hle17_bader_spin_density
 _atom_site_hle17_ddec_charge
 _atom_site_hle17_ddec_spin_density
 _atom_site_hle17_ddec_sum_bond_order
 _atom_site_hle17_magmom
 _atom_site_hse06_10hf_bader_spin_density
 _atom_site_hse06_10hf_ddec_charge
 _atom_site_hse06_10hf_ddec_spin_density
 _atom_site_hse06_10hf_ddec_sum_bond_order
 _atom_site_hse06_10hf_magmom
 _atom_site_hse06_bader_spin_density
 _atom_site_hse06_ddec_charge
 _atom_site_hse06_ddec_spin_density
 _atom_site_hse06_ddec_sum_bond_order
 _atom_site_hse06_magmom
 _atom_site_pbe_bader_spin_density
 _atom_site_pbe_cm5_charge
 _atom_site_pbe_ddec_charge
 _atom_site_pbe_ddec_spin_density
 _atom_site_pbe_ddec_sum_bond_order
 _atom_site_pbe_magmom
Gd  Gd0  1  0.81458999  0.52977866  0.90671832  1  0  2.235687  0  1.750577  0  0  2.149812  0  2.095193  0  0  2.200129  0  2.047901  0  0  1.478192  2.106678  0  2.140045  0
Gd  Gd1  1  0.31458819  0.47022243  0.59328221  1  0  2.235676  0  1.750581  0  0  2.14983  0  2.095154  0  0  2.200156  0  2.047844  0  0  1.478177  2.106678  0  2.140035  0
Gd  Gd2  1  0.18541232  0.47022157  0.09328127  1  0  2.235677  0  1.75057  0  0  2.14981  0  2.095156  0  0  2.200141  0  2.047846  0  0  1.478188  2.106667  0  2.140032  0
Gd  Gd3  1  0.68541110  0.52977862  0.40671820  1  0  2.235687  0  1.750592  0  0  2.14981  0  2.095216  0  0  2.200131  0  2.047915  0  0  1.478185  2.106676  0  2.140069  0
H  H4  1  0.62537582  0.88382481  0.60150760  1  0  0.103655  0  0.956147  0  0  0.113521  0  1.017975  0  0  0.116494  0  1.016803  0  0  0.105799  0.11137  0  1.018892  0
H  H5  1  0.12537938  0.11617543  0.89849274  1  0  0.103664  0  0.956142  0  0  0.113533  0  1.017969  0  0  0.116505  0  1.016798  0  0  0.105791  0.111382  0  1.018888  0
H  H6  1  0.37462045  0.11617462  0.39849239  1  0  0.103701  0  0.956186  0  0  0.113565  0  1.018009  0  0  0.11654  0  1.016836  0  0  0.105805  0.111412  0  1.018926  0
H  H7  1  0.87462293  0.88382561  0.10150706  1  0  0.103744  0  0.956078  0  0  0.1136  0  1.017909  0  0  0.116578  0  1.016737  0  0  0.105823  0.111447  0  1.018828  0
H  H8  1  0.64801453  0.04072013  0.73523429  1  0  0.098868  0  0.95304  0  0  0.110133  0  1.013767  0  0  0.11346  0  1.01193  0  0  0.103758  0.107756  0  1.015164  0
H  H9  1  0.14801454  0.95928012  0.76476605  1  0  0.098858  0  0.95302  0  0  0.110123  0  1.013749  0  0  0.113451  0  1.011911  0  0  0.103754  0.107743  0  1.015148  0
H  H10  1  0.35198476  0.95928011  0.26476652  1  0  0.098849  0  0.953048  0  0  0.110117  0  1.013775  0  0  0.113442  0  1.011942  0  0  0.103755  0.107738  0  1.015173  0
H  H11  1  0.85198476  0.04072012  0.23523354  1  0  0.098864  0  0.953044  0  0  0.11013  0  1.013771  0  0  0.113457  0  1.011934  0  0  0.103762  0.107749  0  1.015172  0
H  H12  1  0.62765917  0.81878895  0.88130548  1  0  0.104182  0  0.966218  0  0  0.113116  0  1.02965  0  0  0.11624  0  1.028531  0  0  0.109449  0.110877  0  1.030537  0
H  H13  1  0.12765706  0.18121129  0.61869486  1  0  0.104185  0  0.966217  0  0  0.113123  0  1.029639  0  0  0.116246  0  1.028519  0  0  0.109454  0.110869  0  1.030549  0
H  H14  1  0.37234164  0.18121047  0.11869451  1  0  0.104199  0  0.966208  0  0  0.11313  0  1.02964  0  0  0.116255  0  1.02852  0  0  0.109455  0.110893  0  1.030533  0
H  H15  1  0.87234374  0.81878976  0.38130494  1  0  0.104217  0  0.966169  0  0  0.113149  0  1.029601  0  0  0.116273  0  1.028481  0  0  0.109474  0.110908  0  1.030492  0
H  H16  1  0.56551645  0.15956833  0.85356141  1  0  0.106634  0  0.945761  0  0  0.117927  0  1.004928  0  0  0.121133  0  1.003846  0  0  0.10714  0.1156  0  1.005864  0
H  H17  1  0.06551195  0.84043189  0.64643894  1  0  0.106662  0  0.945765  0  0  0.11795  0  1.004928  0  0  0.121153  0  1.003855  0  0  0.107139  0.115621  0  1.005866  0
H  H18  1  0.43448737  0.84043109  0.14643858  1  0  0.106668  0  0.945783  0  0  0.117954  0  1.004948  0  0  0.121156  0  1.003876  0  0  0.107147  0.115624  0  1.005887  0
H  H19  1  0.93448584  0.15956915  0.35356146  1  0  0.106672  0  0.945728  0  0  0.117964  0  1.00489  0  0  0.121165  0  1.003821  0  0  0.107158  0.115633  0  1.00583  0
H  H20  1  0.77781842  0.92815998  0.97210613  1  0  0.10176  0  0.955759  0  0  0.113789  0  1.014259  0  0  0.11691  0  1.012739  0  0  0.106433  0.111515  0  1.015539  0
H  H21  1  0.27781631  0.07183948  0.52789521  1  0  0.101751  0  0.95576  0  0  0.113786  0  1.014256  0  0  0.116907  0  1.012736  0  0  0.106435  0.111515  0  1.015531  0
H  H22  1  0.22218238  0.07183945  0.02789508  1  0  0.101757  0  0.955746  0  0  0.113792  0  1.014243  0  0  0.116913  0  1.012723  0  0  0.10644  0.11152  0  1.015524  0
H  H23  1  0.72218299  0.92815994  0.47210479  1  0  0.101749  0  0.95575  0  0  0.113783  0  1.01425  0  0  0.116904  0  1.01273  0  0  0.106443  0.111512  0  1.015528  0
H  H24  1  0.85596971  0.07754310  0.10396175  1  0  0.098924  0  0.955881  0  0  0.109733  0  1.017702  0  0  0.112492  0  1.016342  0  0  0.106819  0.107713  0  1.018787  0
H  H25  1  0.35596953  0.92245632  0.39603933  1  0  0.098941  0  0.955887  0  0  0.10975  0  1.017706  0  0  0.112509  0  1.016346  0  0  0.106831  0.107726  0  1.018793  0
H  H26  1  0.14403260  0.92245632  0.89603886  1  0  0.098925  0  0.955899  0  0  0.109718  0  1.017743  0  0  0.112476  0  1.016386  0  0  0.10683  0.10771  0  1.018808  0
H  H27  1  0.64403127  0.07754311  0.60396067  1  0  0.098945  0  0.955873  0  0  0.109756  0  1.017686  0  0  0.112515  0  1.016326  0  0  0.106835  0.107732  0  1.018776  0
H  H28  1  0.39704236  0.44209819  0.86087371  1  0  0.45325  0  0.79839  0  0  0.425193  0  0.866472  0  0  0.434332  0  0.856218  0  0  0.324104  0.418574  0  0.873832  0
H  H29  1  0.89704297  0.55790210  0.63912660  1  0  0.453256  0  0.798391  0  0  0.425202  0  0.866469  0  0  0.43434  0  0.856217  0  0  0.324115  0.418585  0  0.873831  0
H  H30  1  0.60295693  0.55790204  0.13912649  1  0  0.453269  0  0.798365  0  0  0.425216  0  0.866442  0  0  0.434355  0  0.856189  0  0  0.324107  0.4186  0  0.8738  0
H  H31  1  0.10295783  0.44209814  0.36087482  1  0  0.453244  0  0.79837  0  0  0.425187  0  0.866453  0  0  0.434326  0  0.856199  0  0  0.324116  0.41857  0  0.873816  0
H  H32  1  0.46474282  0.48680439  0.78559759  1  0  0.43218  0  0.863565  0  0  0.397164  0  0.945205  0  0  0.408858  0  0.928181  0  0  0.309389  0.388931  0  0.954966  0
H  H33  1  0.96474330  0.51319592  0.71440271  1  0  0.432185  0  0.863538  0  0  0.397174  0  0.945183  0  0  0.408868  0  0.92816  0  0  0.309389  0.388943  0  0.954927  0
H  H34  1  0.53525798  0.51319504  0.21440179  1  0  0.432182  0  0.863559  0  0  0.397165  0  0.945203  0  0  0.40886  0  0.928177  0  0  0.309383  0.388934  0  0.954961  0
H  H35  1  0.03525750  0.48680432  0.28559749  1  0  0.432167  0  0.863559  0  0  0.397148  0  0.945221  0  0  0.408841  0  0.928199  0  0  0.309384  0.388914  0  0.954965  0
H  H36  1  0.93397769  0.32710146  0.24516784  1  0  0.423563  0  0.845838  0  0  0.393303  0  0.920182  0  0  0.40564  0  0.907078  0  0  0.316796  0.384612  0  0.929287  0
H  H37  1  0.43397743  0.67289798  0.25483261  1  0  0.423559  0  0.845843  0  0  0.3933  0  0.920187  0  0  0.405637  0  0.907082  0  0  0.316808  0.38461  0  0.929291  0
H  H38  1  0.06602311  0.67289797  0.75483277  1  0  0.423555  0  0.845853  0  0  0.393301  0  0.920191  0  0  0.405638  0  0.907087  0  0  0.316803  0.384608  0  0.929301  0
H  H39  1  0.56602337  0.32710226  0.74516819  1  0  0.423539  0  0.845836  0  0  0.393288  0  0.920167  0  0  0.405623  0  0.907065  0  0  0.316783  0.384599  0  0.929268  0
C  C40  1  0.60809538  0.74722644  0.74549089  1  0  -0.045541  0  3.681348  0  0  -0.034288  0  3.916512  0  0  -0.036963  0  3.934592  0  0  -0.000849  -0.032714  0  3.904752  0
C  C41  1  0.10809319  0.25277380  0.75450945  1  0  -0.045506  0  3.681426  0  0  -0.034237  0  3.916596  0  0  -0.03691  0  3.934672  0  0  -0.00085  -0.032664  0  3.904833  0
C  C42  1  0.39190542  0.25277380  0.25450930  1  0  -0.045506  0  3.681335  0  0  -0.034223  0  3.916524  0  0  -0.036893  0  3.934598  0  0  -0.000844  -0.032652  0  3.904768  0
C  C43  1  0.89190610  0.74722724  0.24548973  1  0  -0.045647  0  3.681451  0  0  -0.034348  0  3.916633  0  0  -0.037022  0  3.934709  0  0  -0.000852  -0.032774  0  3.904867  0
C  C44  1  0.61006524  0.76428189  0.66490410  1  0  -0.061686  0  3.678121  0  0  -0.050703  0  3.914159  0  0  -0.056089  0  3.933289  0  0  -0.007054  -0.047391  0  3.901627  0
C  C45  1  0.11006596  0.23571915  0.83509523  1  0  -0.061799  0  3.678174  0  0  -0.050821  0  3.914244  0  0  -0.056207  0  3.933372  0  0  -0.007081  -0.047511  0  3.901712  0
C  C46  1  0.38993405  0.23571834  0.33509549  1  0  -0.061762  0  3.678094  0  0  -0.050845  0  3.914245  0  0  -0.056233  0  3.933371  0  0  -0.007098  -0.047526  0  3.901704  0
C  C47  1  0.88993484  0.76428189  0.16490335  1  0  -0.0616  0  3.678293  0  0  -0.050711  0  3.914431  0  0  -0.056095  0  3.93356  0  0  -0.007054  -0.047403  0  3.901902  0
C  C48  1  0.62185698  0.87164339  0.66411655  1  0  -0.056403  0  3.724225  0  0  -0.080427  0  3.979713  0  0  -0.08077  0  4.000616  0  0  -0.078677  -0.080087  0  3.965634  0
C  C49  1  0.12185609  0.12835685  0.83588440  1  0  -0.056408  0  3.724145  0  0  -0.080446  0  3.979663  0  0  -0.08079  0  4.000566  0  0  -0.078685  -0.080101  0  3.965581  0
C  C50  1  0.37814231  0.12835604  0.33588405  1  0  -0.056447  0  3.724255  0  0  -0.080458  0  3.979777  0  0  -0.080801  0  4.000678  0  0  -0.078672  -0.080116  0  3.965693  0
C  C51  1  0.87814471  0.87164420  0.16411539  1  0  -0.056533  0  3.724177  0  0  -0.08053  0  3.979701  0  0  -0.080881  0  4.000609  0  0  -0.078693  -0.08018  0  3.965614  0
C  C52  1  0.63426857  0.95929949  0.73934549  1  0  -0.109176  0  3.725774  0  0  -0.131776  0  3.981145  0  0  -0.135025  0  4.002011  0  0  -0.084914  -0.129538  0  3.966874  0
C  C53  1  0.13426768  0.04070156  0.76065506  1  0  -0.109122  0  3.725764  0  0  -0.131735  0  3.981131  0  0  -0.134984  0  4.001998  0  0  -0.084897  -0.12949  0  3.966856  0
C  C54  1  0.36573072  0.04070075  0.26065532  1  0  -0.109115  0  3.725832  0  0  -0.13174  0  3.981184  0  0  -0.134987  0  4.002049  0  0  -0.084905  -0.129496  0  3.96691  0
C  C55  1  0.86573162  0.95930029  0.23934555  1  0  -0.10911  0  3.725826  0  0  -0.131734  0  3.981176  0  0  -0.134982  0  4.002042  0  0  -0.084913  -0.129488  0  3.966899  0
C  C56  1  0.63904221  0.94265836  0.82003290  1  0  0.060835  0  3.769694  0  0  0.07677  0  4.002128  0  0  0.077404  0  4.025264  0  0  -0.000773  0.076393  0  3.986306  0
C  C57  1  0.13904142  0.05734189  0.67996805  1  0  0.060788  0  3.769619  0  0  0.076784  0  4.001996  0  0  0.077419  0  4.025129  0  0  -0.000775  0.076403  0  3.986181  0
C  C58  1  0.36095860  0.05734107  0.17996770  1  0  0.060799  0  3.769606  0  0  0.076827  0  4.001927  0  0  0.07746  0  4.025062  0  0  -0.000738  0.07645  0  3.986109  0
C  C59  1  0.86095939  0.94265916  0.32003235  1  0  0.060755  0  3.769657  0  0  0.076787  0  4.001981  0  0  0.077422  0  4.025116  0  0  -0.000762  0.076404  0  3.986168  0
C  C60  1  0.62561248  0.83588033  0.82066041  1  0  -0.109109  0  3.693556  0  0  -0.141871  0  3.943604  0  0  -0.144544  0  3.963603  0  0  -0.079969  -0.140057  0  3.930259  0
C  C61  1  0.12560878  0.16412072  0.67934014  1  0  -0.109073  0  3.693443  0  0  -0.141851  0  3.943466  0  0  -0.144521  0  3.963459  0  0  -0.079951  -0.14003  0  3.930139  0
C  C62  1  0.37438983  0.16411991  0.17934040  1  0  -0.109112  0  3.693394  0  0  -0.1419  0  3.943411  0  0  -0.14457  0  3.963406  0  0  -0.079986  -0.140092  0  3.93008  0
C  C63  1  0.87439051  0.83588032  0.32065905  1  0  -0.109066  0  3.693367  0  0  -0.141865  0  3.943395  0  0  -0.144535  0  3.963385  0  0  -0.079991  -0.140052  0  3.930053  0
C  C64  1  0.58948020  0.64131992  0.76273236  1  0  0.728793  0  3.804827  0  0  0.681504  0  4.095316  0  0  0.717374  0  4.081979  0  0  0.24409  0.65698  0  4.103428  0
C  C65  1  0.08948115  0.35868031  0.73726738  1  0  0.728803  0  3.804833  0  0  0.681482  0  4.095379  0  0  0.717352  0  4.08204  0  0  0.244092  0.656961  0  4.103488  0
C  C66  1  0.41051759  0.35867950  0.23726702  1  0  0.728786  0  3.804891  0  0  0.681456  0  4.095447  0  0  0.717324  0  4.082107  0  0  0.244064  0.656926  0  4.103569  0
C  C67  1  0.91052267  0.64131992  0.26273099  1  0  0.728775  0  3.804665  0  0  0.681455  0  4.095214  0  0  0.717323  0  4.081874  0  0  0.24403  0.656943  0  4.103314  0
C  C68  1  0.61835170  0.67714258  0.57946324  1  0  0.669919  0  3.894297  0  0  0.621421  0  4.196396  0  0  0.656658  0  4.185345  0  0  0.206876  0.597547  0  4.202453  0
C  C69  1  0.11835393  0.32285686  0.92053751  1  0  0.669998  0  3.894109  0  0  0.621467  0  4.19625  0  0  0.656704  0  4.185197  0  0  0.206865  0.597595  0  4.202303  0
C  C70  1  0.38164608  0.32285685  0.42053736  1  0  0.670005  0  3.894203  0  0  0.621492  0  4.196348  0  0  0.65673  0  4.185294  0  0  0.206865  0.597615  0  4.202403  0
C  C71  1  0.88164838  0.67714338  0.07946269  1  0  0.669952  0  3.894392  0  0  0.621474  0  4.196491  0  0  0.656711  0  4.185437  0  0  0.2069  0.597584  0  4.202567  0
C  C72  1  0.75802700  0.20261906  0.05413281  1  0  -0.089061  0  3.728795  0  0  -0.077502  0  3.964297  0  0  -0.085037  0  3.984526  0  0  -0.008882  -0.072699  0  3.951032  0
C  C73  1  0.25802664  0.79737953  0.44586806  1  0  -0.089057  0  3.728859  0  0  -0.077479  0  3.964346  0  0  -0.085006  0  3.98456  0  0  -0.008907  -0.072672  0  3.951072  0
C  C74  1  0.24197531  0.79737956  0.94586758  1  0  -0.089106  0  3.728882  0  0  -0.07752  0  3.964328  0  0  -0.085058  0  3.984552  0  0  -0.008918  -0.072711  0  3.951051  0
C  C75  1  0.74197114  0.20261990  0.55413254  1  0  -0.089067  0  3.728797  0  0  -0.077504  0  3.964279  0  0  -0.085034  0  3.984498  0  0  -0.00889  -0.072698  0  3.951005  0
C  C76  1  0.67129470  0.22526909  0.98340049  1  0  -0.018  0  3.660214  0  0  -0.007827  0  3.89238  0  0  -0.008882  0  3.90999  0  0  0.00996  -0.007324  0  3.880888  0
C  C77  1  0.17129178  0.77473036  0.51659964  1  0  -0.018034  0  3.660265  0  0  -0.007854  0  3.8924  0  0  -0.008912  0  3.910009  0  0  0.009944  -0.007348  0  3.880907  0
C  C78  1  0.32870912  0.77473034  0.01659951  1  0  -0.01802  0  3.660252  0  0  -0.007844  0  3.892386  0  0  -0.008899  0  3.909996  0  0  0.009938  -0.00734  0  3.880897  0
C  C79  1  0.82870752  0.22526907  0.48339913  1  0  -0.018039  0  3.660256  0  0  -0.007836  0  3.892381  0  0  -0.008891  0  3.909988  0  0  0.009943  -0.007334  0  3.880883  0
C  C80  1  0.62852909  0.14026897  0.90823979  1  0  -0.115527  0  3.664293  0  0  -0.145165  0  3.914957  0  0  -0.148709  0  3.934759  0  0  -0.076959  -0.142834  0  3.9018  0
C  C81  1  0.12852617  0.85973046  0.59176096  1  0  -0.115533  0  3.664235  0  0  -0.145153  0  3.914898  0  0  -0.148699  0  3.934702  0  0  -0.076935  -0.142811  0  3.901732  0
C  C82  1  0.37147473  0.85972965  0.09176061  1  0  -0.115522  0  3.664242  0  0  -0.145144  0  3.914897  0  0  -0.148689  0  3.934698  0  0  -0.076943  -0.142809  0  3.901736  0
C  C83  1  0.87147010  0.14027058  0.40823945  1  0  -0.115506  0  3.664248  0  0  -0.14514  0  3.914915  0  0  -0.148686  0  3.934714  0  0  -0.076955  -0.142803  0  3.90175  0
C  C84  1  0.66779545  0.03203079  0.90157968  1  0  0.066928  0  3.765211  0  0  0.079911  0  3.999701  0  0  0.081402  0  4.023063  0  0  0.001694  0.079014  0  3.983731  0
C  C85  1  0.16779263  0.96797027  0.59842086  1  0  0.066942  0  3.765142  0  0  0.079866  0  3.999687  0  0  0.081354  0  4.023051  0  0  0.001695  0.078969  0  3.983718  0
C  C86  1  0.33220837  0.96796945  0.09842052  1  0  0.066918  0  3.765143  0  0  0.079857  0  3.999646  0  0  0.081345  0  4.023011  0  0  0.001683  0.078962  0  3.983676  0
C  C87  1  0.83220515  0.03203077  0.40157832  1  0  0.066901  0  3.765142  0  0  0.079828  0  3.99967  0  0  0.081317  0  4.023035  0  0  0.001682  0.078929  0  3.983707  0
C  C88  1  0.74425736  0.01073652  0.97459395  1  0  -0.115913  0  3.736054  0  0  -0.137028  0  3.989806  0  0  -0.141148  0  4.011068  0  0  -0.086955  -0.134308  0  3.975368  0
C  C89  1  0.24425313  0.98926294  0.52540678  1  0  -0.115934  0  3.736112  0  0  -0.137045  0  3.989892  0  0  -0.141165  0  4.011156  0  0  -0.086997  -0.13433  0  3.97545  0
C  C90  1  0.25574646  0.98926291  0.02540726  1  0  -0.115907  0  3.736078  0  0  -0.137031  0  3.989849  0  0  -0.141149  0  4.011111  0  0  -0.08699  -0.134322  0  3.97542  0
C  C91  1  0.75574314  0.01073730  0.47459342  1  0  -0.115878  0  3.736084  0  0  -0.136993  0  3.989863  0  0  -0.141113  0  4.011126  0  0  -0.086968  -0.13428  0  3.975427  0
C  C92  1  0.78840660  0.09455047  0.04923828  1  0  -0.056554  0  3.749898  0  0  -0.083062  0  4.007116  0  0  -0.081895  0  4.026893  0  0  -0.079653  -0.083646  0  3.993728  0
C  C93  1  0.28840786  0.90544975  0.45076239  1  0  -0.056529  0  3.749827  0  0  -0.083045  0  4.007038  0  0  -0.081879  0  4.026811  0  0  -0.07962  -0.083618  0  3.993639  0
C  C94  1  0.21159420  0.90544977  0.95076253  1  0  -0.056518  0  3.749878  0  0  -0.083023  0  4.007092  0  0  -0.081854  0  4.026865  0  0  -0.079625  -0.08361  0  3.993685  0
C  C95  1  0.71159294  0.09454968  0.54923699  1  0  -0.056577  0  3.749897  0  0  -0.083087  0  4.007111  0  0  -0.08192  0  4.026885  0  0  -0.079664  -0.083663  0  3.993719  0
C  C96  1  0.84033955  0.29011946  0.12826817  1  0  0.70112  0  3.753857  0  0  0.65044  0  4.049183  0  0  0.686017  0  4.037055  0  0  0.252596  0.626118  0  4.056841  0
C  C97  1  0.34033618  0.70988481  0.37173231  1  0  0.701052  0  3.753564  0  0  0.650358  0  4.048931  0  0  0.685932  0  4.036806  0  0  0.252619  0.626029  0  4.0566  0
C  C98  1  0.15966426  0.70988320  0.87173204  1  0  0.701126  0  3.753607  0  0  0.65046  0  4.048915  0  0  0.686047  0  4.03677  0  0  0.25268  0.626142  0  4.056568  0
C  C99  1  0.65966010  0.29011785  0.62826789  1  0  0.701062  0  3.753786  0  0  0.650359  0  4.049136  0  0  0.685939  0  4.037001  0  0  0.252581  0.626042  0  4.05679  0
C  C100  1  0.62620490  0.33886247  0.98414860  1  0  0.747629  0  3.831335  0  0  0.700948  0  4.124219  0  0  0.7373  0  4.109827  0  0  0.246988  0.676097  0  4.132717  0
C  C101  1  0.12620639  0.66113697  0.51585276  1  0  0.747656  0  3.831294  0  0  0.700974  0  4.124186  0  0  0.737329  0  4.109794  0  0  0.246997  0.676103  0  4.132732  0
C  C102  1  0.37379440  0.66113696  0.01585323  1  0  0.747603  0  3.831312  0  0  0.700907  0  4.124233  0  0  0.73726  0  4.109842  0  0  0.246974  0.676029  0  4.132781  0
C  C103  1  0.87379441  0.33886327  0.48414805  1  0  0.747673  0  3.831417  0  0  0.70097  0  4.124332  0  0  0.737323  0  4.10994  0  0  0.247046  0.676114  0  4.132844  0
O  O104  1  0.71353571  0.62765768  0.81694812  1  0  -0.709543  0  2.093848  0  0  -0.666798  0  2.347564  0  0  -0.692062  0  2.336593  0  0  -0.389288  -0.648182  0  2.354329  0
O  O105  1  0.21353674  0.37234177  0.68305261  1  0  -0.709541  0  2.093848  0  0  -0.6668  0  2.347604  0  0  -0.692067  0  2.33664  0  0  -0.389298  -0.648178  0  2.354364  0
O  O106  1  0.28646509  0.37234175  0.18305309  1  0  -0.709522  0  2.093941  0  0  -0.66677  0  2.347684  0  0  -0.692042  0  2.336733  0  0  -0.389266  -0.648152  0  2.354458  0
O  O107  1  0.78646255  0.62765847  0.31694820  1  0  -0.709533  0  2.093787  0  0  -0.666795  0  2.347535  0  0  -0.692055  0  2.336556  0  0  -0.389273  -0.648181  0  2.354294  0
O  O108  1  0.44583517  0.57569980  0.73001199  1  0  -0.714072  0  2.099657  0  0  -0.665041  0  2.345635  0  0  -0.691157  0  2.334186  0  0  -0.374608  -0.645961  0  2.352579  0
O  O109  1  0.94583399  0.42430051  0.76998892  1  0  -0.714103  0  2.099684  0  0  -0.665045  0  2.345628  0  0  -0.691163  0  2.33419  0  0  -0.374618  -0.645972  0  2.352569  0
O  O110  1  0.55416563  0.42429963  0.26998861  1  0  -0.714133  0  2.099682  0  0  -0.665044  0  2.345583  0  0  -0.691169  0  2.334155  0  0  -0.374614  -0.645961  0  2.35252  0
O  O111  1  0.05416530  0.57570054  0.23001210  1  0  -0.714098  0  2.099687  0  0  -0.665023  0  2.345638  0  0  -0.691157  0  2.334233  0  0  -0.37459  -0.645953  0  2.352579  0
O  O112  1  0.62884019  0.57515286  0.57294753  1  0  -0.798611  0  2.055848  0  0  -0.760012  0  2.313091  0  0  -0.783543  0  2.30038  0  0  -0.389783  -0.742051  0  2.320714  0
O  O113  1  0.12884100  0.42484738  0.92705159  1  0  -0.798655  0  2.055735  0  0  -0.760025  0  2.312948  0  0  -0.783555  0  2.300238  0  0  -0.389812  -0.742061  0  2.320562  0
O  O114  1  0.37115910  0.42484737  0.42705145  1  0  -0.798623  0  2.055818  0  0  -0.760001  0  2.313034  0  0  -0.783531  0  2.300322  0  0  -0.389776  -0.742041  0  2.320655  0
O  O115  1  0.87116131  0.57515448  0.07294780  1  0  -0.798587  0  2.055916  0  0  -0.759981  0  2.313142  0  0  -0.78351  0  2.300431  0  0  -0.389787  -0.74201  0  2.320763  0
O  O116  1  0.62722644  0.70517982  0.51261775  1  0  -0.661278  0  2.046824  0  0  -0.620333  0  2.289079  0  0  -0.646079  0  2.283603  0  0  -0.360639  -0.601949  0  2.292229  0
O  O117  1  0.12722554  0.29482042  0.98738137  1  0  -0.661291  0  2.04682  0  0  -0.620315  0  2.289081  0  0  -0.646059  0  2.283603  0  0  -0.360581  -0.601934  0  2.292232  0
O  O118  1  0.37277286  0.29482041  0.48738123  1  0  -0.661343  0  2.04684  0  0  -0.620384  0  2.289109  0  0  -0.646129  0  2.283632  0  0  -0.36062  -0.601998  0  2.292255  0
O  O119  1  0.87277526  0.70518062  0.01261781  1  0  -0.661341  0  2.046846  0  0  -0.620379  0  2.289076  0  0  -0.646125  0  2.283602  0  0  -0.360663  -0.601989  0  2.292228  0
O  O120  1  0.87936610  0.26168335  0.19721387  1  0  -0.536363  0  2.075758  0  0  -0.485071  0  2.293877  0  0  -0.508074  0  2.281007  0  0  -0.314584  -0.469073  0  2.302321  0
O  O121  1  0.37936584  0.73831526  0.30278699  1  0  -0.536272  0  2.075796  0  0  -0.484997  0  2.293951  0  0  -0.508006  0  2.281095  0  0  -0.314575  -0.468999  0  2.302398  0
O  O122  1  0.12063471  0.73831527  0.80278652  1  0  -0.536329  0  2.075747  0  0  -0.485086  0  2.293904  0  0  -0.508096  0  2.281038  0  0  -0.314627  -0.469092  0  2.302354  0
O  O123  1  0.62063496  0.26168336  0.69721341  1  0  -0.536301  0  2.075752  0  0  -0.48502  0  2.293881  0  0  -0.508034  0  2.281033  0  0  -0.314568  -0.46903  0  2.302325  0
O  O124  1  0.87514906  0.38229318  0.12461649  1  0  -0.632775  0  2.062211  0  0  -0.591196  0  2.306732  0  0  -0.612877  0  2.296794  0  0  -0.328776  -0.575495  0  2.313123  0
O  O125  1  0.37515012  0.61770220  0.37538476  1  0  -0.632811  0  2.061819  0  0  -0.591181  0  2.306238  0  0  -0.612866  0  2.296302  0  0  -0.328805  -0.57548  0  2.312636  0
O  O126  1  0.12485174  0.61770220  0.87538369  1  0  -0.632802  0  2.061952  0  0  -0.591191  0  2.306403  0  0  -0.61288  0  2.296459  0  0  -0.328808  -0.575492  0  2.312793  0
O  O127  1  0.62485069  0.38229561  0.62461604  1  0  -0.632754  0  2.062047  0  0  -0.59115  0  2.306571  0  0  -0.612836  0  2.296631  0  0  -0.328772  -0.575453  0  2.312963  0
O  O128  1  0.49034765  0.39276185  0.03295859  1  0  -0.723346  0  2.118031  0  0  -0.68752  0  2.382547  0  0  -0.712926  0  2.370391  0  0  -0.390234  -0.668438  0  2.38974  0
O  O129  1  0.99034493  0.60723760  0.46704063  1  0  -0.723383  0  2.117909  0  0  -0.687552  0  2.382413  0  0  -0.712953  0  2.370245  0  0  -0.390257  -0.668464  0  2.389621  0
O  O130  1  0.50965617  0.60723758  0.96704140  1  0  -0.723337  0  2.117928  0  0  -0.687494  0  2.382419  0  0  -0.712899  0  2.370263  0  0  -0.390218  -0.668399  0  2.389621  0
O  O131  1  0.00964984  0.39276264  0.53295896  1  0  -0.723375  0  2.118129  0  0  -0.687545  0  2.382641  0  0  -0.71295  0  2.370482  0  0  -0.390263  -0.668461  0  2.389838  0
O  O132  1  0.72603158  0.37044165  0.93053197  1  0  -0.718239  0  2.083267  0  0  -0.676249  0  2.339657  0  0  -0.703199  0  2.32844  0  0  -0.393258  -0.656049  0  2.345953  0
O  O133  1  0.22602846  0.62955780  0.56946815  1  0  -0.718216  0  2.083459  0  0  -0.676211  0  2.339794  0  0  -0.703153  0  2.328553  0  0  -0.393217  -0.656007  0  2.346122  0
O  O134  1  0.27397224  0.62955858  0.06946822  1  0  -0.71821  0  2.083405  0  0  -0.676196  0  2.339745  0  0  -0.703135  0  2.328503  0  0  -0.39323  -0.656  0  2.34609  0
O  O135  1  0.77396782  0.37044244  0.43053144  1  0  -0.718247  0  2.083309  0  0  -0.676219  0  2.339651  0  0  -0.703172  0  2.328441  0  0  -0.393268  -0.656019  0  2.345955  0
O  O136  1  0.50676631  0.43827245  0.81948605  1  0  -0.862719  0  1.965791  0  0  -0.812862  0  2.175984  0  0  -0.832906  0  2.148117  0  0  -0.584231  -0.79802  0  2.193507  0
O  O137  1  0.00676602  0.56172776  0.68051430  1  0  -0.862721  0  1.965768  0  0  -0.812865  0  2.175956  0  0  -0.832911  0  2.148087  0  0  -0.584233  -0.798019  0  2.193472  0
O  O138  1  0.49323449  0.56172779  0.18051476  1  0  -0.862713  0  1.965718  0  0  -0.812867  0  2.175914  0  0  -0.832911  0  2.148044  0  0  -0.584219  -0.798022  0  2.193438  0
O  O139  1  0.99323478  0.43827247  0.31948650  1  0  -0.862678  0  1.965726  0  0  -0.812835  0  2.175973  0  0  -0.832878  0  2.148108  0  0  -0.584248  -0.797988  0  2.193485  0
