# generated using pymatgen
data_Cu2H19C22N3ClO5
_symmetry_space_group_name_H-M   'P 1'
_cell_length_a   9.17256118
_cell_length_b   14.17163938
_cell_length_c   26.12620225
_cell_angle_alpha   89.99537629
_cell_angle_beta   89.99735093
_cell_angle_gamma   97.40013714
_symmetry_Int_Tables_number   1
_chemical_formula_structural   Cu2H19C22N3ClO5
_chemical_formula_sum   'Cu8 H76 C88 N12 Cl4 O20'
_cell_volume   3367.86396543
_cell_formula_units_Z   4
loop_
 _symmetry_equiv_pos_site_id
 _symmetry_equiv_pos_as_xyz
  1  'x, y, z'
loop_
 _atom_site_type_symbol
 _atom_site_label
 _atom_site_symmetry_multiplicity
 _atom_site_fract_x
 _atom_site_fract_y
 _atom_site_fract_z
 _atom_site_occupancy
 _atom_site_pbe_bader_charge
 _atom_site_pbe_bader_spin_density
 _atom_site_pbe_cm5_charge
 _atom_site_pbe_ddec_charge
 _atom_site_pbe_ddec_spin_density
 _atom_site_pbe_ddec_sum_bond_order
 _atom_site_pbe_magmom
Cu  Cu0  1  0.09622628  0.07461700  0.50747966  1  1.067082  -0.000615  0.665615  0.808584  -0.000783  2.29801  -0.003
Cu  Cu1  1  0.90446332  0.42618545  0.00748978  1  1.096651  -0.551977  0.683805  0.836501  -0.707653  2.290648  -0.549
Cu  Cu2  1  0.90381310  0.92540713  0.49252429  1  1.065979  0.000609  0.665555  0.808403  0.000774  2.297913  0.003
Cu  Cu3  1  0.09551084  0.57379442  0.99251532  1  1.09558  0.551968  0.683922  0.836758  0.707643  2.29075  0.549
Cu  Cu4  1  0.51362884  0.22772625  0.75999864  1  0.450879  -0.000258  0.275027  0.145121  -0.000298  2.423211  0.0
Cu  Cu5  1  0.48657714  0.27212152  0.26015599  1  0.451638  0.000169  0.275213  0.145523  0.000192  2.423347  0.0
Cu  Cu6  1  0.48639011  0.77231063  0.24000263  1  0.450787  0.000258  0.275071  0.145176  0.000297  2.423212  0.0
Cu  Cu7  1  0.51339760  0.72788395  0.73984719  1  0.451807  -0.000169  0.275148  0.145509  -0.000192  2.423589  0.0
H  H8  1  0.20458277  0.23381121  0.60059707  1  0.210542  -2e-06  0.132617  0.146121  -0.0  1.025199  0.0
H  H9  1  0.79576155  0.26617540  0.10078448  1  0.209682  1.1e-05  0.132841  0.146384  8e-06  1.02474  0.0
H  H10  1  0.79542881  0.76621570  0.39940879  1  0.210452  2e-06  0.132661  0.146179  0.0  1.025449  0.0
H  H11  1  0.20421507  0.73381727  0.89921794  1  0.209498  -1.1e-05  0.132793  0.146344  -8e-06  1.024763  0.0
H  H12  1  0.04120060  0.30113186  0.67984952  1  0.136611  1.1e-05  0.133408  0.134656  7e-06  0.993147  0.0
H  H13  1  0.95909060  0.19875237  0.18000780  1  0.134584  -3e-06  0.133155  0.133937  4e-06  0.992908  0.0
H  H14  1  0.95880523  0.69888223  0.32015596  1  0.136619  -1.1e-05  0.133397  0.134603  -7e-06  0.99319  0.0
H  H15  1  0.04088618  0.80125239  0.81999883  1  0.134709  3e-06  0.13317  0.133942  -4e-06  0.992949  0.0
H  H16  1  0.32598567  0.09847238  0.59233497  1  0.144743  -0.0  0.110724  0.127558  -0.0  1.066184  0.0
H  H17  1  0.67434444  0.40151408  0.09264656  1  0.141949  -0.000178  0.110323  0.127176  -0.00013  1.06652  0.0
H  H18  1  0.67400571  0.90154025  0.40767931  1  0.144356  0.0  0.110717  0.127606  0.0  1.066194  0.0
H  H19  1  0.32563219  0.59847860  0.90735394  1  0.14166  0.000178  0.11033  0.12724  0.00013  1.066319  0.0
H  H20  1  0.51978405  0.03588000  0.54146479  1  0.065807  1e-06  0.109414  0.11251  0.0  1.004593  0.0
H  H21  1  0.48077067  0.46396438  0.04161063  1  0.068235  0.000231  0.10945  0.113011  0.000197  1.003715  0.0
H  H22  1  0.48017989  0.96411478  0.45854337  1  0.065759  -1e-06  0.109413  0.112534  -0.0  1.004481  0.0
H  H23  1  0.51920827  0.53602333  0.95838681  1  0.067937  -0.000232  0.109504  0.113148  -0.000198  1.003806  0.0
H  H24  1  0.85019392  0.23072763  0.61618810  1  0.092424  1e-06  0.106016  0.110329  -0.0  1.004481  0.0
H  H25  1  0.15011829  0.26905800  0.11621021  1  0.051778  -0.000338  0.105889  0.109914  -0.000264  1.004399  0.0
H  H26  1  0.14980864  0.76928076  0.38379136  1  0.092458  -0.0  0.105996  0.11038  0.0  1.004571  0.0
H  H27  1  0.84986065  0.73092971  0.88378761  1  0.051992  0.000338  0.105851  0.10988  0.000265  1.004273  0.0
H  H28  1  0.65441671  0.29406017  0.66856405  1  0.086114  1e-06  0.103818  0.112945  1e-06  1.012214  0.0
H  H29  1  0.34576219  0.20581064  0.16871019  1  0.084322  0.000181  0.103616  0.112804  9.7e-05  1.012609  0.0
H  H30  1  0.34561765  0.70597178  0.33141999  1  0.086067  -0.0  0.103787  0.113011  -1e-06  1.01227  0.0
H  H31  1  0.65421745  0.79419200  0.83129528  1  0.084568  -0.000181  0.10351  0.112653  -9.7e-05  1.012602  0.0
H  H32  1  0.97385874  0.24272487  0.76850402  1  0.090682  0.000183  0.104308  0.117299  9.6e-05  1.011674  0.0
H  H33  1  0.02645910  0.25688357  0.26871165  1  0.094807  0.0  0.104231  0.117365  0.0  1.011382  0.0
H  H34  1  0.02614138  0.75729916  0.23149151  1  0.090528  -0.000183  0.104279  0.117218  -9.6e-05  1.011687  0.0
H  H35  1  0.97350639  0.74313610  0.73128847  1  0.09473  -0.0  0.104304  0.11749  -0.0  1.011374  0.0
H  H36  1  0.90214759  0.30561291  0.85127834  1  0.125596  -0.000185  0.100028  0.115191  -0.000171  1.024688  0.0
H  H37  1  0.09770523  0.19411699  0.35155765  1  0.131425  0.0  0.100262  0.115881  -0.0  1.023919  0.0
H  H38  1  0.09784882  0.69439191  0.14872101  1  0.125636  0.000185  0.100027  0.115143  0.000171  1.024612  0.0
H  H39  1  0.90228126  0.80590416  0.64843864  1  0.13169  -0.0  0.100281  0.115908  0.0  1.023809  0.0
H  H40  1  0.33393736  0.46410744  0.86735220  1  0.090977  0.000139  0.105348  0.109537  0.00013  1.022026  0.0
H  H41  1  0.66569821  0.03579573  0.36752021  1  0.087386  0.0  0.105466  0.109883  0.0  1.022316  0.0
H  H42  1  0.66606705  0.53586539  0.13266783  1  0.091524  -0.000138  0.105481  0.109763  -0.00013  1.021725  0.0
H  H43  1  0.33431536  0.96419633  0.63248526  1  0.087353  -0.0  0.10546  0.10981  -0.0  1.022485  0.0
H  H44  1  0.40755648  0.40046264  0.78387552  1  0.084577  -0.000171  0.105708  0.114944  -9e-05  1.010152  0.0
H  H45  1  0.59250108  0.09937811  0.28398180  1  0.085114  0.0  0.105571  0.114542  0.0  1.010092  0.0
H  H46  1  0.59244499  0.59955144  0.21613455  1  0.084339  0.000171  0.105682  0.114879  9e-05  1.010207  0.0
H  H47  1  0.40748182  0.90061885  0.71602521  1  0.085108  -0.0  0.105585  0.114565  -0.0  1.010125  0.0
H  H48  1  0.39808569  0.11349114  0.44122713  1  0.073218  -0.0  0.1007  0.127598  -0.0  1.019097  0.0
H  H49  1  0.60219965  0.38688058  0.94113436  1  0.068147  -9e-06  0.100847  0.128244  -3.4e-05  1.01881  0.0
H  H50  1  0.60193443  0.88650663  0.55876342  1  0.073323  -0.0  0.100748  0.127674  0.0  1.01911  0.0
H  H51  1  0.39778569  0.61310642  0.05887532  1  0.067918  8e-06  0.100974  0.12845  3.4e-05  1.018607  0.0
H  H52  1  0.32137508  0.20320302  0.40741066  1  0.105936  1e-06  0.101006  0.133697  0.0  0.984016  0.0
H  H53  1  0.67899698  0.29714302  0.90738150  1  0.104275  -5e-06  0.100918  0.133647  -8e-06  0.98373  0.0
H  H54  1  0.67863727  0.79679402  0.59258601  1  0.105798  -1e-06  0.101014  0.133696  -0.0  0.983983  0.0
H  H55  1  0.32099124  0.70285894  0.09261938  1  0.103962  5e-06  0.100907  0.13366  8e-06  0.983719  0.0
H  H56  1  0.57481948  0.25187830  0.38339714  1  0.081384  1e-06  0.088298  0.093325  1e-06  1.015787  0.0
H  H57  1  0.42546660  0.24833905  0.88343781  1  0.081448  -3e-06  0.088498  0.093607  -3e-06  1.015638  0.0
H  H58  1  0.42518865  0.74812512  0.61659610  1  0.081051  -1e-06  0.088281  0.093289  -1e-06  1.015765  0.0
H  H59  1  0.57450691  0.75166571  0.11656728  1  0.081215  3e-06  0.088469  0.093539  3e-06  1.015596  0.0
H  H60  1  0.64143491  0.20731933  0.44156677  1  0.027489  1e-06  0.09097  0.089417  0.0  0.980841  0.0
H  H61  1  0.35896498  0.29291179  0.94161650  1  0.029198  -1.7e-05  0.091314  0.089999  -1e-05  0.980707  0.0
H  H62  1  0.35858195  0.79268411  0.55842378  1  0.027397  -1e-06  0.090948  0.089286  -0.0  0.980924  0.0
H  H63  1  0.64103604  0.70707170  0.05839701  1  0.027844  1.7e-05  0.091322  0.089966  1e-05  0.980808  0.0
H  H64  1  0.66059413  0.37139295  0.46575171  1  0.031652  1e-06  0.105884  0.081371  1e-06  0.969505  0.0
H  H65  1  0.34011260  0.12887991  0.96586264  1  0.030354  6e-06  0.105592  0.080905  4e-06  0.969044  0.0
H  H66  1  0.33941373  0.62860905  0.53424344  1  0.031019  -1e-06  0.10582  0.081346  -1e-06  0.969494  0.0
H  H67  1  0.65989128  0.87109577  0.03413021  1  0.030263  -7e-06  0.105556  0.080837  -4e-06  0.969083  0.0
H  H68  1  0.51209455  0.39290209  0.42474342  1  0.028077  1e-06  0.098971  0.078222  0.0  0.976953  0.0
H  H69  1  0.48854625  0.10741341  0.92481882  1  0.035298  1e-06  0.098701  0.077619  0.0  0.977598  0.0
H  H70  1  0.48791167  0.60709706  0.57525173  1  0.02817  -1e-06  0.098962  0.078228  -0.0  0.977007  0.0
H  H71  1  0.51145765  0.89257934  0.07517097  1  0.035606  -1e-06  0.098818  0.077797  -0.0  0.977463  0.0
H  H72  1  0.52243904  0.44004063  0.53507481  1  0.061882  0.0  0.107733  0.114342  0.0  1.005317  0.0
H  H73  1  0.47858112  0.06040906  0.03520500  1  0.043575  2e-06  0.107521  0.113858  1e-06  1.004936  0.0
H  H74  1  0.47756418  0.55995425  0.46492071  1  0.061899  -0.0  0.107715  0.114291  -0.0  1.005302  0.0
H  H75  1  0.52142752  0.93956308  0.96478708  1  0.044057  -2e-06  0.107472  0.113688  -1e-06  1.004788  0.0
H  H76  1  0.32677343  0.41792628  0.52776240  1  0.054  2e-06  0.103376  0.111398  1e-06  0.983714  0.0
H  H77  1  0.67419447  0.08261477  0.02778545  1  0.058164  6e-06  0.103718  0.111928  3e-06  0.983247  0.0
H  H78  1  0.67323524  0.58206862  0.47223274  1  0.054043  -2e-06  0.103403  0.111368  -1e-06  0.983781  0.0
H  H79  1  0.32580746  0.91733957  0.97218902  1  0.058422  -5e-06  0.103785  0.112007  -3e-06  0.983325  0.0
H  H80  1  0.41828042  0.34782601  0.57072698  1  0.103326  1e-06  0.102708  0.113947  1e-06  1.030702  0.0
H  H81  1  0.58273233  0.15273960  0.07075070  1  0.07458  7e-06  0.102762  0.113914  2e-06  1.030767  0.0
H  H82  1  0.58172621  0.65216959  0.42926701  1  0.103127  -1e-06  0.102694  0.113921  -1e-06  1.030658  0.0
H  H83  1  0.41732332  0.84721630  0.92923717  1  0.075141  -7e-06  0.102697  0.114014  -2e-06  1.030542  0.0
C  C84  1  0.37152648  0.25424914  0.71328633  1  0.737831  2e-05  0.028039  -0.104934  1.8e-05  3.86373  0.0
C  C85  1  0.62876697  0.24557927  0.21347891  1  0.737296  0.0  0.026913  -0.107246  -1e-06  3.866539  0.0
C  C86  1  0.62849301  0.74577921  0.28671264  1  0.738292  -2e-05  0.028074  -0.104808  -1.8e-05  3.86353  0.0
C  C87  1  0.37120953  0.75442407  0.78652503  1  0.737022  -0.0  0.02699  -0.10743  1e-06  3.866543  0.0
C  C88  1  0.22907274  0.24627265  0.64090287  1  0.336743  8.6e-05  0.012708  -0.075324  5.6e-05  3.895512  0.0
C  C89  1  0.77120359  0.25365473  0.14108244  1  0.342628  -0.0  0.012593  -0.076297  -6e-06  3.893898  0.0
C  C90  1  0.77094430  0.75375427  0.35910108  1  0.337101  -8.6e-05  0.012568  -0.075494  -5.7e-05  3.895867  0.0
C  C91  1  0.22877672  0.74634009  0.85892266  1  0.342743  0.0  0.012506  -0.076472  6e-06  3.893676  0.0
C  C92  1  0.14958808  0.27866067  0.67950925  1  0.294539  -3e-06  0.007448  -0.089026  3e-06  3.928439  0.0
C  C93  1  0.85068850  0.22116455  0.17967940  1  0.291116  -4.5e-05  0.007576  -0.087859  -2.9e-05  3.926677  0.0
C  C94  1  0.85041857  0.72135200  0.32049585  1  0.2943  3e-06  0.007557  -0.088819  -3e-06  3.92847  0.0
C  C95  1  0.14928664  0.77883737  0.82032647  1  0.291312  4.4e-05  0.007666  -0.087818  2.9e-05  3.926245  0.0
C  C96  1  0.47938050  0.19882498  0.63365169  1  0.234101  2e-06  0.095446  0.173905  1e-06  4.003412  0.0
C  C97  1  0.52085659  0.30105794  0.13383055  1  0.226018  -0.00015  0.095425  0.17298  -9.6e-05  4.003982  0.0
C  C98  1  0.52062849  0.80119979  0.36634843  1  0.234801  -2e-06  0.095619  0.174258  -1e-06  4.00251  0.0
C  C99  1  0.47912454  0.69893546  0.86616689  1  0.225791  0.000151  0.095342  0.172594  9.7e-05  4.00403  0.0
C  C100  1  0.44064969  0.12747458  0.59759708  1  -0.019322  -2e-06  -0.088992  -0.165482  -1e-06  3.977089  0.0
C  C101  1  0.55973585  0.37249198  0.09783987  1  -0.017786  -0.00079  -0.08861  -0.164393  -0.00056  3.977954  -0.001
C  C102  1  0.55934946  0.87253878  0.40241261  1  -0.019573  2e-06  -0.089082  -0.165623  1e-06  3.976935  0.0
C  C103  1  0.44024486  0.62749928  0.90216140  1  -0.018089  0.00079  -0.088609  -0.164384  0.00056  3.977815  0.001
C  C104  1  0.54957543  0.09246207  0.56916497  1  0.066321  -1e-06  -0.077716  -0.069344  -0.0  3.951427  0.0
C  C105  1  0.45093655  0.40743965  0.06933985  1  0.004065  -0.00101  -0.078037  -0.069419  -0.000616  3.950348  -0.001
C  C106  1  0.45041402  0.90753491  0.43083859  1  0.066291  0.0  -0.077673  -0.069327  0.0  3.951844  0.0
C  C107  1  0.54904389  0.59254450  0.93065491  1  0.005401  0.001011  -0.078179  -0.0696  0.000617  3.950792  0.001
C  C108  1  0.69746700  0.12902322  0.57606446  1  -0.036821  -1e-06  -0.013005  -0.025373  -1e-06  3.963227  0.0
C  C109  1  0.30303186  0.37077567  0.07613812  1  0.025034  0.000136  -0.014871  -0.028364  7.3e-05  3.962477  0.0
C  C110  1  0.30253691  0.87098090  0.42393299  1  -0.036167  2e-06  -0.012819  -0.025157  1e-06  3.963012  0.0
C  C111  1  0.69695551  0.62919925  0.92385780  1  0.025372  -0.000137  -0.014868  -0.028447  -7.5e-05  3.96239  0.0
C  C112  1  0.73492676  0.20210289  0.61170069  1  -0.049682  2e-06  -0.080712  -0.075917  1e-06  3.964551  0.0
C  C113  1  0.26541482  0.29769063  0.11177822  1  -0.010243  0.00094  -0.080739  -0.074976  0.000563  3.964059  0.001
C  C114  1  0.26506638  0.79789623  0.38829024  1  -0.049799  -2e-06  -0.080723  -0.075963  -2e-06  3.964007  0.0
C  C115  1  0.73456521  0.70229707  0.88822190  1  -0.010453  -0.00094  -0.080621  -0.074849  -0.000563  3.963496  -0.001
C  C116  1  0.62643462  0.23708018  0.64084281  1  0.017633  -2e-06  -0.091946  -0.171024  -1e-06  3.995213  0.0
C  C117  1  0.37379619  0.26275819  0.14098902  1  0.014101  0.000652  -0.091455  -0.170596  0.000469  3.996476  0.001
C  C118  1  0.37358377  0.76294247  0.35914583  1  0.017018  2e-06  -0.09197  -0.171187  1e-06  3.994988  0.0
C  C119  1  0.62618179  0.73723022  0.85901110  1  0.01356  -0.000652  -0.091387  -0.170366  -0.000469  3.996515  -0.001
C  C120  1  0.81325881  0.08702727  0.54661279  1  1.530291  0.0  0.213946  0.567661  1e-06  4.186904  0.0
C  C121  1  0.18761707  0.41277303  0.04654101  1  1.552935  0.000828  0.212984  0.569084  0.000788  4.181028  0.001
C  C122  1  0.18675917  0.91299325  0.45338695  1  1.530299  -1e-06  0.213736  0.567444  -1e-06  4.186572  0.0
C  C123  1  0.81235899  0.58720542  0.95345681  1  1.552524  -0.000829  0.212884  0.569116  -0.000788  4.18112  -0.001
C  C124  1  0.19555999  0.31817884  0.77133803  1  0.281382  0.000254  0.094432  0.172213  0.000164  4.011063  0.0
C  C125  1  0.80463124  0.18160024  0.27148504  1  0.277929  -0.0  0.09315  0.170057  0.0  4.013039  0.0
C  C126  1  0.80444585  0.68184094  0.22866630  1  0.28118  -0.000253  0.094426  0.171975  -0.000164  4.011419  0.0
C  C127  1  0.19535605  0.81840811  0.72851814  1  0.245536  -0.0  0.093359  0.170398  -0.0  4.01282  0.0
C  C128  1  0.05313375  0.29167684  0.78979137  1  -0.024009  0.000686  -0.089321  -0.165191  0.000488  3.966775  0.001
C  C129  1  0.94700369  0.20796047  0.28998235  1  -0.019678  2e-06  -0.088566  -0.163429  2e-06  3.967014  0.0
C  C130  1  0.94687344  0.70833299  0.21021143  1  -0.024198  -0.000687  -0.089282  -0.164885  -0.000488  3.966464  -0.001
C  C131  1  0.05297665  0.79205142  0.71001892  1  0.011985  -2e-06  -0.088737  -0.163721  -2e-06  3.966733  0.0
C  C132  1  0.01274094  0.32694860  0.83673995  1  0.014911  0.001244  -0.076063  -0.063607  0.000776  3.941428  0.001
C  C133  1  0.98718056  0.17272050  0.33697624  1  0.007855  3e-06  -0.076623  -0.066539  2e-06  3.944242  0.0
C  C134  1  0.98725492  0.67305338  0.16326132  1  0.014932  -0.001242  -0.075945  -0.063488  -0.000775  3.941323  -0.001
C  C135  1  0.01281477  0.82729569  0.66302197  1  0.007461  -3e-06  -0.076626  -0.0666  -2e-06  3.943602  0.0
C  C136  1  0.11335283  0.38947975  0.86473109  1  0.011391  0.00034  -0.014688  -0.03064  0.000239  3.958957  0.0
C  C137  1  0.88639454  0.11031175  0.36495841  1  0.012731  2e-06  -0.012304  -0.025923  1e-06  3.958238  0.0
C  C138  1  0.88665228  0.61050802  0.13527975  1  0.01209  -0.000344  -0.015012  -0.030871  -0.000241  3.959408  0.0
C  C139  1  0.11363419  0.88969671  0.63503903  1  0.01369  -1e-06  -0.012409  -0.025991  -1e-06  3.95809  0.0
C  C140  1  0.25579890  0.41539510  0.84571549  1  0.009521  -0.000713  -0.077991  -0.067416  -0.000435  3.957754  -0.001
C  C141  1  0.74398793  0.08446354  0.34591107  1  0.012582  -1e-06  -0.07874  -0.069711  -0.0  3.959703  0.0
C  C142  1  0.74420853  0.58458770  0.15429956  1  -0.040187  0.000722  -0.078157  -0.067777  0.000435  3.957493  0.001
C  C143  1  0.25602484  0.91553563  0.65409365  1  0.012549  1e-06  -0.078667  -0.069505  0.0  3.960105  0.0
C  C144  1  0.29765375  0.37967187  0.79922622  1  -0.093058  -0.000733  -0.090338  -0.167054  -0.000506  3.993205  -0.001
C  C145  1  0.70238822  0.12016638  0.29937495  1  -0.091339  1e-06  -0.089975  -0.165561  1e-06  3.991571  0.0
C  C146  1  0.70234880  0.62033651  0.20078500  1  -0.043754  0.000724  -0.090276  -0.166896  0.000506  3.993247  0.001
C  C147  1  0.29760410  0.87983416  0.70062938  1  -0.091352  -1e-06  -0.090074  -0.165753  -0.0  3.99175  0.0
C  C148  1  0.06885966  0.42962748  0.91443200  1  1.553705  0.000271  0.215701  0.574183  0.00025  4.168778  0.0
C  C149  1  0.93078029  0.07031939  0.41477559  1  1.551042  0.0  0.216723  0.572668  0.0  4.175707  0.0
C  C150  1  0.93113058  0.57035101  0.08557845  1  1.553273  -0.00027  0.215989  0.574563  -0.00025  4.168975  0.0
C  C151  1  0.06928270  0.92971973  0.58522185  1  1.550331  -1e-06  0.216863  0.572532  -1e-06  4.17484  0.0
C  C152  1  0.35889262  0.23599536  0.48605864  1  1.373244  1e-06  0.242926  0.483706  1e-06  4.043241  0.0
C  C153  1  0.64162425  0.26453906  0.98604609  1  1.374919  0.000255  0.2436  0.48517  0.000195  4.041421  0.0
C  C154  1  0.64112328  0.76400310  0.51393804  1  1.373798  -1e-06  0.242777  0.48358  -1e-06  4.042876  0.0
C  C155  1  0.35838113  0.73543875  0.01395250  1  1.374285  -0.000255  0.243607  0.485548  -0.000195  4.041493  0.0
C  C156  1  0.40258096  0.19060964  0.43690175  1  -0.06979  1e-06  -0.161876  -0.292569  1e-06  3.904647  0.0
C  C157  1  0.59777420  0.30975939  0.93686378  1  -0.041696  -0.000144  -0.162089  -0.293645  -6.7e-05  3.904614  0.0
C  C158  1  0.59743917  0.80938812  0.56309378  1  -0.069432  -1e-06  -0.16191  -0.292588  -1e-06  3.904672  0.0
C  C159  1  0.40220828  0.69022975  0.06313519  1  -0.040817  0.000144  -0.162164  -0.294017  6.7e-05  3.904659  0.0
C  C160  1  0.55465879  0.24412250  0.42460553  1  -0.029046  1e-06  -0.160083  -0.150213  1e-06  3.925331  0.0
C  C161  1  0.44574841  0.25614620  0.92463520  1  -0.047559  1e-06  -0.160484  -0.150996  -8e-06  3.925681  0.0
C  C162  1  0.44535480  0.75588094  0.57538694  1  -0.028775  -1e-06  -0.160096  -0.150084  -1e-06  3.925146  0.0
C  C163  1  0.55424281  0.74384865  0.07536722  1  -0.045881  -1e-06  -0.160401  -0.150694  8e-06  3.925853  0.0
C  C164  1  0.55264212  0.34087106  0.45089500  1  0.311829  1e-06  -0.055787  -0.058016  1e-06  3.897838  0.0
C  C165  1  0.44799347  0.15944666  0.95095650  1  0.302719  1.9e-05  -0.054656  -0.055942  1.3e-05  3.895832  0.0
C  C166  1  0.44737120  0.65913095  0.54909784  1  0.312926  -1e-06  -0.055686  -0.057944  -1e-06  3.897823  0.0
C  C167  1  0.55200782  0.84053257  0.04903673  1  0.302769  -1.9e-05  -0.054683  -0.055983  -1.3e-05  3.896028  0.0
C  C168  1  0.42756689  0.38462982  0.53374712  1  0.249652  1e-06  -0.128751  -0.257265  1e-06  3.958802  0.0
C  C169  1  0.57337136  0.11588602  0.03379177  1  0.292714  9e-06  -0.12889  -0.25718  1e-06  3.956964  0.0
C  C170  1  0.57244314  0.61536650  0.46624649  1  0.249736  -1e-06  -0.128802  -0.257108  -1e-06  3.958821  0.0
C  C171  1  0.42664368  0.88407973  0.96619649  1  0.290998  -9e-06  -0.128836  -0.257093  -1e-06  3.956549  0.0
N  N172  1  0.36459688  0.23304018  0.66202645  1  -1.257639  -2e-05  -0.22478  0.031565  -1.7e-05  3.807454  0.0
N  N173  1  0.63563733  0.26681901  0.16222065  1  -1.251541  -1.9e-05  -0.225371  0.032022  -9e-06  3.807431  0.0
N  N174  1  0.63541934  0.76698816  0.33797329  1  -1.258151  2e-05  -0.22496  0.031113  1.7e-05  3.80744  0.0
N  N175  1  0.36433917  0.73317864  0.83778139  1  -1.251343  1.9e-05  -0.22519  0.032511  9e-06  3.806773  0.0
N  N176  1  0.23775574  0.28397292  0.72304363  1  -1.250607  4.1e-05  -0.224437  0.036018  1.8e-05  3.818045  0.0
N  N177  1  0.76253434  0.21585038  0.22320512  1  -1.251369  1e-05  -0.222472  0.038376  8e-06  3.820222  0.0
N  N178  1  0.76226361  0.71605472  0.27695763  1  -1.250561  -4.1e-05  -0.224387  0.036092  -1.8e-05  3.817506  0.0
N  N179  1  0.23743889  0.78415296  0.77679806  1  -1.251197  -9e-06  -0.222597  0.038414  -8e-06  3.819949  0.0
N  N180  1  0.44930247  0.31822519  0.49320751  1  -1.19449  2e-06  -0.283598  -0.071998  1e-06  3.636736  0.0
N  N181  1  0.55145348  0.18221981  0.99323034  1  -1.193843  8.7e-05  -0.283681  -0.072283  4.1e-05  3.635198  0.0
N  N182  1  0.55071479  0.68177470  0.50678533  1  -1.195205  -2e-06  -0.283536  -0.072134  -1e-06  3.637071  0.0
N  N183  1  0.44855135  0.81775516  0.00676328  1  -1.193519  -8.7e-05  -0.283846  -0.072684  -4e-05  3.635594  0.0
Cl  Cl184  1  0.66385842  0.18415974  0.81282773  1  -0.646496  -3.7e-05  -0.390247  -0.467342  -1e-05  1.383498  0.0
Cl  Cl185  1  0.33607959  0.31574224  0.31287038  1  -0.646091  2.3e-05  -0.390182  -0.467225  1.3e-05  1.383276  0.0
Cl  Cl186  1  0.33614662  0.81586715  0.18717584  1  -0.646475  3.7e-05  -0.390249  -0.467333  1e-05  1.383412  0.0
Cl  Cl187  1  0.66390307  0.68427037  0.68713204  1  -0.646318  -2.2e-05  -0.390145  -0.46719  -1.3e-05  1.38333  0.0
O  O188  1  0.77155744  0.00556602  0.52682064  1  -1.105773  9.2e-05  -0.309681  -0.529711  5.8e-05  2.412782  0.0
O  O189  1  0.22919201  0.49412475  0.02650495  1  -1.114642  0.082401  -0.312635  -0.53613  0.053477  2.410773  0.075
O  O190  1  0.22843884  0.99444377  0.47317910  1  -1.106239  -9.1e-05  -0.309666  -0.529808  -5.7e-05  2.413503  0.0
O  O191  1  0.77077930  0.50586862  0.97350435  1  -1.114798  -0.082378  -0.312484  -0.536075  -0.053459  2.410683  -0.075
O  O192  1  0.94072195  0.13418929  0.54439913  1  -1.086012  -9.3e-05  -0.306807  -0.502093  -5.8e-05  2.325966  0.0
O  O193  1  0.05965482  0.36597210  0.04415661  1  -1.104266  -0.085306  -0.310457  -0.509398  -0.05537  2.321566  -0.077
O  O194  1  0.05928372  0.86580702  0.45559793  1  -1.085561  9.4e-05  -0.306746  -0.501956  5.9e-05  2.325257  0.0
O  O195  1  0.94032873  0.63399997  0.95583624  1  -1.104066  0.085293  -0.310505  -0.509485  0.055365  2.321758  0.077
O  O196  1  0.96803470  0.38038834  0.93990900  1  -1.105239  -0.082988  -0.306174  -0.510467  -0.053899  2.340793  -0.075
O  O197  1  0.03116730  0.12007467  0.44007251  1  -1.101152  -8.9e-05  -0.302813  -0.503345  -5.6e-05  2.345617  0.0
O  O198  1  0.03193169  0.61959648  0.06009495  1  -1.104514  0.082978  -0.306293  -0.51075  0.053894  2.341318  0.075
O  O199  1  0.96886118  0.87994374  0.55992493  1  -1.100016  9.1e-05  -0.302851  -0.503266  5.7e-05  2.344223  0.0
O  O200  1  0.13674542  0.51082986  0.92705643  1  -1.112859  0.08656  -0.309503  -0.523742  0.056256  2.403246  0.079
O  O201  1  0.86291617  0.98911054  0.42720870  1  -1.108454  9.5e-05  -0.306556  -0.517507  6e-05  2.40564  0.0
O  O202  1  0.86325994  0.48914227  0.07295900  1  -1.113039  -0.086553  -0.309531  -0.523791  -0.056251  2.402859  -0.079
O  O203  1  0.13712690  0.01091574  0.57278797  1  -1.109066  -9.4e-05  -0.30661  -0.517339  -5.9e-05  2.406347  0.0
O  O204  1  0.25629856  0.20708525  0.51603692  1  -1.170253  3e-06  -0.308847  -0.517552  2e-06  2.28849  0.0
O  O205  1  0.74414730  0.29366899  0.01601652  1  -1.172706  0.001402  -0.309406  -0.519103  0.000746  2.284691  0.0
O  O206  1  0.74373479  0.79291326  0.48396320  1  -1.170561  -3e-06  -0.308787  -0.517491  -1e-06  2.287894  0.0
O  O207  1  0.25584976  0.70630525  0.98398514  1  -1.17259  -0.001401  -0.309415  -0.51929  -0.000746  2.284561  0.0
