# generated using pymatgen
data_Al2H17C35O12F
_symmetry_space_group_name_H-M   'P 1'
_cell_length_a   6.64256634
_cell_length_b   19.55361652
_cell_length_c   20.73560324
_cell_angle_alpha   95.30989876
_cell_angle_beta   89.92186887
_cell_angle_gamma   89.94757397
_symmetry_Int_Tables_number   1
_chemical_formula_structural   Al2H17C35O12F
_chemical_formula_sum   'Al4 H34 C70 O24 F2'
_cell_volume   2681.70708949
_cell_formula_units_Z   2
loop_
 _symmetry_equiv_pos_site_id
 _symmetry_equiv_pos_as_xyz
  1  'x, y, z'
loop_
 _atom_site_type_symbol
 _atom_site_label
 _atom_site_symmetry_multiplicity
 _atom_site_fract_x
 _atom_site_fract_y
 _atom_site_fract_z
 _atom_site_occupancy
 _atom_site_pbe_bader_charge
 _atom_site_pbe_bader_spin_density
 _atom_site_pbe_cm5_charge
 _atom_site_pbe_ddec_charge
 _atom_site_pbe_ddec_spin_density
 _atom_site_pbe_ddec_sum_bond_order
 _atom_site_pbe_magmom
Al  Al0  1  0.12772377  0.49710835  0.50139177  1  2.499712  0  0.400055  1.635667  0  2.564459  0
Al  Al1  1  0.62771796  0.50298289  0.49859905  1  2.500174  0  0.400267  1.635998  0  2.564091  0
Al  Al2  1  0.64751113  0.99842130  0.99985913  1  2.502604  0  0.398502  1.641297  0  2.583017  0
Al  Al3  1  0.14750311  0.00136821  0.00008175  1  2.502197  0  0.398319  1.640624  0  2.58443  0
H  H4  1  0.95740490  0.77308741  0.97823351  1  0.109707  0  0.106472  0.112965  0  1.00796  0
H  H5  1  0.45050727  0.22672072  0.02144271  1  0.100485  0  0.10616  0.112695  0  1.008994  0
H  H6  1  0.92532574  0.58348513  0.81700190  1  0.086211  0  0.110867  0.114887  0  0.984412  0
H  H7  1  0.42380471  0.41638203  0.18273736  1  0.08306  0  0.110836  0.114901  0  0.983705  0
H  H8  1  0.96385317  0.65675681  0.91758592  1  0.051531  0  0.106284  0.104936  0  0.989779  0
H  H9  1  0.45932731  0.34300991  0.08205755  1  0.046004  0  0.106091  0.10481  0  0.990049  0
H  H10  1  0.86723519  0.86495621  0.80021186  1  0.067712  0  0.104505  0.106098  0  1.013522  0
H  H11  1  0.37153934  0.13484917  0.20003664  1  0.061669  0  0.104284  0.105587  0  1.014407  0
H  H12  1  0.87531793  0.72196060  0.52931666  1  0.042423  0  0.107756  0.108773  0  0.987272  0
H  H13  1  0.37713212  0.27821527  0.47068412  1  0.042669  0  0.107592  0.10847  0  0.987989  0
H  H14  1  0.90872404  0.85364304  0.70618974  1  0.076796  0  0.102047  0.099133  0  1.01584  0
H  H15  1  0.40993086  0.14634617  0.29392254  1  0.097649  0  0.101803  0.099393  0  1.015478  0
H  H16  1  0.89219893  0.83931992  0.58739775  1  0.036562  0  0.104074  0.100312  0  0.991143  0
H  H17  1  0.39341593  0.16079390  0.41268456  1  0.039181  0  0.10389  0.099919  0  0.99072  0
H  H18  1  0.15593846  0.31808469  0.59495432  1  0.109214  0  0.108394  0.11516  0  1.000577  0
H  H19  1  0.65559765  0.68194443  0.40503327  1  0.054359  0  0.108242  0.115018  0  1.000642  0
H  H20  1  0.57046449  0.38899587  0.66008516  1  0.082905  0  0.109963  0.113423  0  1.004812  0
H  H21  1  0.07100016  0.61111074  0.33989461  1  0.085861  0  0.10992  0.113778  0  1.005149  0
H  H22  1  0.41930162  0.34775653  0.75844090  1  0.08487  0  0.109792  0.117027  0  0.977217  0
H  H23  1  0.92020031  0.65252474  0.24167850  1  0.080252  0  0.109846  0.116802  0  0.977249  0
H  H24  1  0.43393233  0.27283649  0.84813104  1  0.076096  0  0.104776  0.111401  0  0.995186  0
H  H25  1  0.93483205  0.72760322  0.15207385  1  0.078166  0  0.105157  0.110565  0  0.996465  0
H  H26  1  0.17240906  0.09894193  0.83043411  1  0.091152  0  0.111841  0.123195  0  0.989128  0
H  H27  1  0.67412173  0.90069322  0.16944885  1  0.094856  0  0.111776  0.122603  0  0.988619  0
H  H28  1  0.32379199  0.13957435  0.73000793  1  0.07503  0  0.10462  0.108809  0  0.98658  0
H  H29  1  0.82387324  0.86043611  0.27007035  1  0.074575  0  0.104668  0.108723  0  0.986727  0
H  H30  1  0.31512278  0.21788316  0.64298925  1  0.063157  0  0.103045  0.10665  0  0.992694  0
H  H31  1  0.81460046  0.78217017  0.35712633  1  0.064374  0  0.103092  0.106895  0  0.992917  0
H  H32  1  0.64667408  0.49460916  0.64856022  1  0.611273  0  0.324018  0.365643  0  0.927008  0
H  H33  1  0.14687028  0.50553390  0.35146438  1  0.608459  0  0.324207  0.36609  0  0.92624  0
H  H34  1  0.37510949  0.54216154  0.57731492  1  0.637441  0  0.355111  0.438184  0  0.844738  0
H  H35  1  0.87597824  0.45787401  0.42271150  1  0.634234  0  0.35497  0.438312  0  0.844343  0
H  H36  1  0.39544705  0.96090681  0.92167516  1  0.61981  0  0.356276  0.433791  0  0.848789  0
H  H37  1  0.89394560  0.03891835  0.07825232  1  0.621815  0  0.356268  0.434044  0  0.848874  0
C  C38  1  0.37438430  0.58584660  0.42109385  1  1.538929  0  0.264784  0.633992  0  4.097985  0
C  C39  1  0.87439267  0.41421378  0.57887151  1  1.554369  0  0.264748  0.634385  0  4.097572  0
C  C40  1  0.37959387  0.39651939  0.42578643  1  1.592092  0  0.273662  0.657243  0  4.088332  0
C  C41  1  0.87829550  0.60358573  0.57417742  1  1.592766  0  0.273108  0.655547  0  4.090004  0
C  C42  1  0.94562159  0.70269980  0.89200340  1  0.027749  0  -0.083199  -0.118603  0  3.989872  0
C  C43  1  0.44234186  0.29707716  0.10773758  1  0.034657  0  -0.082603  -0.118413  0  3.988533  0
C  C44  1  0.90988184  0.82511083  0.89155506  1  0.03222  0  -0.007303  -0.017268  0  3.991541  0
C  C45  1  0.40842584  0.17466053  0.10841235  1  -0.046786  0  -0.007377  -0.018475  0  3.992551  0
C  C46  1  0.87944680  0.72842569  0.58213892  1  0.019636  0  -0.085216  -0.10178  0  4.000622  0
C  C47  1  0.38120793  0.27171465  0.41787399  1  0.020691  0  -0.085217  -0.101651  0  4.001892  0
C  C48  1  0.88883627  0.79435326  0.61479053  1  -0.022081  0  -0.09345  -0.083466  0  4.074558  0
C  C49  1  0.39024803  0.20575467  0.38526777  1  -0.027281  0  -0.093424  -0.082767  0  4.074234  0
C  C50  1  0.89690272  0.80211441  0.68164216  1  -0.026493  0  -0.089995  -0.12976  0  4.010874  0
C  C51  1  0.39831852  0.19792537  0.31840847  1  -0.044621  0  -0.0896  -0.130449  0  4.012118  0
C  C52  1  0.89402299  0.74483649  0.71842105  1  -0.051454  0  0.001886  0.039761  0  3.941212  0
C  C53  1  0.39539197  0.25514526  0.28155715  1  -0.055591  0  0.001877  0.039483  0  3.941995  0
C  C54  1  0.88436992  0.67702733  0.68538469  1  0.048712  0  0.006465  0.038053  0  3.91353  0
C  C55  1  0.38559324  0.32299250  0.31455174  1  0.049368  0  0.006766  0.038368  0  3.913488  0
C  C56  1  0.90388605  0.75384922  0.78880862  1  -0.049398  0  0.002303  0.041786  0  3.951445  0
C  C57  1  0.40476859  0.24604474  0.21115539  1  0.071645  0  0.002481  0.042603  0  3.951037  0
C  C58  1  0.92594179  0.69494570  0.82381541  1  0.112172  0  -0.00698  0.073306  0  4.036704  0
C  C59  1  0.42494382  0.30492629  0.17601885  1  0.020577  0  -0.007964  0.071964  0  4.036829  0
C  C60  1  0.91756614  0.62848060  0.78961617  1  -0.064681  0  -0.074754  -0.138605  0  3.965867  0
C  C61  1  0.41686800  0.37143040  0.21019058  1  0.056305  0  -0.074501  -0.137799  0  3.964905  0
C  C62  1  0.88694856  0.61926611  0.72414061  1  -0.031018  0  -0.011738  -0.068765  0  3.972974  0
C  C63  1  0.38735645  0.38071294  0.27574498  1  -0.105386  0  -0.012223  -0.070068  0  3.974003  0
C  C64  1  0.89186741  0.81872860  0.82468724  1  -0.000245  0  -0.085555  -0.158802  0  3.960904  0
C  C65  1  0.39361382  0.18109560  0.17537835  1  -0.066528  0  -0.086011  -0.15864  0  3.961669  0
C  C66  1  0.94044418  0.76686798  0.92575412  1  -0.15773  0  -0.084105  -0.104925  0  3.99143  0
C  C67  1  0.43604927  0.23290276  0.07400577  1  -0.070826  0  -0.084083  -0.104701  0  3.992029  0
C  C68  1  0.87943918  0.67057236  0.61634217  1  -0.064502  0  -0.004387  -0.066635  0  3.915879  0
C  C69  1  0.38116752  0.32952674  0.38361762  1  -0.062463  0  -0.004714  -0.067186  0  3.915875  0
C  C70  1  0.02855067  0.31420850  0.62762769  1  -0.121213  0  -0.077626  -0.137268  0  3.914218  0
C  C71  1  0.52844655  0.68586694  0.37238805  1  -0.00168  0  -0.077211  -0.136561  0  3.914515  0
C  C72  1  0.86505948  0.35876719  0.62353820  1  0.052653  0  -0.015819  -0.031366  0  4.015567  0
C  C73  1  0.36514630  0.64130457  0.37644052  1  0.003155  0  -0.016  -0.031501  0  4.016476  0
C  C74  1  0.69936632  0.35525757  0.66479996  1  -0.055229  0  -0.079599  -0.14747  0  3.939144  0
C  C75  1  0.19975031  0.64485989  0.33520588  1  -0.06021  0  -0.079723  -0.148332  0  3.940478  0
C  C76  1  0.70157180  0.31144417  0.71457185  1  -0.00921  0  -0.006536  0.077626  0  4.038556  0
C  C77  1  0.20205948  0.68873708  0.28548540  1  -0.00325  0  -0.006564  0.077278  0  4.039025  0
C  C78  1  0.86870555  0.26601060  0.71920301  1  -0.015106  0  0.004595  0.004136  0  3.901283  0
C  C79  1  0.36897289  0.73417558  0.28089206  1  -0.056619  0  0.004578  0.003421  0  3.901646  0
C  C80  1  0.03071755  0.26588457  0.67359592  1  0.062894  0  -0.006832  0.073882  0  4.041915  0
C  C81  1  0.53064375  0.73425664  0.32648532  1  0.058385  0  -0.007058  0.073516  0  4.042643  0
C  C82  1  0.54539287  0.31259424  0.76239663  1  -0.0321  0  -0.082999  -0.120015  0  3.992805  0
C  C83  1  0.04617197  0.68766352  0.23769735  1  -0.049871  0  -0.083226  -0.11928  0  3.991608  0
C  C84  1  0.55347441  0.27142903  0.81203512  1  -0.018436  0  -0.091323  -0.118462  0  4.022449  0
C  C85  1  0.05421502  0.72891176  0.18811889  1  -0.002618  0  -0.091387  -0.118282  0  4.022672  0
C  C86  1  0.71738499  0.22449890  0.81676380  1  0.01964  0  -0.018972  -0.045114  0  4.073471  0
C  C87  1  0.21789322  0.77586053  0.18344076  1  0.009271  0  -0.019316  -0.044566  0  4.071254  0
C  C88  1  0.87577072  0.22186657  0.76986270  1  -0.029569  0  0.004093  0.018744  0  3.931092  0
C  C89  1  0.37616416  0.77835356  0.23026934  1  0.027662  0  0.004414  0.021276  0  3.927143  0
C  C90  1  0.04201920  0.17597252  0.77429031  1  -0.012682  0  -0.014019  0.058249  0  4.061243  0
C  C91  1  0.54251542  0.82409946  0.22581493  1  -0.019053  0  -0.013906  0.057309  0  4.061732  0
C  C92  1  0.19790783  0.17488756  0.72629720  1  -0.034982  0  -0.089384  -0.127555  0  4.020984  0
C  C93  1  0.69802924  0.82516201  0.27377901  1  -0.037601  0  -0.089397  -0.127418  0  4.022326  0
C  C94  1  0.19275824  0.21799984  0.67816906  1  -0.036885  0  -0.092325  -0.137901  0  4.025179  0
C  C95  1  0.69260753  0.78207701  0.32193004  1  -0.038005  0  -0.092802  -0.138662  0  4.026473  0
C  C96  1  0.72923749  0.17957543  0.86557355  1  0.447499  0  0.109391  0.226208  0  3.997234  0
C  C97  1  0.23007334  0.82087601  0.13471761  1  0.425557  0  0.108684  0.223216  0  4.00005  0
C  C98  1  0.88925048  0.13363962  0.87049589  1  0.065941  0  -0.024373  -0.152185  0  4.015635  0
C  C99  1  0.39053515  0.86647558  0.12966444  1  0.031201  0  -0.024058  -0.150235  0  4.017513  0
C  C100  1  0.04621525  0.13373144  0.82526325  1  -0.039363  0  -0.078097  -0.126919  0  3.944732  0
C  C101  1  0.54740202  0.86621588  0.17474959  1  0.015346  0  -0.078349  -0.126967  0  3.945819  0
C  C102  1  0.39874986  0.10550101  0.07099061  1  1.595861  0  0.281483  0.66978  0  4.068596  0
C  C103  1  0.90177391  0.89422114  0.92905902  1  1.594141  0  0.279457  0.665564  0  4.070787  0
C  C104  1  0.39603216  0.91785377  0.08061713  1  1.583393  0  0.266644  0.659391  0  4.106728  0
C  C105  1  0.89359066  0.08205134  0.91934727  1  1.57505  0  0.265544  0.658199  0  4.108747  0
C  C106  1  0.84622649  0.54685728  0.69808783  1  1.509649  0  0.228924  0.578114  0  4.127098  0
C  C107  1  0.34676473  0.45313790  0.30194128  1  1.513522  0  0.229134  0.578196  0  4.126709  0
O  O108  1  0.54753053  0.42609883  0.43871826  1  -1.258881  0  -0.229726  -0.587701  0  2.303629  0
O  O109  1  0.04645231  0.57387517  0.56141066  1  -1.256973  0  -0.229929  -0.587575  0  2.302797  0
O  O110  1  0.20706864  0.55708595  0.43465165  1  -1.26653  0  -0.248171  -0.625905  0  2.364326  0
O  O111  1  0.70714589  0.44309740  0.56540970  1  -1.267074  0  -0.248068  -0.626021  0  2.364011  0
O  O112  1  0.21068462  0.41674775  0.44857279  1  -1.254239  0  -0.229052  -0.585979  0  2.388092  0
O  O113  1  0.70974480  0.58345232  0.55126889  1  -1.254964  0  -0.22869  -0.585132  0  2.388577  0
O  O114  1  0.04657409  0.43091109  0.55937927  1  -1.236878  0  -0.225342  -0.563591  0  2.36493  0
O  O115  1  0.54647585  0.56904553  0.44051399  1  -1.236849  0  -0.225394  -0.563588  0  2.364803  0
O  O116  1  0.37859055  0.50784470  0.54024702  1  -1.437058  0  -0.448007  -0.982044  0  2.168446  0
O  O117  1  0.87896156  0.49221524  0.45975925  1  -1.433661  0  -0.448015  -0.982386  0  2.168357  0
O  O118  1  0.22786631  0.94182235  0.06423200  1  -1.252744  0  -0.237117  -0.595713  0  2.368725  0
O  O119  1  0.72447276  0.06079411  0.93790158  1  -1.244583  0  -0.237004  -0.59437  0  2.373274  0
O  O120  1  0.56632770  0.07629538  0.05736355  1  -1.256567  0  -0.229736  -0.589759  0  2.324741  0
O  O121  1  0.07024495  0.92114033  0.94529475  1  -1.261573  0  -0.228364  -0.58684  0  2.325682  0
O  O122  1  0.56946175  0.93545073  0.06180094  1  -1.248146  0  -0.236853  -0.589434  0  2.327447  0
O  O123  1  0.06640000  0.06153445  0.93596504  1  -1.251454  0  -0.236425  -0.590295  0  2.328995  0
O  O124  1  0.72961927  0.92030824  0.94229049  1  -1.254617  0  -0.229166  -0.584894  0  2.302113  0
O  O125  1  0.22604469  0.08166697  0.05520250  1  -1.261188  0  -0.229248  -0.584656  0  2.301306  0
O  O126  1  0.39747391  0.99285549  0.96033381  1  -1.422267  0  -0.447814  -0.987842  0  2.194905  0
O  O127  1  0.89718628  0.00697214  0.03959718  1  -1.424405  0  -0.447745  -0.98813  0  2.194844  0
O  O128  1  0.96396557  0.49915236  0.70075797  1  -1.119583  0  -0.284256  -0.473345  0  2.090768  0
O  O129  1  0.65662760  0.53983361  0.67415633  1  -1.116725  0  -0.336375  -0.481114  0  2.257536  0
O  O130  1  0.46495692  0.50067018  0.29948901  1  -1.121319  0  -0.284058  -0.472708  0  2.091021  0
O  O131  1  0.15684295  0.46035709  0.32576954  1  -1.11384  0  -0.336296  -0.481185  0  2.255855  0
F  F132  1  0.57836883  0.18322899  0.91018109  1  -0.643936  0  -0.08454  -0.124431  0  1.384138  0
F  F133  1  0.07949610  0.81764732  0.09013156  1  -0.640136  0  -0.084117  -0.123725  0  1.381097  0
