# generated using pymatgen
data_CuP2H12C15NO6
_symmetry_space_group_name_H-M   'P 1'
_cell_length_a   7.12648559
_cell_length_b   10.60160534
_cell_length_c   13.10302785
_cell_angle_alpha   67.22983033
_cell_angle_beta   76.22918099
_cell_angle_gamma   72.19193490
_symmetry_Int_Tables_number   1
_chemical_formula_structural   CuP2H12C15NO6
_chemical_formula_sum   'Cu2 P4 H24 C30 N2 O12'
_cell_volume   860.96070624
_cell_formula_units_Z   2
loop_
 _symmetry_equiv_pos_site_id
 _symmetry_equiv_pos_as_xyz
  1  'x, y, z'
loop_
 _atom_site_type_symbol
 _atom_site_label
 _atom_site_symmetry_multiplicity
 _atom_site_fract_x
 _atom_site_fract_y
 _atom_site_fract_z
 _atom_site_occupancy
 _atom_site_pbe_bader_charge
 _atom_site_pbe_bader_spin_density
 _atom_site_pbe_cm5_charge
 _atom_site_pbe_ddec_charge
 _atom_site_pbe_ddec_spin_density
 _atom_site_pbe_ddec_sum_bond_order
 _atom_site_pbe_magmom
Cu  Cu0  1  0.71464551  0.45004819  0.64367478  1  1.162639  -0.615735  0.779294  1.015092  -0.781104  2.096045  -0.616
Cu  Cu1  1  0.28534977  0.54994967  0.35632454  1  1.162671  0.615734  0.779311  1.01509  0.781104  2.096061  0.616
P  P2  1  0.28513860  0.65900030  0.59727099  1  3.373338  -0.004319  0.368016  1.301728  -0.00747  5.307961  -0.004
P  P3  1  0.71485782  0.34099858  0.40272938  1  3.373349  0.004319  0.368039  1.301764  0.007471  5.307909  0.004
P  P4  1  0.17094690  0.29637060  0.58036546  1  3.394565  -0.001292  0.369603  1.301334  -0.002416  5.298741  -0.003
P  P5  1  0.82905711  0.70362721  0.41963421  1  3.39465  0.001292  0.369559  1.301299  0.002416  5.298755  0.003
H  H6  1  0.99599439  0.60954858  0.61256918  1  0.665897  -0.000262  0.30968  0.398012  -0.000176  0.939999  0.0
H  H7  1  0.00400605  0.39045133  0.38743109  1  0.665889  0.000262  0.309673  0.397997  0.000176  0.940022  0.0
H  H8  1  0.48008528  0.31756637  0.58067557  1  0.671734  -0.000406  0.303848  0.389439  -0.000345  0.968521  -0.001
H  H9  1  0.51991581  0.68243146  0.41932373  1  0.671748  0.000406  0.303826  0.389431  0.000345  0.968519  0.001
H  H10  1  0.81178808  0.14786404  0.69804778  1  0.147156  -0.00275  0.122531  0.094348  -0.001314  1.031725  -0.002
H  H11  1  0.18821411  0.85213060  0.30195386  1  0.147067  0.00275  0.122513  0.094319  0.001313  1.031745  0.002
H  H12  1  0.73148866  0.93861979  0.85213364  1  0.108147  -0.001101  0.112183  0.118516  -0.00054  1.0085  -0.001
H  H13  1  0.26850929  0.06137904  0.14786883  1  0.108185  0.001101  0.112198  0.118538  0.00054  1.008506  0.001
H  H14  1  0.32406325  0.22409715  0.01496949  1  0.071331  -0.001206  0.112974  0.117198  -0.000596  1.006964  -0.001
H  H15  1  0.67593872  0.77590693  0.98503083  1  0.071011  0.001206  0.112985  0.117218  0.000596  1.006912  0.001
H  H16  1  0.41893135  0.42079647  0.84948056  1  0.136438  -0.002442  0.125882  0.105379  -0.001106  0.996298  -0.002
H  H17  1  0.58107855  0.57920550  0.15051932  1  0.136448  0.002442  0.125888  0.10537  0.001106  0.996307  0.002
H  H18  1  0.28911001  0.92385868  0.41909327  1  0.075866  -0.000123  0.10278  0.102857  -4.4e-05  1.017763  0.0
H  H19  1  0.71089868  0.07613807  0.58090608  1  0.075775  0.000123  0.102801  0.102853  4.4e-05  1.017786  0.0
H  H20  1  0.24732344  0.16745723  0.41235245  1  0.096359  -0.000134  0.108097  0.115551  -5e-05  0.992251  0.0
H  H21  1  0.75268024  0.83254162  0.58764771  1  0.096461  0.000134  0.108091  0.115521  5e-05  0.992214  0.0
H  H22  1  0.17310915  0.13133949  0.79729688  1  0.105687  -0.000257  0.104709  0.117973  -0.000212  1.017004  0.0
H  H23  1  0.82688333  0.86866255  0.20270307  1  0.105696  0.000257  0.104715  0.117941  0.000212  1.017007  0.0
H  H24  1  0.15127873  0.93850551  0.97761943  1  0.073344  -5.2e-05  0.093578  0.089924  -3.1e-05  1.042803  0.0
H  H25  1  0.84872538  0.06149646  0.02238124  1  0.073307  5.2e-05  0.093585  0.089949  3.1e-05  1.042808  0.0
H  H26  1  0.15752052  0.69897901  0.98450830  1  0.058331  -6.3e-05  0.100513  0.100891  -3.7e-05  0.991846  0.0
H  H27  1  0.84248144  0.30102085  0.01549408  1  0.05827  6.3e-05  0.100521  0.100892  3.7e-05  0.991859  0.0
H  H28  1  0.19761617  0.65194611  0.80904404  1  0.07205  -0.00036  0.103754  0.112156  -0.000285  1.028618  0.0
H  H29  1  0.80238541  0.34805482  0.19095730  1  0.072029  0.000361  0.103762  0.112159  0.000285  1.028617  0.0
C  C30  1  0.70449768  0.15856994  0.77026733  1  0.490138  0.001821  0.057879  0.120332  0.000415  3.912392  0.001
C  C31  1  0.29550274  0.84142998  0.22973218  1  0.490264  -0.001822  0.057879  0.120386  -0.000415  3.912337  -0.001
C  C32  1  0.65747163  0.04235432  0.85774704  1  -0.052733  -0.007641  -0.073412  -0.162731  -0.005043  3.916781  -0.006
C  C33  1  0.34252522  0.95764770  0.14225308  1  -0.052639  0.00764  -0.073449  -0.162737  0.005043  3.916754  0.006
C  C34  1  0.52232674  0.06071512  0.95100029  1  -0.023216  0.005001  0.017554  0.102207  0.003246  3.973571  0.004
C  C35  1  0.47767339  0.93928581  0.04900124  1  0.007562  -0.005  0.017591  0.102149  -0.003245  3.973605  -0.004
C  C36  1  0.43321371  0.20015732  0.94719098  1  0.022453  -0.008092  -0.074505  -0.163145  -0.005386  3.926505  -0.006
C  C37  1  0.56678791  0.79984782  0.05280907  1  0.022731  0.008093  -0.074507  -0.163108  0.005386  3.926348  0.006
C  C38  1  0.48582957  0.31141232  0.85608812  1  0.472102  0.001044  0.059176  0.108467  -0.000221  3.92318  0.0
C  C39  1  0.51417487  0.68858862  0.14391206  1  0.472181  -0.001044  0.059191  0.108507  0.000221  3.923101  0.0
C  C40  1  0.24542713  0.83641971  0.59767507  1  -0.537596  -0.005958  -0.020456  -0.231982  -0.00354  3.943198  -0.004
C  C41  1  0.75457298  0.16358124  0.40232569  1  -0.53766  0.005957  -0.020475  -0.232084  0.003539  3.943317  0.004
C  C42  1  0.26035022  0.94517300  0.49702198  1  -0.040518  -0.001441  -0.081619  -0.05699  -0.000936  3.999075  -0.001
C  C43  1  0.73965089  0.05482481  0.50297807  1  -0.040278  0.001441  -0.081673  -0.057023  0.000936  3.999175  0.001
C  C44  1  0.23859699  0.08372929  0.49315882  1  0.020418  -0.000558  -0.080452  -0.05577  -0.000394  3.989229  -0.001
C  C45  1  0.76140016  0.91627171  0.50684005  1  0.020325  0.000558  -0.080415  -0.055664  0.000394  3.989205  0.001
C  C46  1  0.20779550  0.11498843  0.58999605  1  -0.591746  0.001439  -0.022177  -0.243251  0.001001  3.94717  0.001
C  C47  1  0.79220020  0.88501257  0.41000301  1  -0.59172  -0.001438  -0.022211  -0.243322  -0.001001  3.947159  -0.001
C  C48  1  0.20012274  0.00389251  0.69641249  1  -0.022481  0.001012  -0.000349  0.084758  0.000655  3.946351  0.001
C  C49  1  0.79987233  0.99611055  0.30358831  1  -0.022378  -0.001012  -0.000351  0.084713  -0.000655  3.946273  -0.001
C  C50  1  0.17992595  0.02650437  0.79908363  1  -0.053944  -0.000471  -0.093124  -0.138476  -0.000341  3.973059  0.0
C  C51  1  0.82006795  0.97349769  0.20091535  1  -0.053995  0.000471  -0.093151  -0.13845  0.000341  3.973101  0.0
C  C52  1  0.16648745  0.91878072  0.90013375  1  -0.054741  -3.1e-05  -0.101486  -0.092726  -1.6e-05  4.058261  0.0
C  C53  1  0.83351224  0.08121708  0.09986726  1  -0.054784  3.1e-05  -0.101506  -0.092763  1.6e-05  4.05838  0.0
C  C54  1  0.17069347  0.78303817  0.90407889  1  -0.103329  -5e-05  -0.101883  -0.09923  -1.7e-05  4.064786  0.0
C  C55  1  0.82930984  0.21695750  0.09592304  1  -0.103224  5e-05  -0.101867  -0.099238  1.7e-05  4.0648  0.0
C  C56  1  0.19332896  0.75670262  0.80616327  1  -0.015062  -0.000341  -0.093306  -0.134604  -0.000301  3.97678  0.0
C  C57  1  0.80667400  0.24329836  0.19383557  1  -0.014926  0.000341  -0.093279  -0.134585  0.000301  3.976851  0.0
C  C58  1  0.21238046  0.86409392  0.70014320  1  -0.010292  -2.7e-05  -3.1e-05  0.090203  1.1e-05  3.939272  0.0
C  C59  1  0.78761824  0.13591124  0.29985647  1  -0.010604  2.7e-05  -2e-05  0.090348  -1.1e-05  3.939206  0.0
N  N60  1  0.62249295  0.29067252  0.77015300  1  -1.198968  -0.104388  -0.335799  -0.212209  -0.068512  3.577135  -0.09
N  N61  1  0.37751212  0.70932636  0.22984543  1  -1.198823  0.104387  -0.335817  -0.212269  0.068511  3.577026  0.09
O  O62  1  0.45307512  0.57025900  0.66749867  1  -1.394126  -0.07743  -0.384432  -0.77002  -0.047861  2.400901  -0.066
O  O63  1  0.54692088  0.42974098  0.33249913  1  -1.394157  0.077433  -0.384417  -0.77002  0.047862  2.400834  0.066
O  O64  1  0.08807790  0.60893732  0.66100170  1  -1.425338  -0.002983  -0.388305  -0.652952  -0.001428  2.230604  -0.002
O  O65  1  0.91192218  0.39106364  0.33899830  1  -1.425303  0.002983  -0.388298  -0.652935  0.001428  2.230598  0.002
O  O66  1  0.32343527  0.66240662  0.47688305  1  -1.458324  -0.001228  -0.368367  -0.790093  -0.000341  2.35115  0.0
O  O67  1  0.67655796  0.33759753  0.52311615  1  -1.458276  0.001227  -0.368412  -0.790142  0.000341  2.351184  0.0
O  O68  1  0.98211182  0.33148073  0.65762943  1  -1.395444  -0.068683  -0.384195  -0.758618  -0.042667  2.410695  -0.058
O  O69  1  0.01789080  0.66852128  0.34236991  1  -1.395568  0.068679  -0.384181  -0.758588  0.042664  2.410795  0.058
O  O70  1  0.17181341  0.38575090  0.45544148  1  -1.415797  0.059618  -0.370286  -0.763566  0.037915  2.420971  0.051
O  O71  1  0.82818630  0.61425113  0.54455748  1  -1.415766  -0.059613  -0.370256  -0.763532  -0.037912  2.420886  -0.051
O  O72  1  0.34449627  0.30360219  0.63007112  1  -1.439933  -0.004632  -0.37788  -0.660013  -0.002865  2.319591  -0.003
O  O73  1  0.65550587  0.69639248  0.36992899  1  -1.439921  0.004631  -0.377831  -0.659973  0.002864  2.319507  0.003
