# generated using pymatgen
data_ZnH9C11S2(NO2)2
_symmetry_space_group_name_H-M   'P 1'
_cell_length_a   10.93084281
_cell_length_b   11.43369157
_cell_length_c   12.72514198
_cell_angle_alpha   89.80364518
_cell_angle_beta   87.20270527
_cell_angle_gamma   89.38753511
_symmetry_Int_Tables_number   1
_chemical_formula_structural   ZnH9C11S2(NO2)2
_chemical_formula_sum   'Zn2 H18 C22 S4 N4 O8'
_cell_volume   1588.39427354
_cell_formula_units_Z   2
loop_
 _symmetry_equiv_pos_site_id
 _symmetry_equiv_pos_as_xyz
  1  'x, y, z'
loop_
 _atom_site_type_symbol
 _atom_site_label
 _atom_site_symmetry_multiplicity
 _atom_site_fract_x
 _atom_site_fract_y
 _atom_site_fract_z
 _atom_site_occupancy
 _atom_site_pbe_bader_charge
 _atom_site_pbe_bader_spin_density
 _atom_site_pbe_cm5_charge
 _atom_site_pbe_ddec_charge
 _atom_site_pbe_ddec_spin_density
 _atom_site_pbe_ddec_sum_bond_order
 _atom_site_pbe_magmom
Zn  Zn0  1  0.50406398  0.62317265  0.50062320  1  1.294785  0  0.661322  0.839342  0  2.401268  0
Zn  Zn1  1  0.50272554  0.38096527  0.50094520  1  1.280612  0  0.663426  0.83179  0  2.451568  0
H  H2  1  0.64947046  0.16836628  0.58752516  1  0.132046  0  0.145661  0.137687  0  0.944672  0
H  H3  1  0.49354511  0.31099427  0.85980755  1  0.112373  0  0.112976  0.13882  0  0.979407  0
H  H4  1  0.88849920  0.47726582  0.66328404  1  0.035766  0  0.091096  0.087413  0  0.976589  0
H  H5  1  0.88929990  0.62486985  0.62166391  1  0.055772  0  0.089539  0.088001  0  0.988911  0
H  H6  1  0.10329776  0.62137173  0.62416156  1  0.042196  0  0.090514  0.08757  0  0.982548  0
H  H7  1  0.10193601  0.47116141  0.65748445  1  0.038666  0  0.093044  0.092432  0  0.97379  0
H  H8  1  0.09965639  0.68408326  0.43666412  1  0.016194  0  0.083622  0.073844  0  1.008904  0
H  H9  1  0.11518935  0.58126059  0.33317609  1  0.026822  0  0.089994  0.08687  0  0.977516  0
H  H10  1  0.88744201  0.67421943  0.42610688  1  0.060551  0  0.086763  0.085254  0  1.001995  0
H  H11  1  0.90295022  0.56054929  0.33273835  1  0.022569  0  0.090882  0.088746  0  0.973178  0
H  H12  1  0.90331449  0.31620187  0.52758314  1  -0.00858  0  0.084294  0.079421  0  0.993884  0
H  H13  1  0.89914328  0.34930917  0.39268895  1  0.026284  0  0.088639  0.087446  0  0.983741  0
H  H14  1  0.11284781  0.36336935  0.37887091  1  0.00898  0  0.086494  0.082685  0  0.982141  0
H  H15  1  0.11738725  0.31803683  0.51101239  1  0.035257  0  0.084217  0.081114  0  1.012034  0
H  H16  1  0.26092001  0.88650379  0.38109566  1  0.458829  0  0.32218  0.319364  0  0.920336  0
H  H17  1  0.30276613  0.74432719  0.41849189  1  0.54771  0  0.305037  0.331107  0  0.986441  0
H  H18  1  0.52672971  0.77048504  0.09542968  1  0.447195  0  0.305361  0.299265  0  0.944496  0
H  H19  1  0.51398784  0.71844404  0.22369433  1  0.497344  0  0.294948  0.308684  0  0.97745  0
C  C20  1  0.49086372  0.49364919  0.70570870  1  1.603135  0  0.203718  0.59898  0  4.223252  0
C  C21  1  0.74224808  0.50117642  0.49941038  1  1.585083  0  0.223405  0.593948  0  4.093172  0
C  C22  1  0.50601618  0.49788472  0.29413377  1  1.535513  0  0.193406  0.603615  0  4.218378  0
C  C23  1  0.26096611  0.50708101  0.49289381  1  1.534775  0  0.227665  0.599954  0  4.080645  0
C  C24  1  0.41940593  0.87370013  0.45864928  1  1.108636  0  0.234041  0.437687  0  4.113921  0
C  C25  1  0.57554719  0.12940761  0.54570235  1  0.585569  0  0.065554  0.076951  0  3.879767  0
C  C26  1  0.55087784  0.00944934  0.53152521  1  -0.14686  0  -0.016073  -0.067838  0  4.124134  0
C  C27  1  0.44679843  0.99483542  0.47287549  1  -0.171619  0  -0.020201  -0.181739  0  4.050006  0
C  C28  1  0.49716357  0.59501229  0.11335436  1  0.50504  0  0.093633  0.266373  0  4.135807  0
C  C29  1  0.49244518  0.40042143  0.88866589  1  0.018518  0  -0.097257  -0.146  0  3.985386  0
C  C30  1  0.49924388  0.49748866  0.18038984  1  -0.147925  0  -0.052604  -0.255671  0  3.961259  0
C  C31  1  0.49045313  0.49568396  0.82157115  1  -0.173443  0  -0.026819  -0.106437  0  3.97707  0
C  C32  1  0.49331915  0.43579577  0.99485760  1  -0.179149  0  -0.028288  0.004718  0  4.114474  0
C  C33  1  0.49310306  0.55806304  0.00681267  1  -0.153112  0  -0.035452  -0.12542  0  4.04885  0
C  C34  1  0.92644885  0.53739001  0.60266505  1  -0.05745  0  -0.157307  -0.170677  0  3.853455  0
C  C35  1  0.06828578  0.53577860  0.60127512  1  -0.063765  0  -0.156243  -0.16794  0  3.846003  0
C  C36  1  0.12162390  0.50529750  0.48954221  1  0.054358  0  -0.017728  0.02207  0  3.804315  0
C  C37  1  0.07252513  0.59634920  0.41214822  1  -0.02348  0  -0.161859  -0.170745  0  3.875385  0
C  C38  1  0.93105858  0.58868859  0.41050243  1  -0.062715  0  -0.160165  -0.173266  0  3.856668  0
C  C39  1  0.88220745  0.50039612  0.49414409  1  0.017136  0  -0.017344  0.028135  0  3.797484  0
C  C40  1  0.93558009  0.37882246  0.46694330  1  -0.03408  0  -0.166807  -0.176979  0  3.896011  0
C  C41  1  0.07703709  0.38326714  0.45922430  1  0.017507  0  -0.166795  -0.179352  0  3.890224  0
S  S42  1  0.61021834  0.87527667  0.56447900  1  0.642302  0  0.216471  0.259887  0  2.80227  0
S  S43  1  0.38854044  0.12877600  0.43975103  1  0.69315  0  0.257528  0.315104  0  2.820864  0
S  S44  1  0.49508475  0.36396842  0.11418917  1  0.233184  0  0.03191  0.06614  0  2.780238  0
S  S45  1  0.48889010  0.62901476  0.88713445  1  0.219153  0  0.053933  0.09696  0  2.77415  0
N  N46  1  0.50083234  0.80328160  0.50361744  1  -1.183454  0  -0.340561  -0.379737  0  3.317504  0
N  N47  1  0.49637238  0.20015886  0.50073030  1  -1.157618  0  -0.309254  -0.241904  0  3.406358  0
N  N48  1  0.32611275  0.83071384  0.40533238  1  -1.296753  0  -0.569762  -0.6202  0  3.305146  0
N  N49  1  0.49428517  0.70894355  0.14665047  1  -1.270106  0  -0.593217  -0.602809  0  3.328661  0
O  O50  1  0.47866773  0.59205873  0.65919464  1  -1.166917  0  -0.32773  -0.55568  0  2.322534  0
O  O51  1  0.50368390  0.39392854  0.66191736  1  -1.163258  0  -0.324029  -0.543222  0  2.297358  0
O  O52  1  0.68847044  0.40339438  0.49358961  1  -1.17388  0  -0.317103  -0.548083  0  2.338654  0
O  O53  1  0.68892830  0.60050073  0.51047000  1  -1.176685  0  -0.324638  -0.560835  0  2.343536  0
O  O54  1  0.49824658  0.39912694  0.34152811  1  -1.16237  0  -0.333985  -0.558941  0  2.333161  0
O  O55  1  0.51958743  0.59738465  0.33927952  1  -1.164579  0  -0.322963  -0.553985  0  2.29863  0
O  O56  1  0.31448709  0.60588790  0.48247151  1  -1.182128  0  -0.314006  -0.5646  0  2.367141  0
O  O57  1  0.31591167  0.41111345  0.50956892  1  -1.173083  0  -0.313085  -0.545314  0  2.354615  0
