# generated using pymatgen
data_CdH22C20(N2O3)2
_symmetry_space_group_name_H-M   'P 1'
_cell_length_a   8.98666639
_cell_length_b   9.23613652
_cell_length_c   15.60300000
_cell_angle_alpha   93.35164863
_cell_angle_beta   93.44480125
_cell_angle_gamma   112.21340545
_symmetry_Int_Tables_number   1
_chemical_formula_structural   CdH22C20(N2O3)2
_chemical_formula_sum   'Cd2 H44 C40 N8 O12'
_cell_volume   1192.17007726
_cell_formula_units_Z   2
loop_
 _symmetry_equiv_pos_site_id
 _symmetry_equiv_pos_as_xyz
  1  'x, y, z'
loop_
 _atom_site_type_symbol
 _atom_site_label
 _atom_site_symmetry_multiplicity
 _atom_site_fract_x
 _atom_site_fract_y
 _atom_site_fract_z
 _atom_site_occupancy
 _atom_site_hle17_bader_spin_density
 _atom_site_hle17_ddec_charge
 _atom_site_hle17_ddec_spin_density
 _atom_site_hle17_ddec_sum_bond_order
 _atom_site_hle17_magmom
 _atom_site_hse06_10hf_bader_spin_density
 _atom_site_hse06_10hf_ddec_charge
 _atom_site_hse06_10hf_ddec_spin_density
 _atom_site_hse06_10hf_ddec_sum_bond_order
 _atom_site_hse06_10hf_magmom
 _atom_site_hse06_bader_spin_density
 _atom_site_hse06_ddec_charge
 _atom_site_hse06_ddec_spin_density
 _atom_site_hse06_ddec_sum_bond_order
 _atom_site_hse06_magmom
 _atom_site_pbe_bader_charge
 _atom_site_pbe_bader_spin_density
 _atom_site_pbe_cm5_charge
 _atom_site_pbe_ddec_charge
 _atom_site_pbe_ddec_spin_density
 _atom_site_pbe_ddec_sum_bond_order
 _atom_site_pbe_magmom
Cd  Cd0  1  0.02053495  0.97612666  0.75157908  1  0  1.069256  0  1.717658  0  0  0.874646  0  2.167377  0  0  0.932521  0  2.117197  0  1.222624  0  0.758934  0.834271  0  2.200742  0
Cd  Cd1  1  0.97946791  0.02386472  0.24842213  1  0  1.069156  0  1.717617  0  0  0.87453  0  2.167323  0  0  0.93241  0  2.117145  0  1.222418  0  0.758936  0.834156  0  2.200681  0
H  H2  1  0.62743281  0.67443816  0.88761236  1  0  0.114615  0  0.959453  0  0  0.123404  0  1.023071  0  0  0.127392  0  1.020004  0  0.087849  0  0.105502  0.120445  0  1.025538  0
H  H3  1  0.31974444  0.36839044  0.61029031  1  0  0.112475  0  0.963238  0  0  0.121305  0  1.027216  0  0  0.125144  0  1.024357  0  0.090391  0  0.10456  0.118495  0  1.029393  0
H  H4  1  0.37255245  0.32557084  0.11238181  1  0  0.114694  0  0.959341  0  0  0.123434  0  1.023003  0  0  0.127421  0  1.019939  0  0.087949  0  0.105526  0.120478  0  1.025465  0
H  H5  1  0.68025681  0.63161386  0.38971449  1  0  0.112293  0  0.963191  0  0  0.1212  0  1.02712  0  0  0.125041  0  1.024258  0  0.092814  0  0.104517  0.118377  0  1.02931  0
H  H6  1  0.56760985  0.78750413  0.02392013  1  0  0.092059  0  0.989185  0  0  0.101281  0  1.056402  0  0  0.103663  0  1.056105  0  0.023278  0  0.096744  0.099648  0  1.056644  0
H  H7  1  0.20344378  0.42515765  0.47361359  1  0  0.09084  0  0.992297  0  0  0.099714  0  1.060078  0  0  0.102185  0  1.05957  0  0.082325  0  0.095773  0.09783  0  1.060877  0
H  H8  1  0.43238375  0.21251191  0.97607456  1  0  0.09211  0  0.989232  0  0  0.101332  0  1.056435  0  0  0.103718  0  1.056131  0  0.023251  0  0.096767  0.099702  0  1.056669  0
H  H9  1  0.79655832  0.57484312  0.52639177  1  0  0.090763  0  0.992248  0  0  0.099612  0  1.060052  0  0  0.102083  0  1.059545  0  0.082397  0  0.095744  0.097728  0  1.060851  0
H  H10  1  0.58003608  0.21565716  0.76424337  1  0  0.096802  0  0.914776  0  0  0.110796  0  0.971959  0  0  0.112676  0  0.970068  0  0.082752  0  0.11671  0.109403  0  0.973484  0
H  H11  1  0.79419248  0.43068621  0.73776589  1  0  0.096468  0  0.917519  0  0  0.109761  0  0.975893  0  0  0.111598  0  0.974151  0  0.092305  0  0.116669  0.108538  0  0.9771  0
H  H12  1  0.41996637  0.78435301  0.23575528  1  0  0.096759  0  0.914765  0  0  0.110723  0  0.972014  0  0  0.112601  0  0.970125  0  0.082593  0  0.116695  0.109338  0  0.973548  0
H  H13  1  0.20580776  0.56930987  0.26223859  1  0  0.096582  0  0.917481  0  0  0.109867  0  0.97585  0  0  0.111703  0  0.974106  0  0.091995  0  0.116691  0.108639  0  0.977066  0
H  H14  1  0.56143540  0.16457935  0.87220113  1  0  0.059024  0  0.974588  0  0  0.064672  0  1.051609  0  0  0.065962  0  1.050558  0  0.050852  0  0.093236  0.06378  0  1.052441  0
H  H15  1  0.84854921  0.45145968  0.63019805  1  0  0.060114  0  0.966737  0  0  0.066733  0  1.041498  0  0  0.068084  0  1.040275  0  0.054477  0  0.094015  0.065537  0  1.043012  0
H  H16  1  0.43856740  0.83544021  0.12779913  1  0  0.058989  0  0.97444  0  0  0.06468  0  1.051473  0  0  0.065976  0  1.050426  0  0.05293  0  0.093218  0.0638  0  1.052314  0
H  H17  1  0.15144696  0.54853170  0.36980486  1  0  0.060174  0  0.966688  0  0  0.066791  0  1.041446  0  0  0.068142  0  1.040221  0  0.054942  0  0.094055  0.065598  0  1.042956  0
H  H18  1  0.77142227  0.85053133  0.56670346  1  0  0.097157  0  0.956903  0  0  0.104043  0  1.027986  0  0  0.105783  0  1.026468  0  0.186148  0  0.133735  0.102581  0  1.029159  0
H  H19  1  0.14923542  0.23601150  0.92878139  1  0  0.097822  0  0.960177  0  0  0.104182  0  1.031383  0  0  0.106061  0  1.029716  0  0.142768  0  0.133236  0.102878  0  1.032454  0
H  H20  1  0.22855982  0.14944127  0.43329125  1  0  0.097094  0  0.957078  0  0  0.103944  0  1.028186  0  0  0.105693  0  1.026647  0  0.18642  0  0.133682  0.102482  0  1.029357  0
H  H21  1  0.85078524  0.76399397  0.07121708  1  0  0.09777  0  0.960334  0  0  0.104157  0  1.031498  0  0  0.106037  0  1.029817  0  0.14291  0  0.133244  0.102849  0  1.032578  0
H  H22  1  0.91322522  0.31211046  0.49102275  1  0  0.118464  0  0.941808  0  0  0.132056  0  0.995925  0  0  0.135001  0  0.994085  0  0.110676  0  0.126487  0.129546  0  0.998238  0
H  H23  1  0.68139485  0.08423858  0.01447206  1  0  0.119913  0  0.942478  0  0  0.132566  0  0.997994  0  0  0.135644  0  0.995967  0  0.140401  0  0.126186  0.130327  0  0.999636  0
H  H24  1  0.08676706  0.68787388  0.50898490  1  0  0.118465  0  0.941733  0  0  0.132051  0  0.995857  0  0  0.13501  0  0.993993  0  0.110406  0  0.126467  0.129535  0  0.998183  0
H  H25  1  0.31862271  0.91578450  0.98552307  1  0  0.119846  0  0.942445  0  0  0.132528  0  0.997937  0  0  0.135596  0  0.995906  0  0.139869  0  0.12618  0.13029  0  0.999578  0
H  H26  1  0.08235733  0.31603293  0.64945800  1  0  0.118352  0  0.937366  0  0  0.132897  0  0.985755  0  0  0.135506  0  0.984306  0  0.128761  0  0.126407  0.130961  0  0.987073  0
H  H27  1  0.67372421  0.91278013  0.85813768  1  0  0.117122  0  0.937699  0  0  0.132015  0  0.985869  0  0  0.134486  0  0.984672  0  0.115405  0  0.126651  0.130005  0  0.987247  0
H  H28  1  0.91763202  0.68393262  0.35054569  1  0  0.118322  0  0.937274  0  0  0.132838  0  0.985724  0  0  0.135447  0  0.984279  0  0.128497  0  0.126395  0.130899  0  0.987045  0
H  H29  1  0.32628658  0.08723708  0.14185957  1  0  0.117006  0  0.937736  0  0  0.131907  0  0.98591  0  0  0.134377  0  0.984717  0  0.115049  0  0.126597  0.129896  0  0.987291  0
H  H30  1  0.73357137  0.07340923  0.37951318  1  0  0.096093  0  0.914488  0  0  0.114118  0  0.971609  0  0  0.115267  0  0.970611  0  0.107636  0  0.117609  0.112974  0  0.972724  0
H  H31  1  0.92632845  0.27095095  0.11964290  1  0  0.094201  0  0.911998  0  0  0.112573  0  0.968344  0  0  0.113569  0  0.967615  0  0.115414  0  0.118144  0.111537  0  0.968892  0
H  H32  1  0.26642154  0.92658802  0.62048853  1  0  0.09616  0  0.914446  0  0  0.11417  0  0.971592  0  0  0.115318  0  0.970593  0  0.107461  0  0.117591  0.113023  0  0.972704  0
H  H33  1  0.07368041  0.72905570  0.88035392  1  0  0.094205  0  0.912023  0  0  0.112578  0  0.968364  0  0  0.113575  0  0.967629  0  0.115274  0  0.118131  0.111542  0  0.968912  0
H  H34  1  0.65613807  0.88550012  0.42029067  1  0  0.084053  0  0.928245  0  0  0.099289  0  0.993362  0  0  0.099584  0  0.994101  0  0.055647  0  0.114056  0.098642  0  0.993264  0
H  H35  1  0.11801322  0.34670709  0.07767994  1  0  0.082298  0  0.938407  0  0  0.096258  0  1.005766  0  0  0.096649  0  1.00644  0  0.097893  0  0.112567  0.095994  0  1.005032  0
H  H36  1  0.34384787  0.11449361  0.57970491  1  0  0.084067  0  0.928274  0  0  0.099295  0  0.993434  0  0  0.09959  0  0.994172  0  0.055744  0  0.114071  0.098645  0  0.993334  0
H  H37  1  0.88200195  0.65330425  0.92232174  1  0  0.082284  0  0.938429  0  0  0.0962  0  1.005836  0  0  0.096587  0  1.006509  0  0.097985  0  0.112552  0.095937  0  1.005099  0
H  H38  1  0.44569626  0.99575192  0.40375534  1  0  0.078489  0  0.927199  0  0  0.101331  0  0.977393  0  0  0.101788  0  0.978255  0  0.05193  0  0.099279  0.100732  0  0.977243  0
H  H39  1  0.00086060  0.54880525  0.09637500  1  0  0.077254  0  0.925472  0  0  0.09995  0  0.976556  0  0  0.100536  0  0.977189  0  0.037503  0  0.09826  0.099258  0  0.976479  0
H  H40  1  0.55429738  0.00425003  0.59624784  1  0  0.078517  0  0.927217  0  0  0.101361  0  0.977415  0  0  0.101815  0  0.978284  0  0.051779  0  0.099295  0.100758  0  0.977263  0
H  H41  1  0.99915391  0.45120726  0.90362671  1  0  0.077315  0  0.925545  0  0  0.100026  0  0.976575  0  0  0.100613  0  0.977212  0  0.03742  0  0.098315  0.099337  0  0.976498  0
H  H42  1  0.56475856  0.16715402  0.46994930  1  0  0.0738  0  0.931192  0  0  0.093366  0  0.989602  0  0  0.093383  0  0.991426  0  0.002188  0  0.093961  0.093333  0  0.988018  0
H  H43  1  0.82700245  0.43370819  0.02834133  1  0  0.073088  0  0.93675  0  0  0.092428  0  0.99589  0  0  0.092411  0  0.997895  0  0.029676  0  0.092804  0.092169  0  0.994918  0
H  H44  1  0.43523945  0.83284206  0.53005447  1  0  0.073796  0  0.931158  0  0  0.093366  0  0.989584  0  0  0.093382  0  0.99141  0  0.002165  0  0.093944  0.09333  0  0.987995  0
H  H45  1  0.17301430  0.56630433  0.97165917  1  0  0.073151  0  0.936811  0  0  0.092469  0  0.995935  0  0  0.092452  0  0.997945  0  0.029503  0  0.092816  0.092211  0  0.994964  0
C  C46  1  0.57246038  0.59961655  0.93785870  1  0  -0.166472  0  3.775972  0  0  -0.189512  0  4.031948  0  0  -0.191942  0  4.049267  0  -0.005548  0  -0.107404  -0.187779  0  4.020589  0
C  C47  1  0.39720432  0.42515061  0.56099250  1  0  -0.16643  0  3.778532  0  0  -0.189798  0  4.035276  0  0  -0.192126  0  4.05281  0  -0.002864  0  -0.107916  -0.187248  0  4.021905  0
C  C48  1  0.42753092  0.40039361  0.06213763  1  0  -0.166462  0  3.775893  0  0  -0.189547  0  4.031866  0  0  -0.191971  0  4.049175  0  -0.005953  0  -0.107364  -0.187817  0  4.020514  0
C  C49  1  0.60279397  0.57484900  0.43901652  1  0  -0.166252  0  3.778763  0  0  -0.189749  0  4.035508  0  0  -0.192085  0  4.053054  0  -0.005363  0  -0.107905  -0.187185  0  4.022142  0
C  C50  1  0.53673008  0.66142274  0.01406395  1  0  -0.19938  0  3.81666  0  0  -0.216932  0  4.068651  0  0  -0.220918  0  4.089503  0  0.023916  0  -0.116758  -0.214259  0  4.05471  0
C  C51  1  0.33345750  0.45908625  0.48452788  1  0  -0.19948  0  3.816318  0  0  -0.216487  0  4.068652  0  0  -0.220566  0  4.089711  0  -0.081453  0  -0.117454  -0.213714  0  4.053544  0
C  C52  1  0.46326198  0.33857803  0.98593465  1  0  -0.199366  0  3.816258  0  0  -0.216836  0  4.068275  0  0  -0.220822  0  4.089123  0  0.024509  0  -0.116704  -0.214164  0  4.054343  0
C  C53  1  0.66653141  0.54091218  0.51547437  1  0  -0.199351  0  3.816581  0  0  -0.216295  0  4.068982  0  0  -0.220362  0  4.090022  0  -0.081482  0  -0.117375  -0.213521  0  4.053865  0
C  C54  1  0.53718578  0.43872721  0.92331632  1  0  0.25005  0  3.828531  0  0  0.240079  0  4.090206  0  0  0.249689  0  4.106598  0  0.398409  0  0.06951  0.233195  0  4.079331  0
C  C55  1  0.56324046  0.46479678  0.57699613  1  0  0.24932  0  3.829357  0  0  0.239022  0  4.091672  0  0  0.248447  0  4.108235  0  0.437278  0  0.068606  0.232791  0  4.079784  0
C  C56  1  0.46281163  0.56129000  0.07667535  1  0  0.25012  0  3.828706  0  0  0.240365  0  4.090046  0  0  0.249971  0  4.106438  0  0.399142  0  0.069648  0.233477  0  4.079169  0
C  C57  1  0.43676256  0.53520634  0.42300870  1  0  0.249305  0  3.829224  0  0  0.239135  0  4.091476  0  0  0.248563  0  4.108033  0  0.437298  0  0.06866  0.232899  0  4.079589  0
C  C58  1  0.52369104  0.22789888  0.82338424  1  0  -0.052992  0  3.654095  0  0  -0.111877  0  3.922054  0  0  -0.107973  0  3.922165  0  0.426143  0  -0.070861  -0.114702  0  3.922001  0
C  C59  1  0.78038823  0.48477308  0.67847485  1  0  -0.054486  0  3.654592  0  0  -0.112825  0  3.922817  0  0  -0.109157  0  3.923284  0  0.407595  0  -0.069975  -0.115517  0  3.922646  0
C  C60  1  0.47630676  0.77211364  0.17661240  1  0  -0.052758  0  3.653829  0  0  -0.111774  0  3.921929  0  0  -0.107882  0  3.922049  0  0.424014  0  -0.070906  -0.114657  0  3.921941  0
C  C61  1  0.21960886  0.51522065  0.32152624  1  0  -0.054753  0  3.654643  0  0  -0.113052  0  3.922877  0  0  -0.109375  0  3.923333  0  0.40752  0  -0.070081  -0.115747  0  3.922705  0
C  C62  1  0.34107628  0.15134204  0.80140335  1  0  0.623491  0  3.94056  0  0  0.579132  0  4.240008  0  0  0.610622  0  4.236798  0  1.585998  0  0.175018  0.55783  0  4.241173  0
C  C63  1  0.85365509  0.66269540  0.70062170  1  0  0.625071  0  3.938835  0  0  0.580097  0  4.23913  0  0  0.611652  0  4.236111  0  1.590659  0  0.175408  0.558709  0  4.240247  0
C  C64  1  0.65892701  0.84866460  0.19859327  1  0  0.623229  0  3.941043  0  0  0.578941  0  4.240416  0  0  0.61043  0  4.237212  0  1.58616  0  0.174915  0.557654  0  4.241578  0
C  C65  1  0.14635026  0.33729950  0.29938036  1  0  0.625004  0  3.939015  0  0  0.580039  0  4.239288  0  0  0.611593  0  4.236273  0  1.590519  0  0.175391  0.55865  0  4.240403  0
C  C66  1  0.83613189  0.97666320  0.56849355  1  0  0.166665  0  3.662859  0  0  0.102468  0  3.932342  0  0  0.117057  0  3.946007  0  0.949926  0  0.142821  0.093326  0  3.922945  0
C  C67  1  0.02090826  0.16894678  0.92993643  1  0  0.16566  0  3.657329  0  0  0.102877  0  3.923303  0  0  0.117339  0  3.937111  0  0.99627  0  0.142219  0.093458  0  3.914238  0
C  C68  1  0.16385093  0.02331410  0.43149815  1  0  0.166489  0  3.662909  0  0  0.102315  0  3.932367  0  0  0.116901  0  3.946038  0  0.949495  0  0.142759  0.093174  0  3.92297  0
C  C69  1  0.97910061  0.83105986  0.07006488  1  0  0.165684  0  3.656933  0  0  0.102887  0  3.922941  0  0  0.117348  0  3.936757  0  0.996136  0  0.142177  0.093469  0  3.913877  0
C  C70  1  0.91103977  0.21982500  0.53136099  1  0  -0.066894  0  3.673697  0  0  -0.107602  0  3.935166  0  0  -0.106663  0  3.95433  0  0.331429  0  0.001551  -0.108048  0  3.922457  0
C  C71  1  0.77418733  0.08877273  0.97224137  1  0  -0.069036  0  3.675302  0  0  -0.109109  0  3.935969  0  0  -0.108085  0  3.954874  0  0.313596  0  0.000813  -0.110009  0  3.923546  0
C  C72  1  0.08894723  0.78014877  0.46864291  1  0  -0.066987  0  3.673544  0  0  -0.107709  0  3.935033  0  0  -0.10677  0  3.954198  0  0.332781  0  0.001503  -0.108158  0  3.922322  0
C  C73  1  0.22582393  0.91124566  0.02775594  1  0  -0.068961  0  3.675501  0  0  -0.109039  0  3.936164  0  0  -0.107996  0  3.955055  0  0.314021  0  0.000834  -0.109939  0  3.923741  0
C  C74  1  0.99366390  0.21938709  0.60848007  1  0  -0.003426  0  3.758935  0  0  -0.037311  0  4.024872  0  0  -0.0351  0  4.045423  0  0.359811  0  -0.001553  -0.03879  0  4.010837  0
C  C75  1  0.77319307  0.00434865  0.89638196  1  0  -0.002728  0  3.76055  0  0  -0.03681  0  4.026298  0  0  -0.03467  0  4.046931  0  0.362047  0  -0.002063  -0.038089  0  4.012278  0
C  C76  1  0.00632849  0.78058903  0.39152346  1  0  -0.003431  0  3.758869  0  0  -0.037305  0  4.024868  0  0  -0.035098  0  4.045423  0  0.358804  0  -0.001581  -0.03878  0  4.010831  0
C  C77  1  0.22682060  0.99566739  0.10361599  1  0  -0.002689  0  3.760495  0  0  -0.036775  0  4.026243  0  0  -0.03464  0  4.046877  0  0.362136  0  -0.002042  -0.038052  0  4.012222  0
C  C78  1  0.68511665  0.01123322  0.43580566  1  0  -0.002047  0  3.601758  0  0  -0.066953  0  3.864507  0  0  -0.062657  0  3.875507  0  0.299412  0  -0.048346  -0.069692  0  3.857399  0
C  C79  1  0.98849419  0.31778225  0.06281257  1  0  -0.003473  0  3.602542  0  0  -0.067846  0  3.865105  0  0  -0.0636  0  3.876257  0  0.268083  0  -0.048824  -0.070223  0  3.856657  0
C  C80  1  0.31487171  0.98875816  0.56419377  1  0  -0.002135  0  3.601938  0  0  -0.067076  0  3.864811  0  0  -0.062779  0  3.875817  0  0.299771  0  -0.048365  -0.069798  0  3.857663  0
C  C81  1  0.01152033  0.68223027  0.93718722  1  0  -0.003414  0  3.602573  0  0  -0.067751  0  3.865101  0  0  -0.0635  0  3.876259  0  0.26764  0  -0.048759  -0.070125  0  3.856653  0
C  C82  1  0.53529285  0.03981641  0.46010563  1  0  -0.124637  0  3.67596  0  0  -0.166575  0  3.940777  0  0  -0.167805  0  3.954691  0  -0.010395  0  -0.161018  -0.165887  0  3.931732  0
C  C83  1  0.95791335  0.46347833  0.03916647  1  0  -0.122071  0  3.670274  0  0  -0.164523  0  3.936046  0  0  -0.165802  0  3.950103  0  -0.028652  0  -0.160503  -0.163636  0  3.926771  0
C  C84  1  0.46469782  0.96018084  0.53989601  1  0  -0.12467  0  3.67597  0  0  -0.166643  0  3.940876  0  0  -0.167878  0  3.954793  0  0.010973  0  -0.160999  -0.165935  0  3.931804  0
C  C85  1  0.04210117  0.53653418  0.96083395  1  0  -0.122354  0  3.670512  0  0  -0.164749  0  3.936207  0  0  -0.16603  0  3.950251  0  -0.005809  0  -0.160614  -0.163875  0  3.926946  0
N  N86  1  0.94602408  0.06682169  0.63063625  1  0  -0.392226  0  3.279348  0  0  -0.31477  0  3.569029  0  0  -0.336685  0  3.585795  0  -1.201094  0  -0.362685  -0.300036  0  3.55739  0
N  N87  1  0.92792827  0.05528909  0.87095486  1  0  -0.391433  0  3.276083  0  0  -0.313737  0  3.564772  0  0  -0.335655  0  3.581499  0  -1.209646  0  -0.362111  -0.298884  0  3.552642  0
N  N88  1  0.05396508  0.93314621  0.36936431  1  0  -0.391829  0  3.279424  0  0  -0.314374  0  3.569053  0  0  -0.336284  0  3.585821  0  -1.201144  0  -0.362518  -0.299645  0  3.557412  0
N  N89  1  0.07208709  0.94471990  0.12904291  1  0  -0.391363  0  3.276051  0  0  -0.313667  0  3.564754  0  0  -0.335586  0  3.581482  0  -1.209711  0  -0.362076  -0.298814  0  3.55262  0
N  N90  1  0.81241154  0.06523791  0.50690790  1  0  -0.060089  0  3.574829  0  0  0.034729  0  3.796867  0  0  0.019779  0  3.823942  0  -1.237334  0  -0.242948  0.044694  0  3.778014  0
N  N91  1  0.93197827  0.19222566  0.99258404  1  0  -0.056294  0  3.564051  0  0  0.038907  0  3.784478  0  0  0.023984  0  3.81153  0  -1.246642  0  -0.24054  0.049067  0  3.765949  0
N  N92  1  0.18758000  0.93474173  0.49309635  1  0  -0.060005  0  3.574604  0  0  0.034881  0  3.796585  0  0  0.019927  0  3.823671  0  -1.236847  0  -0.242847  0.044843  0  3.777725  0
N  N93  1  0.06804451  0.80778803  0.00741030  1  0  -0.05628  0  3.563894  0  0  0.038897  0  3.784354  0  0  0.023972  0  3.811402  0  -1.245878  0  -0.240541  0.049051  0  3.765833  0
O  O94  1  0.26374030  0.23136582  0.77454258  1  0  -0.620426  0  1.894319  0  0  -0.567764  0  2.117618  0  0  -0.593702  0  2.109432  0  -1.176396  0  -0.338265  -0.54956  0  2.122627  0
O  O95  1  0.76802641  0.73369551  0.72841577  1  0  -0.621722  0  1.889468  0  0  -0.567737  0  2.1126  0  0  -0.593906  0  2.104186  0  -1.171307  0  -0.339611  -0.549474  0  2.118137  0
O  O96  1  0.73625687  0.76863378  0.22544974  1  0  -0.620404  0  1.894256  0  0  -0.567745  0  2.117499  0  0  -0.593682  0  2.109312  0  -1.176433  0  -0.338294  -0.549539  0  2.1225  0
O  O97  1  0.23197718  0.26630057  0.27158819  1  0  -0.621671  0  1.889609  0  0  -0.567697  0  2.112741  0  0  -0.593865  0  2.104328  0  -1.17125  0  -0.339592  -0.549435  0  2.118279  0
O  O98  1  0.27783374  0.00342937  0.80916470  1  0  -0.656884  0  1.916732  0  0  -0.59688  0  2.150275  0  0  -0.625241  0  2.140387  0  -1.172905  0  -0.356244  -0.577012  0  2.156499  0
O  O99  1  0.00492246  0.72905335  0.69238050  1  0  -0.655649  0  1.914886  0  0  -0.596646  0  2.148206  0  0  -0.624761  0  2.138293  0  -1.177334  0  -0.355581  -0.576772  0  2.154231  0
O  O100  1  0.72216928  0.99657375  0.19083565  1  0  -0.656702  0  1.917177  0  0  -0.596703  0  2.150645  0  0  -0.625063  0  2.140764  0  -1.172991  0  -0.356135  -0.576832  0  2.156851  0
O  O101  1  0.99507882  0.27093686  0.30762125  1  0  -0.655533  0  1.914778  0  0  -0.596524  0  2.14808  0  0  -0.624641  0  2.138172  0  -1.177244  0  -0.355531  -0.576651  0  2.154101  0
O  O102  1  0.58351913  0.39198748  0.84779882  1  0  -0.257091  0  2.343999  0  0  -0.193383  0  2.582101  0  0  -0.209318  0  2.583412  0  -1.081797  0  -0.18353  -0.182118  0  2.580981  0
O  O103  1  0.61198380  0.42134789  0.65297055  1  0  -0.254662  0  2.340847  0  0  -0.191726  0  2.579171  0  0  -0.20725  0  2.580312  0  -1.078597  0  -0.183372  -0.180614  0  2.578065  0
O  O104  1  0.41646798  0.60802621  0.15219685  1  0  -0.257343  0  2.343929  0  0  -0.193618  0  2.581959  0  0  -0.209548  0  2.583267  0  -1.081582  0  -0.183589  -0.182327  0  2.580847  0
O  O105  1  0.38801579  0.57864936  0.34703396  1  0  -0.254625  0  2.340748  0  0  -0.191785  0  2.5791  0  0  -0.207316  0  2.580239  0  -1.078503  0  -0.183404  -0.180664  0  2.577985  0
