# generated using pymatgen
data_Cd3H46C36(NO13)2
_symmetry_space_group_name_H-M   'P 1'
_cell_length_a   10.96442077
_cell_length_b   11.15692870
_cell_length_c   11.68569007
_cell_angle_alpha   76.23679365
_cell_angle_beta   70.60433497
_cell_angle_gamma   72.24986620
_symmetry_Int_Tables_number   1
_chemical_formula_structural   Cd3H46C36(NO13)2
_chemical_formula_sum   'Cd3 H46 C36 N2 O26'
_cell_volume   1269.23756093
_cell_formula_units_Z   1
loop_
 _symmetry_equiv_pos_site_id
 _symmetry_equiv_pos_as_xyz
  1  'x, y, z'
loop_
 _atom_site_type_symbol
 _atom_site_label
 _atom_site_symmetry_multiplicity
 _atom_site_fract_x
 _atom_site_fract_y
 _atom_site_fract_z
 _atom_site_occupancy
 _atom_site_hle17_bader_spin_density
 _atom_site_hle17_ddec_charge
 _atom_site_hle17_ddec_spin_density
 _atom_site_hle17_ddec_sum_bond_order
 _atom_site_hle17_magmom
 _atom_site_hse06_10hf_bader_spin_density
 _atom_site_hse06_10hf_ddec_charge
 _atom_site_hse06_10hf_ddec_spin_density
 _atom_site_hse06_10hf_ddec_sum_bond_order
 _atom_site_hse06_10hf_magmom
 _atom_site_hse06_bader_spin_density
 _atom_site_hse06_ddec_charge
 _atom_site_hse06_ddec_spin_density
 _atom_site_hse06_ddec_sum_bond_order
 _atom_site_hse06_magmom
 _atom_site_pbe_bader_spin_density
 _atom_site_pbe_cm5_charge
 _atom_site_pbe_ddec_charge
 _atom_site_pbe_ddec_spin_density
 _atom_site_pbe_ddec_sum_bond_order
 _atom_site_pbe_magmom
Cd  Cd0  1  0.76356316  0.05373966  0.92036093  1  0  1.176785  0  1.622574  0  0  0.99595  0  2.060972  0  0  1.052633  0  2.006528  0  0  0.763293  0.955793  0  2.097998  0
Cd  Cd1  1  0.23643872  0.94626099  0.07963937  1  0  1.176794  0  1.622599  0  0  0.995962  0  2.060998  0  0  1.052646  0  2.006554  0  0  0.76329  0.955808  0  2.098021  0
Cd  Cd2  1  0.00000257  0.50000091  0.99999956  1  0  1.305316  0  1.50467  0  0  1.1444  0  1.938288  0  0  1.199215  0  1.87633  0  0  0.77345  1.104874  0  1.981474  0
H  H3  1  0.35815735  0.91416096  0.48398452  1  0  0.124713  0  0.978799  0  0  0.135312  0  1.041658  0  0  0.138969  0  1.039825  0  0  0.106607  0.132603  0  1.043188  0
H  H4  1  0.64184495  0.08584552  0.51601758  1  0  0.124707  0  0.978818  0  0  0.135352  0  1.041616  0  0  0.138987  0  1.039807  0  0  0.106623  0.13264  0  1.043151  0
H  H5  1  0.41461652  0.69700709  0.82798938  1  0  0.141461  0  0.980068  0  0  0.147908  0  1.049077  0  0  0.152902  0  1.045332  0  0  0.10657  0.144283  0  1.051985  0
H  H6  1  0.58538268  0.30299645  0.17201275  1  0  0.141423  0  0.980104  0  0  0.147885  0  1.049107  0  0  0.152877  0  1.045361  0  0  0.106562  0.144272  0  1.052  0
H  H7  1  0.75782328  0.72841894  0.51304610  1  0  0.145551  0  0.919487  0  0  0.158619  0  0.972108  0  0  0.163339  0  0.969118  0  0  0.114212  0.155205  0  0.974552  0
H  H8  1  0.24217693  0.27158087  0.48695922  1  0  0.145539  0  0.919442  0  0  0.15863  0  0.972043  0  0  0.163349  0  0.969054  0  0  0.114212  0.155214  0  0.974489  0
H  H9  1  0.48242354  0.03467874  0.33421485  1  0  0.082888  0  0.976335  0  0  0.091183  0  1.045012  0  0  0.090969  0  1.047515  0  0  0.105596  0.091378  0  1.043327  0
H  H10  1  0.51757515  0.96532661  0.66578356  1  0  0.082918  0  0.976377  0  0  0.09119  0  1.045054  0  0  0.090985  0  1.047565  0  0  0.105609  0.091385  0  1.043367  0
H  H11  1  0.46111726  0.90019344  0.29319653  1  0  0.082385  0  0.940902  0  0  0.095532  0  0.999908  0  0  0.096579  0  0.999867  0  0  0.107215  0.094959  0  0.999804  0
H  H12  1  0.53889067  0.09980643  0.70680632  1  0  0.082423  0  0.940882  0  0  0.095529  0  0.999901  0  0  0.096586  0  0.999865  0  0  0.107212  0.094956  0  0.999796  0
H  H13  1  0.14322255  0.91852267  0.58265197  1  0  0.094129  0  0.899346  0  0  0.108038  0  0.953458  0  0  0.110152  0  0.951176  0  0  0.114337  0.106589  0  0.955032  0
H  H14  1  0.85677400  0.08147987  0.41735040  1  0  0.094143  0  0.89932  0  0  0.108013  0  0.95345  0  0  0.110128  0  0.951164  0  0  0.114333  0.106564  0  0.955021  0
H  H15  1  0.19772414  0.02160850  0.64104528  1  0  0.107031  0  0.917502  0  0  0.116148  0  0.981169  0  0  0.118371  0  0.979097  0  0  0.117079  0.114512  0  0.982731  0
H  H16  1  0.80226997  0.97839578  0.35895230  1  0  0.107035  0  0.917518  0  0  0.116137  0  0.981164  0  0  0.118345  0  0.979112  0  0  0.117078  0.114501  0  0.982725  0
H  H17  1  0.57635847  0.51260779  0.86617888  1  0  0.087956  0  0.941571  0  0  0.093608  0  1.014415  0  0  0.094937  0  1.014458  0  0  0.105839  0.092644  0  1.014639  0
H  H18  1  0.42364149  0.48739298  0.13382628  1  0  0.08797  0  0.9416  0  0  0.09363  0  1.014404  0  0  0.094957  0  1.014447  0  0  0.10586  0.092673  0  1.014634  0
H  H19  1  0.56661587  0.65235163  0.91937815  1  0  0.088242  0  0.920412  0  0  0.100329  0  0.984502  0  0  0.101625  0  0.983268  0  0  0.110346  0.099451  0  0.985405  0
H  H20  1  0.43338769  0.34765001  0.08062222  1  0  0.088286  0  0.920436  0  0  0.100292  0  0.984581  0  0  0.101589  0  0.983344  0  0  0.110319  0.099422  0  0.985491  0
H  H21  1  0.82569776  0.27910489  0.71901059  1  0  0.097296  0  0.924559  0  0  0.108023  0  0.979223  0  0  0.110909  0  0.976555  0  0  0.123386  0.105892  0  0.981239  0
H  H22  1  0.17429929  0.72089567  0.28098955  1  0  0.097311  0  0.924568  0  0  0.10804  0  0.979215  0  0  0.110925  0  0.976546  0  0  0.123372  0.105907  0  0.981234  0
H  H23  1  0.72622768  0.44977445  0.57150590  1  0  0.11311  0  0.932062  0  0  0.127307  0  0.983014  0  0  0.130162  0  0.982681  0  0  0.114146  0.125255  0  0.983416  0
H  H24  1  0.27376702  0.55022032  0.42849475  1  0  0.113103  0  0.932167  0  0  0.127323  0  0.98307  0  0  0.130188  0  0.982736  0  0  0.114155  0.125272  0  0.983473  0
H  H25  1  0.34377206  0.37141778  0.77416832  1  0  0.121534  0  0.940419  0  0  0.135115  0  0.992894  0  0  0.138323  0  0.992029  0  0  0.111464  0.132797  0  0.993654  0
H  H26  1  0.65623221  0.62856260  0.22582780  1  0  0.121556  0  0.940473  0  0  0.135167  0  0.992918  0  0  0.138373  0  0.992054  0  0  0.111477  0.132848  0  0.993681  0
H  H27  1  0.45902507  0.20564340  0.91694028  1  0  0.075778  0  0.953041  0  0  0.086251  0  1.017145  0  0  0.088552  0  1.015015  0  0  0.115043  0.084444  0  1.018878  0
H  H28  1  0.54098034  0.79434387  0.08306057  1  0  0.075877  0  0.952883  0  0  0.086262  0  1.017064  0  0  0.088564  0  1.014933  0  0  0.115043  0.084458  0  1.018787  0
H  H29  1  0.47131415  0.61118518  0.56805911  1  0  0.075776  0  1.007803  0  0  0.090273  0  1.075817  0  0  0.088928  0  1.080626  0  0  0.089793  0.091146  0  1.072476  0
H  H30  1  0.52867187  0.38880969  0.43194943  1  0  0.075609  0  1.007829  0  0  0.090206  0  1.075851  0  0  0.088866  0  1.080656  0  0  0.089769  0.091078  0  1.072504  0
H  H31  1  0.35840277  0.51832287  0.59049020  1  0  0.083487  0  0.930637  0  0  0.099966  0  0.989805  0  0  0.10184  0  0.988157  0  0  0.095408  0.09847  0  0.991244  0
H  H32  1  0.64158721  0.48166443  0.40951986  1  0  0.083373  0  0.930776  0  0  0.099924  0  0.989963  0  0  0.101789  0  0.988325  0  0  0.095337  0.098419  0  0.991406  0
H  H33  1  0.75447246  0.81087027  0.89815189  1  0  0.422609  0  0.852339  0  0  0.395326  0  0.92016  0  0  0.405455  0  0.905237  0  0  0.297877  0.387997  0  0.930972  0
H  H34  1  0.24552606  0.18912827  0.10184403  1  0  0.42258  0  0.852356  0  0  0.3953  0  0.92019  0  0  0.405427  0  0.905269  0  0  0.297866  0.38797  0  0.931002  0
H  H35  1  0.61690193  0.90199331  0.87383983  1  0  0.425634  0  0.87898  0  0  0.39277  0  0.945886  0  0  0.404581  0  0.928903  0  0  0.282693  0.384371  0  0.957929  0
H  H36  1  0.38309780  0.09800428  0.12615594  1  0  0.425669  0  0.878932  0  0  0.392802  0  0.945843  0  0  0.404614  0  0.928859  0  0  0.282709  0.384403  0  0.957886  0
H  H37  1  0.79448191  0.26883070  0.99685960  1  0  0.41793  0  0.885677  0  0  0.385635  0  0.952229  0  0  0.39577  0  0.937527  0  0  0.288365  0.378472  0  0.962618  0
H  H38  1  0.20551748  0.73117552  0.00313579  1  0  0.417983  0  0.885613  0  0  0.38569  0  0.952147  0  0  0.395824  0  0.937446  0  0  0.288397  0.378528  0  0.962535  0
H  H39  1  0.89431435  0.14595856  0.04576358  1  0  0.429401  0  0.873471  0  0  0.394086  0  0.944178  0  0  0.405656  0  0.927345  0  0  0.286995  0.385863  0  0.956122  0
H  H40  1  0.10568839  0.85404952  0.95422771  1  0  0.429402  0  0.873466  0  0  0.394129  0  0.944102  0  0  0.40569  0  0.927277  0  0  0.287023  0.385911  0  0.956044  0
H  H41  1  0.06235047  0.22191938  0.04592059  1  0  0.426797  0  0.877927  0  0  0.395564  0  0.942567  0  0  0.40577  0  0.92767  0  0  0.297438  0.38829  0  0.953194  0
H  H42  1  0.93765211  0.77808207  0.95407414  1  0  0.426826  0  0.877884  0  0  0.395611  0  0.942492  0  0  0.405818  0  0.927592  0  0  0.297453  0.388338  0  0.953115  0
H  H43  1  0.16015557  0.23478039  0.91629159  1  0  0.444935  0  0.827558  0  0  0.419413  0  0.884871  0  0  0.429604  0  0.869943  0  0  0.307479  0.412113  0  0.895581  0
H  H44  1  0.83984168  0.76522290  0.08370352  1  0  0.44501  0  0.827499  0  0  0.41949  0  0.884768  0  0  0.429679  0  0.869843  0  0  0.307496  0.41219  0  0.895476  0
H  H45  1  0.21890577  0.57888538  0.87751038  1  0  0.41046  0  0.907082  0  0  0.374235  0  0.980442  0  0  0.386011  0  0.963638  0  0  0.28192  0.365961  0  0.992198  0
H  H46  1  0.78109900  0.42111515  0.12248474  1  0  0.410451  0  0.907105  0  0  0.374226  0  0.980469  0  0  0.386002  0  0.963664  0  0  0.281893  0.365949  0  0.99223  0
H  H47  1  0.13714376  0.65783535  0.78378304  1  0  0.429617  0  0.826227  0  0  0.407393  0  0.886743  0  0  0.416646  0  0.875109  0  0  0.3144  0.400671  0  0.894294  0
H  H48  1  0.86285426  0.34216525  0.21621765  1  0  0.429689  0  0.826132  0  0  0.407468  0  0.886644  0  0  0.416721  0  0.875004  0  0  0.314409  0.400746  0  0.894196  0
C  C49  1  0.56386617  0.82476131  0.48507261  1  0  0.314151  0  3.843114  0  0  0.304672  0  4.111723  0  0  0.31986  0  4.125163  0  0  0.080007  0.294617  0  4.101837  0
C  C50  1  0.43613475  0.17523941  0.51493054  1  0  0.314087  0  3.843122  0  0  0.304552  0  4.111794  0  0  0.319743  0  4.125224  0  0  0.080069  0.294512  0  4.101898  0
C  C51  1  0.42501154  0.85580053  0.53769146  1  0  -0.367621  0  3.766373  0  0  -0.399219  0  4.02797  0  0  -0.40944  0  4.044898  0  0  -0.141849  -0.392542  0  4.016034  0
C  C52  1  0.57498983  0.14420202  0.46230851  1  0  -0.367585  0  3.766399  0  0  -0.399227  0  4.028032  0  0  -0.40943  0  4.04497  0  0  -0.141853  -0.392551  0  4.016096  0
C  C53  1  0.37495861  0.80821553  0.66132793  1  0  0.319963  0  3.828664  0  0  0.312218  0  4.089584  0  0  0.327148  0  4.102272  0  0  0.078456  0.302261  0  4.080637  0
C  C54  1  0.62504059  0.19178801  0.33867420  1  0  0.320093  0  3.828646  0  0  0.312298  0  4.089614  0  0  0.327229  0  4.102292  0  0  0.078458  0.302336  0  4.080675  0
C  C55  1  0.45865988  0.73249319  0.73275689  1  0  -0.342581  0  3.720344  0  0  -0.37565  0  3.981897  0  0  -0.385098  0  3.996729  0  0  -0.13518  -0.369388  0  3.972085  0
C  C56  1  0.54133885  0.26750844  0.26724587  1  0  -0.342595  0  3.72021  0  0  -0.3757  0  3.981785  0  0  -0.38516  0  3.996643  0  0  -0.135164  -0.369447  0  3.971967  0
C  C57  1  0.59672586  0.70541666  0.67840331  1  0  0.314777  0  3.846783  0  0  0.306587  0  4.111794  0  0  0.322158  0  4.124464  0  0  0.081195  0.295995  0  4.102881  0
C  C58  1  0.40327338  0.29458310  0.32160063  1  0  0.314782  0  3.846825  0  0  0.306629  0  4.111782  0  0  0.322199  0  4.124451  0  0  0.081185  0.296033  0  4.102872  0
C  C59  1  0.65031382  0.75064173  0.55442175  1  0  -0.33059  0  3.709964  0  0  -0.367741  0  3.976207  0  0  -0.37608  0  3.988431  0  0  -0.130228  -0.362426  0  3.968206  0
C  C60  1  0.34968495  0.24935602  0.44557942  1  0  -0.330562  0  3.710015  0  0  -0.367749  0  3.976268  0  0  -0.376087  0  3.988493  0  0  -0.130254  -0.362433  0  3.968261  0
C  C61  1  0.53608340  0.94647272  0.29456127  1  0  -0.069421  0  3.648581  0  0  -0.123731  0  3.903801  0  0  -0.121048  0  3.906971  0  0  -0.069408  -0.125716  0  3.901439  0
C  C62  1  0.46391924  0.05352504  0.70543867  1  0  -0.069535  0  3.648827  0  0  -0.123773  0  3.903905  0  0  -0.121142  0  3.907156  0  0  -0.069387  -0.12574  0  3.901533  0
C  C63  1  0.61442532  0.98162743  0.16305692  1  0  0.665257  0  3.883787  0  0  0.612888  0  4.188038  0  0  0.645667  0  4.182554  0  0  0.199757  0.590595  0  4.191112  0
C  C64  1  0.38557585  0.01837226  0.83694385  1  0  0.665186  0  3.883887  0  0  0.612829  0  4.188094  0  0  0.645613  0  4.182627  0  0  0.199745  0.590536  0  4.191164  0
C  C65  1  0.15551190  0.93794184  0.66586620  1  0  -0.063473  0  3.617211  0  0  -0.119954  0  3.880201  0  0  -0.1167  0  3.879765  0  0  -0.062815  -0.122178  0  3.880337  0
C  C66  1  0.84448658  0.06206066  0.33413385  1  0  -0.063433  0  3.617336  0  0  -0.119851  0  3.880183  0  0  -0.116587  0  3.879749  0  0  -0.062793  -0.122074  0  3.880319  0
C  C67  1  0.01873378  0.97114880  0.75653729  1  0  0.682033  0  3.866674  0  0  0.631794  0  4.163826  0  0  0.664685  0  4.15815  0  0  0.204424  0.60933  0  4.167053  0
C  C68  1  0.98126171  0.02886126  0.24346009  1  0  0.682153  0  3.866297  0  0  0.631892  0  4.163436  0  0  0.66478  0  4.157758  0  0  0.204517  0.609429  0  4.166665  0
C  C69  1  0.63464952  0.57851269  0.86324299  1  0  -0.064003  0  3.635103  0  0  -0.120471  0  3.900343  0  0  -0.117434  0  3.901595  0  0  -0.067358  -0.122602  0  3.89935  0
C  C70  1  0.36535039  0.42149186  0.13676037  1  0  -0.06409  0  3.635454  0  0  -0.120473  0  3.900522  0  0  -0.117428  0  3.901768  0  0  -0.06738  -0.12263  0  3.899544  0
C  C71  1  0.74420149  0.50914569  0.92535536  1  0  0.679044  0  3.864513  0  0  0.624691  0  4.170384  0  0  0.657845  0  4.164018  0  0  0.207129  0.60209  0  4.173885  0
C  C72  1  0.25580039  0.49085496  0.07464493  1  0  0.679007  0  3.864691  0  0  0.624671  0  4.170481  0  0  0.657824  0  4.164113  0  0  0.207077  0.60208  0  4.173987  0
C  C73  1  0.71918586  0.30338624  0.72825655  1  0  0.138669  0  3.710217  0  0  0.108959  0  3.960117  0  0  0.116842  0  3.97803  0  0  0.049094  0.103903  0  3.947858  0
C  C74  1  0.28081170  0.69661244  0.27174477  1  0  0.138608  0  3.710156  0  0  0.108911  0  3.960044  0  0  0.116796  0  3.977957  0  0  0.049152  0.103854  0  3.947787  0
C  C75  1  0.66302720  0.39680594  0.64564446  1  0  -0.165546  0  3.700985  0  0  -0.184926  0  3.949468  0  0  -0.192982  0  3.970597  0  0  -0.081318  -0.179803  0  3.935132  0
C  C76  1  0.33696823  0.60318995  0.35436081  1  0  -0.165472  0  3.701078  0  0  -0.184886  0  3.949498  0  0  -0.192954  0  3.970637  0  0  -0.081392  -0.179767  0  3.935166  0
C  C77  1  0.52637280  0.42168183  0.65806428  1  0  0.170933  0  3.697196  0  0  0.187199  0  3.936286  0  0  0.192732  0  3.958199  0  0  0.020254  0.183818  0  3.921189  0
C  C78  1  0.47362144  0.57831109  0.34193871  1  0  0.170642  0  3.69735  0  0  0.187001  0  3.936456  0  0  0.192531  0  3.958371  0  0  0.020311  0.183619  0  3.921351  0
C  C79  1  0.45087301  0.35381880  0.75911857  1  0  -0.164987  0  3.682968  0  0  -0.185751  0  3.932596  0  0  -0.193725  0  3.953408  0  0  -0.084983  -0.180666  0  3.918585  0
C  C80  1  0.54912660  0.64616827  0.24087905  1  0  -0.164881  0  3.68329  0  0  -0.185678  0  3.932834  0  0  -0.193645  0  3.953649  0  0  -0.085009  -0.180593  0  3.91882  0
C  C81  1  0.51406526  0.26231968  0.83878855  1  0  0.116697  0  3.753175  0  0  0.086259  0  4.010694  0  0  0.093729  0  4.029421  0  0  0.037678  0.081268  0  3.998061  0
C  C82  1  0.48593821  0.73766748  0.16120952  1  0  0.116617  0  3.753193  0  0  0.086258  0  4.010735  0  0  0.093725  0  4.029461  0  0  0.037716  0.081268  0  3.998102  0
C  C83  1  0.46485120  0.51566043  0.56546105  1  0  -0.160515  0  3.696975  0  0  -0.20262  0  3.941404  0  0  -0.204362  0  3.954009  0  0  -0.160656  -0.201468  0  3.932895  0
C  C84  1  0.53514352  0.48433447  0.43454385  1  0  -0.159902  0  3.696808  0  0  -0.202335  0  3.941381  0  0  -0.204071  0  3.953986  0  0  -0.160537  -0.201159  0  3.932846  0
N  N85  1  0.64635512  0.23516225  0.82247057  1  0  -0.35686  0  3.281352  0  0  -0.278556  0  3.547485  0  0  -0.299895  0  3.566733  0  0  -0.33953  -0.263961  0  3.534058  0
N  N86  1  0.35364588  0.76483071  0.17753024  1  0  -0.356879  0  3.281227  0  0  -0.278597  0  3.547341  0  0  -0.299933  0  3.566585  0  0  -0.339585  -0.264004  0  3.53392  0
O  O87  1  0.62275347  0.86382617  0.36406853  1  0  -0.265087  0  2.3338  0  0  -0.197011  0  2.568214  0  0  -0.214084  0  2.569454  0  0  -0.181472  -0.18491  0  2.566587  0
O  O88  1  0.37725102  0.13617940  0.63593397  1  0  -0.265013  0  2.333958  0  0  -0.196879  0  2.568325  0  0  -0.213935  0  2.569581  0  0  -0.181528  -0.184805  0  2.566713  0
O  O89  1  0.24042181  0.83073032  0.72006076  1  0  -0.283113  0  2.334535  0  0  -0.21087  0  2.565585  0  0  -0.22748  0  2.565719  0  0  -0.183213  -0.199171  0  2.565063  0
O  O90  1  0.75957688  0.16927518  0.27994275  1  0  -0.283273  0  2.334569  0  0  -0.210954  0  2.565534  0  0  -0.227562  0  2.565665  0  0  -0.183242  -0.199255  0  2.565012  0
O  O91  1  0.68757385  0.63470727  0.74045085  1  0  -0.258177  0  2.331056  0  0  -0.190822  0  2.560554  0  0  -0.207208  0  2.560507  0  0  -0.179709  -0.179087  0  2.559917  0
O  O92  1  0.31242585  0.36529434  0.25955076  1  0  -0.258166  0  2.331246  0  0  -0.190822  0  2.560677  0  0  -0.207206  0  2.560629  0  0  -0.179689  -0.179072  0  2.560049  0
O  O93  1  0.73828993  0.93173326  0.12527418  1  0  -0.630522  0  1.966261  0  0  -0.56945  0  2.199013  0  0  -0.596272  0  2.187613  0  0  -0.320444  -0.55074  0  2.206335  0
O  O94  1  0.26171195  0.06826744  0.87472781  1  0  -0.630445  0  1.966286  0  0  -0.569376  0  2.199029  0  0  -0.596196  0  2.18763  0  0  -0.320398  -0.550667  0  2.206348  0
O  O95  1  0.54819288  0.06290033  0.09442384  1  0  -0.664479  0  1.996343  0  0  -0.60269  0  2.238393  0  0  -0.632559  0  2.229925  0  0  -0.323072  -0.581602  0  2.243534  0
O  O96  1  0.45180640  0.93709551  0.90557765  1  0  -0.664429  0  1.996323  0  0  -0.602677  0  2.238388  0  0  -0.632544  0  2.229917  0  0  -0.323097  -0.58159  0  2.24353  0
O  O97  1  0.93276116  0.06046570  0.71851102  1  0  -0.61752  0  1.929755  0  0  -0.567247  0  2.154831  0  0  -0.595361  0  2.146294  0  0  -0.320943  -0.547645  0  2.160089  0
O  O98  1  0.06724323  0.93954750  0.28148957  1  0  -0.61762  0  1.929424  0  0  -0.567358  0  2.154512  0  0  -0.595472  0  2.145978  0  0  -0.321045  -0.547754  0  2.15977  0
O  O99  1  0.99664917  0.90978773  0.86665107  1  0  -0.68493  0  2.036172  0  0  -0.604516  0  2.256233  0  0  -0.633999  0  2.244982  0  0  -0.323535  -0.583733  0  2.26332  0
O  O100  1  0.00334858  0.09021358  0.13334182  1  0  -0.684982  0  2.036054  0  0  -0.604519  0  2.256098  0  0  -0.633996  0  2.244849  0  0  -0.323545  -0.583742  0  2.263186  0
O  O101  1  0.70852503  0.42942521  0.02099931  1  0  -0.668775  0  2.010325  0  0  -0.603451  0  2.234805  0  0  -0.630738  0  2.22587  0  0  -0.324174  -0.584229  0  2.240543  0
O  O102  1  0.29147366  0.57058029  0.97900419  1  0  -0.668805  0  2.010354  0  0  -0.603485  0  2.234795  0  0  -0.63077  0  2.225859  0  0  -0.324177  -0.584263  0  2.240525  0
O  O103  1  0.85529472  0.53798514  0.88461574  1  0  -0.631117  0  1.983857  0  0  -0.569421  0  2.225259  0  0  -0.597802  0  2.212739  0  0  -0.324006  -0.549529  0  2.233303  0
O  O104  1  0.14470959  0.46201354  0.11538171  1  0  -0.631031  0  1.983895  0  0  -0.56936  0  2.225286  0  0  -0.597742  0  2.212765  0  0  -0.323936  -0.549469  0  2.233324  0
O  O105  1  0.71496445  0.89369477  0.85651526  1  0  -0.831897  0  1.84237  0  0  -0.771443  0  2.030554  0  0  -0.793171  0  1.995934  0  0  -0.591866  -0.756075  0  2.054814  0
O  O106  1  0.28503382  0.10630480  0.14348304  1  0  -0.831886  0  1.842358  0  0  -0.771433  0  2.03057  0  0  -0.793166  0  1.995961  0  0  -0.591876  -0.756066  0  2.054832  0
O  O107  1  0.85192192  0.18445912  0.97791127  1  0  -0.842561  0  1.866281  0  0  -0.781854  0  2.063376  0  0  -0.804156  0  2.028809  0  0  -0.59622  -0.7661  0  2.087441  0
O  O108  1  0.14808128  0.81555089  0.02208024  1  0  -0.842642  0  1.866303  0  0  -0.781934  0  2.063379  0  0  -0.804236  0  2.028857  0  0  -0.596281  -0.76619  0  2.087424  0
O  O109  1  0.11545549  0.28031897  0.98762879  1  0  -0.862613  0  1.855358  0  0  -0.802145  0  2.039655  0  0  -0.824682  0  2.005745  0  0  -0.580719  -0.786047  0  2.063523  0
O  O110  1  0.88454709  0.71968251  0.01236680  1  0  -0.86271  0  1.855346  0  0  -0.802239  0  2.039618  0  0  -0.824777  0  2.005701  0  0  -0.580743  -0.786143  0  2.063487  0
O  O111  1  0.16068363  0.57233329  0.82846862  1  0  -0.833389  0  1.828937  0  0  -0.771997  0  2.019384  0  0  -0.794755  0  1.987468  0  0  -0.57953  -0.755946  0  2.040911  0
O  O112  1  0.83932114  0.42766724  0.17152651  1  0  -0.833479  0  1.828869  0  0  -0.772109  0  2.019334  0  0  -0.794864  0  1.98741  0  0  -0.579533  -0.756054  0  2.040862  0
