# generated using pymatgen
data_LaH13(C4O3)4
_symmetry_space_group_name_H-M   'P 1'
_cell_length_a   9.04521614
_cell_length_b   9.89394580
_cell_length_c   12.20424686
_cell_angle_alpha   100.14194551
_cell_angle_beta   104.11544819
_cell_angle_gamma   108.42272011
_symmetry_Int_Tables_number   1
_chemical_formula_structural   LaH13(C4O3)4
_chemical_formula_sum   'La2 H26 C32 O24'
_cell_volume   966.14532951
_cell_formula_units_Z   2
loop_
 _symmetry_equiv_pos_site_id
 _symmetry_equiv_pos_as_xyz
  1  'x, y, z'
loop_
 _atom_site_type_symbol
 _atom_site_label
 _atom_site_symmetry_multiplicity
 _atom_site_fract_x
 _atom_site_fract_y
 _atom_site_fract_z
 _atom_site_occupancy
 _atom_site_hle17_bader_spin_density
 _atom_site_hle17_ddec_charge
 _atom_site_hle17_ddec_spin_density
 _atom_site_hle17_ddec_sum_bond_order
 _atom_site_hle17_magmom
 _atom_site_hse06_10hf_bader_spin_density
 _atom_site_hse06_10hf_ddec_charge
 _atom_site_hse06_10hf_ddec_spin_density
 _atom_site_hse06_10hf_ddec_sum_bond_order
 _atom_site_hse06_10hf_magmom
 _atom_site_hse06_bader_spin_density
 _atom_site_hse06_ddec_charge
 _atom_site_hse06_ddec_spin_density
 _atom_site_hse06_ddec_sum_bond_order
 _atom_site_hse06_magmom
 _atom_site_pbe_bader_spin_density
 _atom_site_pbe_cm5_charge
 _atom_site_pbe_ddec_charge
 _atom_site_pbe_ddec_spin_density
 _atom_site_pbe_ddec_sum_bond_order
 _atom_site_pbe_magmom
La  La0  1  0.26907354  0.03780904  0.95957103  1  0  2.116027  0  1.779305  0  0  1.988164  0  2.303269  0  0  2.089021  0  2.20375  0  0  1.403181  1.912512  0  2.372902  0
La  La1  1  0.73092702  0.96219023  0.04042329  1  0  2.116026  0  1.77929  0  0  1.988206  0  2.303167  0  0  2.089063  0  2.203647  0  0  1.403185  1.912546  0  2.372801  0
H  H2  1  0.68367822  0.42748555  0.32877743  1  0  0.10454  0  0.958076  0  0  0.111653  0  1.025046  0  0  0.116414  0  1.020273  0  0  0.104242  0.10805  0  1.028799  0
H  H3  1  0.31632028  0.57251149  0.67121782  1  0  0.104513  0  0.958091  0  0  0.111631  0  1.025048  0  0  0.116415  0  1.020245  0  0  0.10425  0.108029  0  1.028801  0
H  H4  1  0.67847567  0.46467615  0.68536002  1  0  0.114428  0  0.98273  0  0  0.119976  0  1.052613  0  0  0.122368  0  1.053092  0  0  0.104578  0.118197  0  1.052457  0
H  H5  1  0.32152916  0.53532736  0.31464716  1  0  0.114514  0  0.982772  0  0  0.1201  0  1.0526  0  0  0.122491  0  1.053079  0  0  0.10461  0.118319  0  1.052445  0
H  H6  1  0.28420534  0.11962017  0.39864803  1  0  0.125988  0  0.929501  0  0  0.136002  0  0.988408  0  0  0.140682  0  0.984441  0  0  0.114813  0.132605  0  0.991204  0
H  H7  1  0.71581117  0.88037887  0.60135475  1  0  0.126033  0  0.929341  0  0  0.136064  0  0.988224  0  0  0.140745  0  0.984256  0  0  0.114806  0.132654  0  0.991036  0
H  H8  1  0.34163368  0.49811311  0.05260244  1  0  0.122922  0  0.934742  0  0  0.129652  0  0.998131  0  0  0.134722  0  0.993718  0  0  0.113298  0.125896  0  1.001604  0
H  H9  1  0.65837341  0.50189039  0.94740431  1  0  0.122959  0  0.9347  0  0  0.129653  0  0.998119  0  0  0.134724  0  0.993705  0  0  0.113301  0.125897  0  1.00159  0
H  H10  1  0.22537810  0.86349651  0.20584316  1  0  0.127731  0  0.962989  0  0  0.136049  0  1.025211  0  0  0.139972  0  1.023014  0  0  0.116839  0.133274  0  1.026818  0
H  H11  1  0.77461593  0.13650616  0.79414973  1  0  0.127756  0  0.963017  0  0  0.13605  0  1.025266  0  0  0.139969  0  1.023071  0  0  0.11685  0.133276  0  1.026874  0
H  H12  1  0.90763909  0.41176281  0.15662396  1  0  0.118498  0  0.943948  0  0  0.127562  0  1.007617  0  0  0.131678  0  1.004154  0  0  0.114132  0.124509  0  1.010274  0
H  H13  1  0.09236494  0.58823634  0.84337749  1  0  0.118489  0  0.943931  0  0  0.127542  0  1.007613  0  0  0.131666  0  1.00414  0  0  0.114109  0.124493  0  1.010266  0
H  H14  1  0.01335085  0.71937124  0.50714708  1  0  0.418315  0  0.776319  0  0  0.40516  0  0.824219  0  0  0.414558  0  0.8145  0  0  0.355006  0.398353  0  0.831413  0
H  H15  1  0.98664296  0.28062798  0.49285344  1  0  0.418264  0  0.776352  0  0  0.405109  0  0.824253  0  0  0.414508  0  0.814533  0  0  0.354984  0.398302  0  0.831447  0
H  H16  1  0.43981185  0.27515211  0.70436946  1  0  0.386383  0  0.857443  0  0  0.361801  0  0.931626  0  0  0.371273  0  0.920733  0  0  0.312464  0.354945  0  0.939563  0
H  H17  1  0.56018252  0.72484045  0.29562849  1  0  0.386254  0  0.857639  0  0  0.361693  0  0.931797  0  0  0.371167  0  0.920904  0  0  0.312419  0.35484  0  0.939728  0
H  H18  1  0.87250554  0.62534858  0.24911873  1  0  0.401333  0  0.801045  0  0  0.388452  0  0.849288  0  0  0.395854  0  0.841451  0  0  0.34535  0.383112  0  0.855059  0
H  H19  1  0.12749422  0.37465396  0.75088087  1  0  0.401328  0  0.801063  0  0  0.388447  0  0.849303  0  0  0.395848  0  0.841468  0  0  0.345348  0.383107  0  0.855075  0
H  H20  1  0.13874363  0.78163713  0.73477205  1  0  0.424242  0  0.875874  0  0  0.392876  0  0.94151  0  0  0.404151  0  0.924809  0  0  0.295171  0.38476  0  0.953529  0
H  H21  1  0.86125296  0.21836882  0.26522425  1  0  0.424268  0  0.87584  0  0  0.392897  0  0.941482  0  0  0.404171  0  0.924783  0  0  0.295197  0.38478  0  0.953501  0
H  H22  1  0.92120136  0.96634801  0.78704040  1  0  0.429152  0  0.872026  0  0  0.397479  0  0.938317  0  0  0.408769  0  0.921894  0  0  0.299157  0.389379  0  0.950063  0
H  H23  1  0.07879709  0.03365673  0.21296177  1  0  0.429152  0  0.872019  0  0  0.397466  0  0.938332  0  0  0.408757  0  0.921908  0  0  0.299161  0.389365  0  0.95008  0
H  H24  1  0.32881032  0.80213015  0.79316144  1  0  0.420113  0  0.887334  0  0  0.389158  0  0.95264  0  0  0.399968  0  0.936998  0  0  0.294381  0.381436  0  0.963787  0
H  H25  1  0.67118435  0.19787143  0.20682975  1  0  0.419997  0  0.887493  0  0  0.389051  0  0.952788  0  0  0.39986  0  0.937147  0  0  0.294344  0.381328  0  0.963936  0
H  H26  1  0.03768494  0.11153844  0.76928711  1  0  0.423765  0  0.868976  0  0  0.395929  0  0.927148  0  0  0.406083  0  0.912332  0  0  0.303257  0.388668  0  0.937719  0
H  H27  1  0.96231559  0.88846851  0.23071576  1  0  0.423812  0  0.868903  0  0  0.395927  0  0.927146  0  0  0.406082  0  0.912329  0  0  0.303278  0.388667  0  0.937717  0
C  C28  1  0.40473113  0.18950440  0.22183002  1  0  0.658377  0  3.876022  0  0  0.609811  0  4.16435  0  0  0.644143  0  4.15905  0  0  0.213167  0.586614  0  4.166999  0
C  C29  1  0.59527577  0.81050132  0.77817704  1  0  0.658238  0  3.87561  0  0  0.609729  0  4.1639  0  0  0.644057  0  4.158608  0  0  0.213245  0.586534  0  4.166544  0
C  C30  1  0.47771628  0.26490327  0.35051111  1  0  -0.047124  0  3.783014  0  0  -0.02214  0  4.022043  0  0  -0.028862  0  4.043505  0  0  -0.017911  -0.01804  0  4.007632  0
C  C31  1  0.52228082  0.73509041  0.64948584  1  0  -0.047079  0  3.782898  0  0  -0.022116  0  4.021896  0  0  -0.028837  0  4.043366  0  0  -0.017822  -0.018015  0  4.007483  0
C  C32  1  0.62623143  0.38734687  0.39124210  1  0  -0.090479  0  3.723382  0  0  -0.135828  0  3.983154  0  0  -0.133743  0  4.001155  0  0  -0.091644  -0.136955  0  3.971213  0
C  C33  1  0.37375487  0.61264025  0.60875033  1  0  -0.090565  0  3.723738  0  0  -0.135903  0  3.983502  0  0  -0.133833  0  4.001485  0  0  -0.091732  -0.137032  0  3.971564  0
C  C34  1  0.69790584  0.45787428  0.51157841  1  0  -0.065504  0  3.817041  0  0  -0.041801  0  4.058063  0  0  -0.050786  0  4.083613  0  0  -0.022852  -0.036195  0  4.041035  0
C  C35  1  0.30208859  0.54211817  0.48842690  1  0  -0.065392  0  3.817457  0  0  -0.041702  0  4.058472  0  0  -0.050685  0  4.084035  0  0  -0.022883  -0.036097  0  4.041445  0
C  C36  1  0.62150584  0.40713890  0.59194842  1  0  -0.185789  0  3.683302  0  0  -0.218904  0  3.931986  0  0  -0.221579  0  3.95449  0  0  -0.090361  -0.216737  0  3.916771  0
C  C37  1  0.37848653  0.59285132  0.40805784  1  0  -0.185961  0  3.683489  0  0  -0.219108  0  3.932166  0  0  -0.221787  0  3.954673  0  0  -0.090366  -0.216937  0  3.916948  0
C  C38  1  0.47153980  0.28522282  0.55058143  1  0  0.327619  0  3.829883  0  0  0.324742  0  4.094928  0  0  0.332917  0  4.112818  0  0  0.08467  0.318919  0  4.082063  0
C  C39  1  0.52844865  0.71475877  0.44940725  1  0  0.327591  0  3.829774  0  0  0.324731  0  4.094799  0  0  0.332907  0  4.112691  0  0  0.084711  0.318909  0  4.081929  0
C  C40  1  0.40068718  0.21424938  0.42962608  1  0  -0.145573  0  3.636018  0  0  -0.182693  0  3.88567  0  0  -0.183621  0  3.902062  0  0  -0.081395  -0.181287  0  3.873612  0
C  C41  1  0.59931503  0.78573759  0.57036990  1  0  -0.145638  0  3.635885  0  0  -0.182754  0  3.885517  0  0  -0.18368  0  3.901908  0  0  -0.081431  -0.18134  0  3.873465  0
C  C42  1  0.85467899  0.58845332  0.55615818  1  0  0.649456  0  3.792451  0  0  0.598254  0  4.095133  0  0  0.631293  0  4.086511  0  0  0.237487  0.575733  0  4.100614  0
C  C43  1  0.14533011  0.41156013  0.44385373  1  0  0.649601  0  3.792899  0  0  0.598322  0  4.095648  0  0  0.631342  0  4.087048  0  0  0.237484  0.575804  0  4.101129  0
C  C44  1  0.07981826  0.27709684  0.05269986  1  0  0.711866  0  3.863422  0  0  0.665003  0  4.156075  0  0  0.701952  0  4.147372  0  0  0.238944  0.639633  0  4.161078  0
C  C45  1  0.92018347  0.72290236  0.94729793  1  0  0.711863  0  3.863252  0  0  0.665046  0  4.155903  0  0  0.701995  0  4.147197  0  0  0.238937  0.639674  0  4.160906  0
C  C46  1  0.11997695  0.43949879  0.09972139  1  0  -0.04526  0  3.769377  0  0  -0.019422  0  4.000783  0  0  -0.026113  0  4.022228  0  0  -0.013974  -0.015284  0  3.986559  0
C  C47  1  0.88003141  0.56050256  0.90027951  1  0  -0.045058  0  3.769187  0  0  -0.01938  0  4.000784  0  0  -0.026072  0  4.022231  0  0  -0.01398  -0.015241  0  3.986563  0
C  C48  1  0.26246235  0.53983252  0.09098382  1  0  -0.11116  0  3.724253  0  0  -0.150296  0  3.978876  0  0  -0.149369  0  3.995367  0  0  -0.087352  -0.150749  0  3.968184  0
C  C49  1  0.73754489  0.46016882  0.90901853  1  0  -0.111185  0  3.72416  0  0  -0.150206  0  3.978814  0  0  -0.149277  0  3.995305  0  0  -0.087319  -0.150658  0  3.968119  0
C  C50  1  0.29838671  0.69183593  0.12776364  1  0  -0.055054  0  3.808656  0  0  -0.032203  0  4.049169  0  0  -0.03778  0  4.068994  0  0  -0.016221  -0.028725  0  4.036211  0
C  C51  1  0.70162197  0.30816869  0.87224192  1  0  -0.055154  0  3.808764  0  0  -0.032358  0  4.049318  0  0  -0.037937  0  4.069144  0  0  -0.01627  -0.028875  0  4.036355  0
C  C52  1  0.19752266  0.74482816  0.17828604  1  0  -0.165927  0  3.660992  0  0  -0.199708  0  3.912439  0  0  -0.20133  0  3.929414  0  0  -0.085892  -0.198861  0  3.901506  0
C  C53  1  0.80248181  0.25517215  0.82171157  1  0  -0.165886  0  3.660968  0  0  -0.199657  0  3.91246  0  0  -0.201274  0  3.929429  0  0  -0.085917  -0.198813  0  3.901529  0
C  C54  1  0.05999941  0.64381747  0.19209892  1  0  0.319435  0  3.805669  0  0  0.31078  0  4.07982  0  0  0.318782  0  4.096588  0  0  0.080779  0.304979  0  4.068672  0
C  C55  1  0.93999892  0.35618175  0.80789992  1  0  0.319425  0  3.805777  0  0  0.310797  0  4.079889  0  0  0.3188  0  4.096652  0  0  0.080797  0.304997  0  4.068743  0
C  C56  1  0.01817790  0.49133747  0.15031971  1  0  -0.179394  0  3.711312  0  0  -0.215389  0  3.969256  0  0  -0.216659  0  3.987026  0  0  -0.088533  -0.214138  0  3.957356  0
C  C57  1  0.98182041  0.50866178  0.84967667  1  0  -0.179418  0  3.711346  0  0  -0.215356  0  3.969312  0  0  -0.216631  0  3.987079  0  0  -0.088456  -0.214108  0  3.957415  0
C  C58  1  0.44543467  0.79455667  0.10955382  1  0  0.668785  0  3.879015  0  0  0.626173  0  4.163382  0  0  0.661473  0  4.157395  0  0  0.220366  0.60191  0  4.166574  0
C  C59  1  0.55456527  0.20544364  0.89044547  1  0  0.668707  0  3.879034  0  0  0.626156  0  4.163308  0  0  0.661452  0  4.157328  0  0  0.220356  0.601893  0  4.1665  0
O  O60  1  0.26070052  0.08847903  0.17960936  1  0  -0.674979  0  2.033675  0  0  -0.619188  0  2.270405  0  0  -0.649874  0  2.262359  0  0  -0.332058  -0.597458  0  2.274952  0
O  O61  1  0.73931547  0.91153232  0.82039031  1  0  -0.67499  0  2.033353  0  0  -0.619284  0  2.270117  0  0  -0.649965  0  2.262064  0  0  -0.332185  -0.597551  0  2.274662  0
O  O62  1  0.49146183  0.22712430  0.15539388  1  0  -0.67837  0  1.980262  0  0  -0.624341  0  2.207836  0  0  -0.654736  0  2.199734  0  0  -0.349334  -0.602738  0  2.212734  0
O  O63  1  0.50852759  0.77287280  0.84460145  1  0  -0.678216  0  1.980218  0  0  -0.624186  0  2.207732  0  0  -0.654581  0  2.199639  0  0  -0.349282  -0.602585  0  2.212628  0
O  O64  1  0.91406654  0.62915434  0.46983218  1  0  -0.544313  0  2.062019  0  0  -0.50382  0  2.273869  0  0  -0.522965  0  2.257982  0  0  -0.329492  -0.490338  0  2.284534  0
O  O65  1  0.08593530  0.37084277  0.53015711  1  0  -0.544431  0  2.062381  0  0  -0.503926  0  2.274282  0  0  -0.523066  0  2.258401  0  0  -0.329605  -0.490445  0  2.284948  0
O  O66  1  0.92743057  0.65552533  0.66046825  1  0  -0.534265  0  2.006291  0  0  -0.482721  0  2.222815  0  0  -0.504166  0  2.215427  0  0  -0.258446  -0.468134  0  2.227842  0
O  O67  1  0.07255577  0.34447694  0.33955439  1  0  -0.534217  0  2.006455  0  0  -0.482621  0  2.222982  0  0  -0.50406  0  2.215599  0  0  -0.258329  -0.468036  0  2.228009  0
O  O68  1  0.38458079  0.22923332  0.61954304  1  0  -0.505585  0  2.093712  0  0  -0.46024  0  2.289519  0  0  -0.477185  0  2.280438  0  0  -0.35409  -0.448043  0  2.295285  0
O  O69  1  0.61542310  0.77076033  0.38045263  1  0  -0.505384  0  2.093743  0  0  -0.460086  0  2.289548  0  0  -0.477031  0  2.280467  0  0  -0.354037  -0.44789  0  2.295308  0
O  O70  1  0.17720358  0.24117137  0.00549845  1  0  -0.700202  0  2.05362  0  0  -0.658008  0  2.317025  0  0  -0.691602  0  2.307964  0  0  -0.390153  -0.633832  0  2.322393  0
O  O71  1  0.82280045  0.75882776  0.99450382  1  0  -0.700267  0  2.053622  0  0  -0.658061  0  2.316975  0  0  -0.691658  0  2.307914  0  0  -0.39013  -0.633883  0  2.322343  0
O  O72  1  0.95171392  0.18469516  0.06149617  1  0  -0.710023  0  2.049544  0  0  -0.664114  0  2.322904  0  0  -0.699213  0  2.312933  0  0  -0.407452  -0.638133  0  2.328132  0
O  O73  1  0.04828941  0.81530516  0.93850125  1  0  -0.710074  0  2.049486  0  0  -0.664158  0  2.322826  0  0  -0.699255  0  2.312856  0  0  -0.407488  -0.638191  0  2.32809  0
O  O74  1  0.57898058  0.77218713  0.13765717  1  0  -0.646613  0  1.899559  0  0  -0.599073  0  2.120346  0  0  -0.628072  0  2.110463  0  0  -0.347168  -0.578433  0  2.126533  0
O  O75  1  0.42101836  0.22781868  0.86234770  1  0  -0.64658  0  1.899425  0  0  -0.599059  0  2.12021  0  0  -0.628059  0  2.110328  0  0  -0.347157  -0.578419  0  2.126397  0
O  O76  1  0.43398955  0.89950621  0.06346108  1  0  -0.729012  0  2.036415  0  0  -0.676121  0  2.293393  0  0  -0.714599  0  2.28785  0  0  -0.392124  -0.648157  0  2.296033  0
O  O77  1  0.56600990  0.10049303  0.93653550  1  0  -0.728986  0  2.036508  0  0  -0.6761  0  2.293442  0  0  -0.714576  0  2.287898  0  0  -0.392118  -0.648137  0  2.296081  0
O  O78  1  0.96944778  0.70295902  0.24721158  1  0  -0.51521  0  2.110538  0  0  -0.460234  0  2.305974  0  0  -0.47643  0  2.295629  0  0  -0.336901  -0.44849  0  2.312949  0
O  O79  1  0.03055376  0.29704240  0.75278734  1  0  -0.515234  0  2.110567  0  0  -0.460269  0  2.305989  0  0  -0.476465  0  2.295642  0  0  -0.336933  -0.448525  0  2.312964  0
O  O80  1  0.03110975  0.01332767  0.77861286  1  0  -0.857516  0  1.815283  0  0  -0.811395  0  1.989726  0  0  -0.835743  0  1.957365  0  0  -0.622818  -0.793613  0  2.012333  0
O  O81  1  0.96889176  0.98668143  0.22139461  1  0  -0.857551  0  1.815252  0  0  -0.811381  0  1.989748  0  0  -0.835729  0  1.957383  0  0  -0.622812  -0.793603  0  2.012354  0
O  O82  1  0.25177182  0.85422735  0.77687436  1  0  -0.881612  0  1.848292  0  0  -0.837025  0  2.031  0  0  -0.861632  0  1.997533  0  0  -0.635119  -0.819117  0  2.054356  0
O  O83  1  0.74822497  0.14577637  0.22312163  1  0  -0.881537  0  1.848378  0  0  -0.836964  0  2.031083  0  0  -0.861569  0  1.997617  0  0  -0.635111  -0.819058  0  2.054439  0
