# generated using pymatgen
data_MnH8(CN2)6
_symmetry_space_group_name_H-M   'P 1'
_cell_length_a   5.12827221
_cell_length_b   6.20351168
_cell_length_c   8.66349488
_cell_angle_alpha   102.49205833
_cell_angle_beta   86.18903079
_cell_angle_gamma   97.86540375
_symmetry_Int_Tables_number   1
_chemical_formula_structural   MnH8(CN2)6
_chemical_formula_sum   'Mn1 H8 C6 N12'
_cell_volume   266.36420635
_cell_formula_units_Z   1
loop_
 _symmetry_equiv_pos_site_id
 _symmetry_equiv_pos_as_xyz
  1  'x, y, z'
loop_
 _atom_site_type_symbol
 _atom_site_label
 _atom_site_symmetry_multiplicity
 _atom_site_fract_x
 _atom_site_fract_y
 _atom_site_fract_z
 _atom_site_occupancy
 _atom_site_pbe_cm5_charge
 _atom_site_pbe_ddec_charge
 _atom_site_pbe_ddec_spin_density
 _atom_site_pbe_ddec_sum_bond_order
 _atom_site_pbe_magmom
Mn  Mn0  1  0.00858992  0.01785556  0.00856343  1  0.742757  0.535665  1.030993  3.837522  0.991
H  H1  1  0.56904230  0.03090301  0.31788690  1  0.138162  0.096523  0.000241  1.031029  0.0
H  H2  1  0.43077482  0.97117018  0.68734960  1  0.138077  0.096198  -4.7e-05  1.033395  0.0
H  H3  1  0.14886674  0.60183230  0.16018167  1  0.142973  0.113859  -0.000199  1.038486  0.0
H  H4  1  0.85889864  0.40901917  0.84178534  1  0.143905  0.115388  -2.8e-05  1.036494  0.0
H  H5  1  0.99249472  0.32731339  0.34003766  1  0.120624  0.107137  -0.000764  1.035952  0.0
H  H6  1  0.00898582  0.67108176  0.65533379  1  0.119843  0.107541  -0.000226  1.033581  0.0
H  H7  1  0.71483777  0.38478847  0.47445173  1  0.112903  0.091069  -5.2e-05  1.043195  0.0
H  H8  1  0.28663747  0.61153419  0.52188942  1  0.112462  0.090277  -6e-06  1.046845  0.0
C  C9  1  0.69668840  0.90280034  0.30792258  1  0.144898  0.124789  0.000734  3.964634  0.001
C  C10  1  0.30350675  0.09926935  0.69542044  1  0.14619  0.127691  -0.000655  3.957869  0.0
C  C11  1  0.99384238  0.68949577  0.22592664  1  0.170112  0.087719  6.2e-05  3.844503  0.001
C  C12  1  0.01081064  0.31736709  0.77617670  1  0.169615  0.083917  0.000959  3.849864  0.002
C  C13  1  0.90678246  0.45390912  0.43013308  1  -0.050573  -0.123589  -0.000381  3.860514  0.0
C  C14  1  0.09418092  0.54330430  0.56613305  1  -0.051323  -0.122854  2e-06  3.860504  0.0
N  N15  1  0.86293686  0.63087672  0.35298733  1  -0.131941  0.186356  0.00017  3.718778  0.0
N  N16  1  0.13614299  0.36752400  0.64499314  1  -0.133025  0.185635  0.00063  3.718766  0.001
N  N17  1  0.67335479  0.76557513  0.40757347  1  -0.218538  -0.260053  4.7e-05  3.114304  0.0
N  N18  1  0.32271120  0.22959583  0.59111373  1  -0.220095  -0.262576  -0.000858  3.109595  -0.001
N  N19  1  0.89347032  0.86333025  0.19386214  1  -0.342004  -0.260642  -0.004804  3.582946  -0.009
N  N20  1  0.11223577  0.14672000  0.81201901  1  -0.344204  -0.258435  -0.00484  3.591938  -0.009
N  N21  1  0.73447598  0.18993508  0.06312706  1  -0.283202  -0.372666  0.014957  3.346742  0.022
N  N22  1  0.26177607  0.79857943  0.94318384  1  -0.260592  -0.389677  -0.00041  3.171102  -0.003
N  N23  1  0.51065898  0.21293043  0.09466109  1  0.065905  0.382042  -0.050906  4.310492  -0.046
N  N24  1  0.48326770  0.77810386  0.90209376  1  0.089722  0.399294  -0.003592  4.426543  -0.002
N  N25  1  0.27946165  0.23421394  0.12468081  1  -0.299872  -0.457583  0.022105  3.090271  0.026
N  N26  1  0.70456966  0.75099663  0.86051674  1  -0.222781  -0.423025  -0.003132  2.831313  -0.003
