# generated using pymatgen
data_V2H8C12N2O5
_symmetry_space_group_name_H-M   'P 1'
_cell_length_a   6.48851822
_cell_length_b   9.75650474
_cell_length_c   19.81462661
_cell_angle_alpha   100.14804127
_cell_angle_beta   89.98431168
_cell_angle_gamma   89.95031929
_symmetry_Int_Tables_number   1
_chemical_formula_structural   V2H8C12N2O5
_chemical_formula_sum   'V8 H32 C48 N8 O20'
_cell_volume   1234.74585828
_cell_formula_units_Z   4
loop_
 _symmetry_equiv_pos_site_id
 _symmetry_equiv_pos_as_xyz
  1  'x, y, z'
loop_
 _atom_site_type_symbol
 _atom_site_label
 _atom_site_symmetry_multiplicity
 _atom_site_fract_x
 _atom_site_fract_y
 _atom_site_fract_z
 _atom_site_occupancy
 _atom_site_pbe_bader_spin_density
 _atom_site_pbe_cm5_charge
 _atom_site_pbe_ddec_charge
 _atom_site_pbe_ddec_spin_density
 _atom_site_pbe_ddec_sum_bond_order
 _atom_site_pbe_magmom
V  V0  1  0.24959447  0.56146966  0.84364644  1  0  1.523299  1.952329  0  3.327131  0
V  V1  1  0.75040611  0.43852952  0.15635214  1  0  1.523306  1.952319  0  3.327223  0
V  V2  1  0.75026860  0.45608773  0.62950007  1  0  1.525796  1.956069  0  3.317411  0
V  V3  1  0.24973352  0.54391248  0.37050062  1  0  1.525809  1.956086  0  3.317391  0
V  V4  1  0.74967236  0.63094002  0.80214258  1  0  1.473014  2.027182  0  3.408774  0
V  V5  1  0.25032668  0.36905915  0.19785751  1  0  1.473042  2.027209  0  3.408702  0
V  V6  1  0.25011436  0.39610201  0.67562903  1  0  1.472783  2.02089  0  3.399346  0
V  V7  1  0.74988776  0.60389821  0.32436964  1  0  1.472766  2.020822  0  3.399306  0
H  H8  1  0.24940031  0.47554569  0.98813581  1  0  0.123585  0.095652  0  0.99862  0
H  H9  1  0.75060335  0.52445349  0.01186327  1  0  0.123581  0.095635  0  0.998654  0
H  H10  1  0.24941467  0.58683543  0.11175571  1  0  0.114246  0.126955  0  1.024469  0
H  H11  1  0.75059054  0.41316166  0.88824369  1  0  0.114259  0.12697  0  1.024446  0
H  H12  1  0.24987209  0.84930558  0.14217531  1  0  0.113345  0.111756  0  1.005411  0
H  H13  1  0.75013004  0.15069151  0.85782409  1  0  0.113338  0.111737  0  1.005385  0
H  H14  1  0.25063132  0.20649630  0.87483003  1  0  0.107114  0.133385  0  1.03962  0
H  H15  1  0.74937234  0.79350286  0.12517107  1  0  0.107111  0.133407  0  1.0396  0
H  H16  1  0.25028637  0.06616856  0.75777223  1  0  0.106135  0.129741  0  1.028355  0
H  H17  1  0.74972191  0.93383164  0.24222946  1  0  0.106112  0.129713  0  1.028374  0
H  H18  1  0.24954446  0.80216160  0.74386688  1  0  0.123391  0.08746  0  1.000455  0
H  H19  1  0.75046382  0.19783862  0.25613279  1  0  0.123382  0.087497  0  1.000425  0
H  H20  1  0.25020631  0.08030002  0.10115185  1  0  0.106813  0.12178  0  1.029863  0
H  H21  1  0.74979428  0.91969603  0.89884745  1  0  0.106802  0.121763  0  1.029848  0
H  H22  1  0.25056192  0.20994613  0.00439944  1  0  0.11126  0.119952  0  0.976349  0
H  H23  1  0.74943712  0.79005302  0.99560166  1  0  0.111243  0.119909  0  0.976295  0
H  H24  1  0.75074041  0.26344322  0.75306675  1  0  0.125297  0.08854  0  0.985165  0
H  H25  1  0.24925708  0.73655908  0.24693311  1  0  0.125308  0.088556  0  0.985165  0
H  H26  1  0.75083649  0.00580929  0.76171424  1  0  0.10245  0.120103  0  1.039339  0
H  H27  1  0.24915638  0.99419300  0.23828613  1  0  0.102472  0.120129  0  1.039342  0
H  H28  1  0.75051155  0.83001711  0.65529971  1  0  0.114036  0.126638  0  1.004306  0
H  H29  1  0.24948285  0.16998517  0.34470066  1  0  0.114029  0.126628  0  1.004314  0
H  H30  1  0.74917807  0.06963232  0.35298096  1  0  0.112942  0.115148  0  0.998263  0
H  H31  1  0.25081942  0.93036997  0.64701941  1  0  0.112938  0.115126  0  0.998211  0
H  H32  1  0.74887147  0.33079153  0.35971007  1  0  0.113731  0.107114  0  1.036233  0
H  H33  1  0.25112448  0.66920973  0.64028970  1  0  0.11375  0.10717  0  1.036155  0
H  H34  1  0.74955901  0.48428098  0.47412620  1  0  0.128794  0.108357  0  0.988966  0
H  H35  1  0.25043849  0.51571922  0.52587398  1  0  0.128791  0.108359  0  0.98896  0
H  H36  1  0.75031646  0.77917534  0.52555234  1  0  0.109926  0.132554  0  0.987031  0
H  H37  1  0.24968103  0.22082591  0.47444794  1  0  0.109902  0.132549  0  0.987011  0
H  H38  1  0.74986891  0.86911567  0.41491298  1  0  0.104956  0.110146  0  1.046543  0
H  H39  1  0.25012859  0.13088454  0.58508670  1  0  0.104951  0.110156  0  1.046559  0
C  C40  1  0.24951558  0.58844496  0.00357332  1  0  0.063295  0.117239  0  3.915555  0
C  C41  1  0.75048500  0.41155421  0.99642627  1  0  0.063325  0.117297  0  3.915382  0
C  C42  1  0.24956745  0.65243988  0.07276336  1  0  -0.070142  -0.095799  0  3.920889  0
C  C43  1  0.75043622  0.34755617  0.92723595  1  0  -0.070185  -0.095822  0  3.920901  0
C  C44  1  0.24979343  0.79620405  0.08899696  1  0  -0.055451  -0.064759  0  3.90109  0
C  C45  1  0.75020869  0.20379407  0.91100304  1  0  -0.055422  -0.064717  0  3.901133  0
C  C46  1  0.24992305  0.87592171  0.03608993  1  0  -0.000149  0.039314  0  4.019271  0
C  C47  1  0.75007908  0.12407745  0.96391117  1  0  -0.00013  0.039312  0  4.019275  0
C  C48  1  0.24986122  0.80237737  0.96764723  1  0  0.122917  0.135896  0  3.97657  0
C  C49  1  0.75013319  0.19762179  0.03235387  1  0  0.122901  0.13591  0  3.976531  0
C  C50  1  0.24992488  0.87731217  0.91159209  1  0  0.121025  0.131393  0  3.990648  0
C  C51  1  0.75007416  0.12268594  0.08840892  1  0  0.121091  0.13142  0  3.990682  0
C  C52  1  0.25021859  0.02486404  0.92492865  1  0  -0.001441  0.04084  0  4.015487  0
C  C53  1  0.74978045  0.97513304  0.07507125  1  0  -0.001412  0.040877  0  4.015536  0
C  C54  1  0.25036007  0.09289338  0.86764773  1  0  -0.065499  -0.079963  0  3.88692  0
C  C55  1  0.74964205  0.90710578  0.13235336  1  0  -0.065493  -0.079986  0  3.886948  0
C  C56  1  0.25018514  0.01433128  0.80229630  1  0  -0.077853  -0.118609  0  3.92721  0
C  C57  1  0.74982315  0.98566790  0.19770329  1  0  -0.077837  -0.118566  0  3.9273  0
C  C58  1  0.24979241  0.86809385  0.79435290  1  0  0.069414  0.134777  0  3.927148  0
C  C59  1  0.75021279  0.13190532  0.20564719  1  0  0.069398  0.134687  0  3.927163  0
C  C60  1  0.25015546  0.02504320  0.04818612  1  0  -0.081366  -0.121283  0  3.967669  0
C  C61  1  0.74984513  0.97495494  0.95181337  1  0  -0.081346  -0.121217  0  3.967603  0
C  C62  1  0.25034598  0.09631035  0.99465525  1  0  -0.079779  -0.115106  0  3.975462  0
C  C63  1  0.74965152  0.90369089  0.00534553  1  0  -0.079793  -0.115103  0  3.975529  0
C  C64  1  0.75056259  0.18211227  0.70754229  1  0  0.067795  0.132224  0  3.942026  0
C  C65  1  0.24943336  0.81788898  0.29245748  1  0  0.067739  0.132174  0  3.942003  0
C  C66  1  0.75063127  0.03992808  0.71229746  1  0  -0.082632  -0.127604  0  3.954634  0
C  C67  1  0.24936160  0.96007422  0.28770240  1  0  -0.082539  -0.12752  0  3.954444  0
C  C68  1  0.75044309  0.94096150  0.65304217  1  0  -0.0592  -0.065502  0  3.890337  0
C  C69  1  0.24954823  0.05904183  0.34695829  1  0  -0.059268  -0.065578  0  3.890218  0
C  C70  1  0.75019207  0.98474223  0.58879812  1  0  0.000855  0.045206  0  3.999434  0
C  C71  1  0.24980696  0.01525798  0.41120206  1  0  0.000861  0.045204  0  3.99933  0
C  C72  1  0.75011380  0.13036766  0.58926973  1  0  0.122203  0.133349  0  3.984973  0
C  C73  1  0.24988369  0.86963256  0.41072995  1  0  0.122217  0.13339  0  3.984923  0
C  C74  1  0.74988047  0.18143374  0.52579626  1  0  0.122071  0.133626  0  3.975449  0
C  C75  1  0.25011856  0.81856857  0.47420310  1  0  0.122089  0.133618  0  3.975413  0
C  C76  1  0.74971415  0.08588032  0.46306601  1  0  0.001399  0.044436  0  4.021313  0
C  C77  1  0.25028335  0.91411989  0.53693417  1  0  0.00137  0.044456  0  4.02134  0
C  C78  1  0.74934850  0.14117601  0.40189499  1  0  -0.058711  -0.07141  0  3.915937  0
C  C79  1  0.25064591  0.85882524  0.59810529  1  0  -0.058702  -0.071381  0  3.915915  0
C  C80  1  0.74924554  0.28370353  0.40548358  1  0  -0.069615  -0.100276  0  3.93984  0
C  C81  1  0.25075041  0.71629876  0.59451679  1  0  -0.069636  -0.100341  0  3.939721  0
C  C82  1  0.74957551  0.37149844  0.46980787  1  0  0.075086  0.145205  0  3.863381  0
C  C83  1  0.25042198  0.62850281  0.53019240  1  0  0.075083  0.145227  0  3.863309  0
C  C84  1  0.75013549  0.89067540  0.52459850  1  0  -0.078999  -0.110935  0  3.952623  0
C  C85  1  0.24986663  0.10932689  0.47540186  1  0  -0.078972  -0.110898  0  3.952485  0
C  C86  1  0.74989901  0.93969554  0.46410601  1  0  -0.083276  -0.12092  0  3.970563  0
C  C87  1  0.25010003  0.06030363  0.53589409  1  0  -0.08326  -0.120931  0  3.970524  0
N  N88  1  0.24967390  0.66127481  0.95255277  1  0  -0.353075  -0.308491  0  3.531255  0
N  N89  1  0.75032669  0.33872332  0.04744723  1  0  -0.353134  -0.308615  0  3.531147  0
N  N90  1  0.24969732  0.80156730  0.84744515  1  0  -0.337797  -0.32942  0  3.535411  0
N  N91  1  0.75030480  0.19843187  0.15255494  1  0  -0.3378  -0.329378  0  3.535439  0
N  N92  1  0.75030431  0.22595297  0.64774481  1  0  -0.338351  -0.332972  0  3.549824  0
N  N93  1  0.24969780  0.77404829  0.35225497  1  0  -0.338346  -0.332975  0  3.549803  0
N  N94  1  0.74989234  0.32154532  0.52828172  1  0  -0.353537  -0.309639  0  3.510712  0
N  N95  1  0.25011131  0.67845698  0.47171814  1  0  -0.353555  -0.309721  0  3.510726  0
O  O96  1  0.53362461  0.59641928  0.84923787  1  0  -0.676897  -0.952764  0  1.916842  0
O  O97  1  0.46637752  0.40357780  0.15076203  1  0  -0.676913  -0.952754  0  1.916861  0
O  O98  1  0.24962073  0.52746410  0.75046028  1  0  -0.670313  -0.966031  0  1.951702  0
O  O99  1  0.75038139  0.47253508  0.24953829  1  0  -0.670323  -0.966035  0  1.951652  0
O  O100  1  0.75020456  0.51729226  0.72195561  1  0  -0.674529  -0.97592  0  1.959682  0
O  O101  1  0.24979448  0.48270587  0.27804439  1  0  -0.674521  -0.975926  0  1.959663  0
O  O102  1  0.46660101  0.41992386  0.62660030  1  0  -0.67264  -0.942545  0  1.923499  0
O  O103  1  0.53340265  0.58007636  0.37339837  1  0  -0.672647  -0.94251  0  1.923511  0
O  O104  1  0.24982415  0.41262089  0.86865343  1  0  -0.550467  -0.656994  0  1.5713  0
O  O105  1  0.75017489  0.58738037  0.13134635  1  0  -0.550471  -0.65699  0  1.571333  0
O  O106  1  0.74936954  0.79281643  0.79152171  1  0  -0.594723  -0.757756  0  1.507097  0
O  O107  1  0.25062796  0.20718274  0.20847788  1  0  -0.594732  -0.757749  0  1.507118  0
O  O108  1  0.96565990  0.59663310  0.84937148  1  0  -0.676543  -0.952218  0  1.916976  0
O  O109  1  0.03433760  0.40336504  0.15062751  1  0  -0.676571  -0.952267  0  1.916946  0
O  O110  1  0.25045717  0.24199766  0.69663822  1  0  -0.59346  -0.75366  0  1.491459  0
O  O111  1  0.74954495  0.75800256  0.30336146  1  0  -0.593444  -0.753621  0  1.49145  0
O  O112  1  0.75009177  0.59229725  0.59341447  1  0  -0.549914  -0.652248  0  1.530623  0
O  O113  1  0.24990881  0.40770295  0.40658571  1  0  -0.549898  -0.652213  0  1.530614  0
O  O114  1  0.03380452  0.41964629  0.62644098  1  0  -0.672612  -0.942458  0  1.9235  0
O  O115  1  0.96619914  0.58035497  0.37355879  1  0  -0.67262  -0.942473  0  1.923458  0
