# generated using pymatgen
data_TbH13C13(N3O4)2
_symmetry_space_group_name_H-M   'P 1'
_cell_length_a   9.37765464
_cell_length_b   9.61690748
_cell_length_c   10.42218893
_cell_angle_alpha   98.08981410
_cell_angle_beta   102.40764045
_cell_angle_gamma   100.49163410
_symmetry_Int_Tables_number   1
_chemical_formula_structural   TbH13C13(N3O4)2
_chemical_formula_sum   'Tb2 H26 C26 N12 O16'
_cell_volume   886.64430634
_cell_formula_units_Z   2
loop_
 _symmetry_equiv_pos_site_id
 _symmetry_equiv_pos_as_xyz
  1  'x, y, z'
loop_
 _atom_site_type_symbol
 _atom_site_label
 _atom_site_symmetry_multiplicity
 _atom_site_fract_x
 _atom_site_fract_y
 _atom_site_fract_z
 _atom_site_occupancy
 _atom_site_hle17_bader_spin_density
 _atom_site_hle17_ddec_charge
 _atom_site_hle17_ddec_spin_density
 _atom_site_hle17_ddec_sum_bond_order
 _atom_site_hle17_magmom
 _atom_site_hse06_10hf_bader_spin_density
 _atom_site_hse06_10hf_ddec_charge
 _atom_site_hse06_10hf_ddec_spin_density
 _atom_site_hse06_10hf_ddec_sum_bond_order
 _atom_site_hse06_10hf_magmom
 _atom_site_hse06_bader_spin_density
 _atom_site_hse06_ddec_charge
 _atom_site_hse06_ddec_spin_density
 _atom_site_hse06_ddec_sum_bond_order
 _atom_site_hse06_magmom
 _atom_site_pbe_bader_spin_density
 _atom_site_pbe_cm5_charge
 _atom_site_pbe_ddec_charge
 _atom_site_pbe_ddec_spin_density
 _atom_site_pbe_ddec_sum_bond_order
 _atom_site_pbe_magmom
Tb  Tb0  1  0.11891150  0.76141259  0.28013917  1  0  2.017297  0  1.775654  0  0  1.790874  0  2.329135  0  0  1.852464  0  2.279494  0  0  1.513819  1.743516  0  2.369212  0
Tb  Tb1  1  0.88108741  0.23858715  0.71986065  1  0  2.017289  0  1.775655  0  0  1.790862  0  2.329153  0  0  1.852459  0  2.279499  0  0  1.51383  1.743497  0  2.369246  0
H  H2  1  0.04181907  0.57053051  0.65255447  1  0  0.092905  0  0.961124  0  0  0.097896  0  1.032151  0  0  0.101076  0  1.028022  0  0  0.124468  0.095356  0  1.03544  0
H  H3  1  0.95817874  0.42946923  0.34744514  1  0  0.092911  0  0.961184  0  0  0.097894  0  1.032207  0  0  0.101074  0  1.028079  0  0  0.124472  0.095357  0  1.035498  0
H  H4  1  0.13219253  0.83431126  0.75818180  1  0  0.124748  0  0.92963  0  0  0.134451  0  0.983776  0  0  0.137696  0  0.983882  0  0  0.118202  0.132063  0  0.984039  0
H  H5  1  0.86780553  0.16568956  0.24181607  1  0  0.124757  0  0.929635  0  0  0.134464  0  0.98377  0  0  0.137706  0  0.983881  0  0  0.118195  0.132076  0  0.984035  0
H  H6  1  0.15383085  0.90229201  0.00526855  1  0  0.09972  0  0.956847  0  0  0.098121  0  1.032447  0  0  0.102304  0  1.027166  0  0  0.129155  0.095291  0  1.035857  0
H  H7  1  0.84616939  0.09770880  0.99473166  1  0  0.099717  0  0.956869  0  0  0.098117  0  1.032476  0  0  0.1023  0  1.027195  0  0  0.12915  0.095289  0  1.035883  0
H  H8  1  0.63766564  0.89754249  0.61486810  1  0  0.107072  0  0.942474  0  0  0.11138  0  1.004317  0  0  0.114936  0  1.000332  0  0  0.133826  0.108457  0  1.007816  0
H  H9  1  0.36233545  0.10245726  0.38513214  1  0  0.107075  0  0.942448  0  0  0.111383  0  1.004294  0  0  0.114941  0  1.000307  0  0  0.133812  0.108459  0  1.007793  0
H  H10  1  0.61033870  0.64268252  0.49134181  1  0  0.133424  0  0.926053  0  0  0.140915  0  0.983612  0  0  0.14457  0  0.982949  0  0  0.123362  0.138249  0  0.984363  0
H  H11  1  0.38966045  0.35731830  0.50865915  1  0  0.133436  0  0.926055  0  0  0.140935  0  0.983599  0  0  0.144588  0  0.98294  0  0  0.123367  0.138269  0  0.984349  0
H  H12  1  0.81058155  0.59729128  0.37515475  1  0  0.086097  0  0.939699  0  0  0.090497  0  1.009456  0  0  0.093425  0  1.005585  0  0  0.128022  0.088315  0  1.012397  0
H  H13  1  0.18941844  0.40270846  0.62484528  1  0  0.086084  0  0.939696  0  0  0.090483  0  1.009458  0  0  0.093411  0  1.005586  0  0  0.128025  0.088301  0  1.012399  0
H  H14  1  0.45611215  0.09383757  0.12259236  1  0  0.14536  0  0.941065  0  0  0.167487  0  0.995229  0  0  0.169941  0  0.994085  0  0  0.100842  0.164885  0  0.998233  0
H  H15  1  0.54388699  0.90616325  0.87740764  1  0  0.145362  0  0.941077  0  0  0.167492  0  0.995238  0  0  0.169944  0  0.994096  0  0  0.100845  0.164889  0  0.998244  0
H  H16  1  0.60973646  0.00590413  0.12529082  1  0  0.12019  0  0.98164  0  0  0.136731  0  1.047596  0  0  0.138556  0  1.047798  0  0  0.087789  0.13556  0  1.047308  0
H  H17  1  0.39026244  0.99409561  0.87470899  1  0  0.120187  0  0.981628  0  0  0.136742  0  1.047566  0  0  0.138567  0  1.047768  0  0  0.087779  0.13557  0  1.047277  0
H  H18  1  0.57750469  0.09228423  0.27690969  1  0  0.130205  0  0.967428  0  0  0.144575  0  1.039499  0  0  0.147701  0  1.037452  0  0  0.092082  0.14238  0  1.0411  0
H  H19  1  0.42249530  0.90771551  0.72309034  1  0  0.130221  0  0.967417  0  0  0.144589  0  1.039493  0  0  0.147715  0  1.037447  0  0  0.092085  0.142393  0  1.041094  0
H  H20  1  0.56386819  0.75989448  0.12240384  1  0  0.125849  0  1.016372  0  0  0.127993  0  1.089858  0  0  0.131545  0  1.0915  0  0  0.090158  0.125086  0  1.08954  0
H  H21  1  0.43613096  0.24010633  0.87759424  1  0  0.125853  0  1.016371  0  0  0.127996  0  1.089855  0  0  0.13155  0  1.091493  0  0  0.090164  0.125088  0  1.089537  0
H  H22  1  0.45574906  0.43607879  0.24330817  1  0  0.139446  0  0.944583  0  0  0.158881  0  1.003593  0  0  0.162054  0  1.001196  0  0  0.096335  0.156146  0  1.006949  0
H  H23  1  0.54425118  0.56392203  0.75669109  1  0  0.139439  0  0.944572  0  0  0.158874  0  1.003584  0  0  0.162047  0  1.001186  0  0  0.096331  0.15614  0  1.00694  0
H  H24  1  0.56587725  0.52026579  0.14267359  1  0  0.125063  0  0.948495  0  0  0.146245  0  1.00576  0  0  0.14843  0  1.005286  0  0  0.091529  0.144811  0  1.006111  0
H  H25  1  0.43412274  0.47973395  0.85732548  1  0  0.125045  0  0.94846  0  0  0.146235  0  1.00572  0  0  0.148415  0  1.00525  0  0  0.091521  0.144801  0  1.006071  0
H  H26  1  0.37687516  0.42491797  0.07170305  1  0  0.137731  0  0.945109  0  0  0.153411  0  1.013355  0  0  0.157087  0  1.01065  0  0  0.095693  0.150672  0  1.015617  0
H  H27  1  0.62312484  0.57508177  0.92829697  1  0  0.137737  0  0.945105  0  0  0.153418  0  1.013349  0  0  0.157093  0  1.010644  0  0  0.095695  0.150677  0  1.015614  0
C  C28  1  0.02438329  0.55405463  0.96023145  1  0  0.349854  0  3.690656  0  0  0.329399  0  3.939426  0  0  0.343482  0  3.951133  0  0  0.274514  0.320189  0  3.930767  0
C  C29  1  0.97561780  0.44594512  0.03976879  1  0  0.349884  0  3.690622  0  0  0.329433  0  3.939385  0  0  0.343514  0  3.951095  0  0  0.274528  0.320222  0  3.930725  0
C  C30  1  0.05275127  0.60801674  0.75855075  1  0  0.194356  0  3.642101  0  0  0.158284  0  3.898334  0  0  0.168446  0  3.912989  0  0  0.078476  0.151354  0  3.88925  0
C  C31  1  0.94724763  0.39198301  0.24145003  1  0  0.194365  0  3.64212  0  0  0.158305  0  3.898349  0  0  0.168469  0  3.913002  0  0  0.078473  0.15137  0  3.889269  0
C  C32  1  0.10295196  0.75292601  0.81630545  1  0  -0.12823  0  3.637106  0  0  -0.139528  0  3.887066  0  0  -0.150095  0  3.907727  0  0  -0.062509  -0.13353  0  3.875134  0
C  C33  1  0.89704912  0.24707374  0.18369479  1  0  -0.128254  0  3.637087  0  0  -0.139549  0  3.887045  0  0  -0.150114  0  3.907705  0  0  -0.062498  -0.133551  0  3.875115  0
C  C34  1  0.11455049  0.79097578  0.95248016  1  0  0.205518  0  3.633652  0  0  0.170327  0  3.891715  0  0  0.180976  0  3.905956  0  0  0.081533  0.162929  0  3.883075  0
C  C35  1  0.88544950  0.20902396  0.04751987  1  0  0.205497  0  3.633708  0  0  0.170301  0  3.891778  0  0  0.180949  0  3.90602  0  0  0.081516  0.1629  0  3.883139  0
C  C36  1  0.93595410  0.94130950  0.49888022  1  0  0.325804  0  3.752508  0  0  0.305282  0  4.008783  0  0  0.318421  0  4.022072  0  0  0.259449  0.296542  0  3.9996  0
C  C37  1  0.06404589  0.05869024  0.50111981  1  0  0.325826  0  3.752508  0  0  0.305308  0  4.00878  0  0  0.318446  0  4.022069  0  0  0.259446  0.296566  0  3.999597  0
C  C38  1  0.71851463  0.86825469  0.56107280  1  0  0.216434  0  3.607183  0  0  0.185979  0  3.857062  0  0  0.197166  0  3.869353  0  0  0.090622  0.178415  0  3.849393  0
C  C39  1  0.28148622  0.13174398  0.43892822  1  0  0.216423  0  3.6072  0  0  0.185957  0  3.857086  0  0  0.197144  0  3.869375  0  0  0.090628  0.178392  0  3.849418  0
C  C40  1  0.70418437  0.72888224  0.49341582  1  0  -0.135189  0  3.627478  0  0  -0.148967  0  3.87946  0  0  -0.159576  0  3.899888  0  0  -0.058598  -0.142455  0  3.866904  0
C  C41  1  0.29581563  0.27111750  0.50658517  1  0  -0.135271  0  3.627544  0  0  -0.14905  0  3.879535  0  0  -0.159658  0  3.899958  0  0  -0.058651  -0.142537  0  3.866977  0
C  C42  1  0.81499437  0.70422565  0.42900285  1  0  0.210475  0  3.655538  0  0  0.176456  0  3.915098  0  0  0.186848  0  3.93015  0  0  0.080377  0.169259  0  3.905925  0
C  C43  1  0.18500563  0.29577409  0.57099718  1  0  0.210569  0  3.655589  0  0  0.176553  0  3.915145  0  0  0.186944  0  3.930196  0  0  0.080409  0.169354  0  3.905971  0
C  C44  1  0.52356308  0.02822364  0.17628486  1  0  -0.425075  0  3.661201  0  0  -0.502702  0  3.892633  0  0  -0.508755  0  3.895957  0  0  -0.253247  -0.498297  0  3.891048  0
C  C45  1  0.47643691  0.97177610  0.82371613  1  0  -0.425095  0  3.661202  0  0  -0.502735  0  3.892633  0  0  -0.508788  0  3.895958  0  0  -0.253252  -0.49833  0  3.891051  0
C  C46  1  0.42563900  0.89225268  0.19094129  1  0  0.551116  0  3.7474  0  0  0.542938  0  4.005266  0  0  0.569774  0  4.009939  0  0  0.127906  0.524915  0  4.000678  0
C  C47  1  0.57435990  0.10774706  0.80905948  1  0  0.551073  0  3.747495  0  0  0.542886  0  4.00537  0  0  0.569722  0  4.010044  0  0  0.127907  0.524863  0  4.000781  0
C  C48  1  0.46663335  0.76029488  0.16326415  1  0  -0.483252  0  3.701345  0  0  -0.507473  0  3.962035  0  0  -0.533899  0  3.983198  0  0  -0.164352  -0.488784  0  3.947126  0
C  C49  1  0.53336665  0.23970486  0.83673492  1  0  -0.483236  0  3.701401  0  0  -0.507428  0  3.962124  0  0  -0.533854  0  3.983293  0  0  -0.164334  -0.488758  0  3.947188  0
C  C50  1  0.39585176  0.62956536  0.19149001  1  0  0.557265  0  3.749306  0  0  0.548151  0  4.013335  0  0  0.576101  0  4.016041  0  0  0.127428  0.529645  0  4.009664  0
C  C51  1  0.60414824  0.37043438  0.80851002  1  0  0.557342  0  3.749205  0  0  0.548146  0  4.013341  0  0  0.576088  0  4.016062  0  0  0.12744  0.529701  0  4.009572  0
C  C52  1  0.45414340  0.49613757  0.16123487  1  0  -0.417511  0  3.650328  0  0  -0.494057  0  3.879509  0  0  -0.499955  0  3.881072  0  0  -0.250977  -0.490227  0  3.879461  0
C  C53  1  0.54585659  0.50386217  0.83876419  1  0  -0.41752  0  3.650223  0  0  -0.494047  0  3.87943  0  0  -0.499938  0  3.880998  0  0  -0.25098  -0.490236  0  3.879362  0
N  N54  1  0.07631614  0.69123773  0.02463421  1  0  -0.439069  0  3.214251  0  0  -0.380618  0  3.466525  0  0  -0.400122  0  3.486051  0  0  -0.362741  -0.367611  0  3.453917  0
N  N55  1  0.92368251  0.30876093  0.97536542  1  0  -0.439065  0  3.214234  0  0  -0.380617  0  3.466531  0  0  -0.40012  0  3.48605  0  0  -0.362751  -0.367609  0  3.453922  0
N  N56  1  0.01253037  0.50806344  0.82978191  1  0  -0.403331  0  3.160409  0  0  -0.344833  0  3.415046  0  0  -0.361881  0  3.429856  0  0  -0.344277  -0.333283  0  3.404711  0
N  N57  1  0.98746987  0.49193738  0.17021830  1  0  -0.403353  0  3.160417  0  0  -0.344862  0  3.415051  0  0  -0.36191  0  3.429861  0  0  -0.344281  -0.333314  0  3.404719  0
N  N58  1  0.93090141  0.81044219  0.43049476  1  0  -0.459218  0  3.201838  0  0  -0.403784  0  3.46272  0  0  -0.42241  0  3.479754  0  0  -0.35304  -0.391222  0  3.451466  0
N  N59  1  0.06909858  0.18955755  0.56950623  1  0  -0.459253  0  3.20187  0  0  -0.40382  0  3.462753  0  0  -0.422446  0  3.479787  0  0  -0.35303  -0.391257  0  3.451499  0
N  N60  1  0.83517421  0.97471481  0.56515251  1  0  -0.407373  0  3.139583  0  0  -0.353516  0  3.396557  0  0  -0.370563  0  3.411425  0  0  -0.328103  -0.34186  0  3.386433  0
N  N61  1  0.16482687  0.02528493  0.43484773  1  0  -0.40736  0  3.139652  0  0  -0.353506  0  3.396628  0  0  -0.370551  0  3.411495  0  0  -0.328101  -0.341852  0  3.386505  0
N  N62  1  0.27440790  0.68196269  0.52314861  1  0  0.69416  0  4.156616  0  0  0.738453  0  4.431073  0  0  0.768238  0  4.434435  0  0  0.080631  0.7183  0  4.428001  0
N  N63  1  0.72559210  0.31803706  0.47685141  1  0  0.694087  0  4.156679  0  0  0.738379  0  4.431146  0  0  0.768164  0  4.434511  0  0  0.080607  0.718225  0  4.428073  0
N  N64  1  0.85489410  0.83598903  0.11239094  1  0  0.693454  0  4.149385  0  0  0.734382  0  4.425865  0  0  0.764046  0  4.429234  0  0  0.082158  0.714375  0  4.422798  0
N  N65  1  0.14510589  0.16401071  0.88760909  1  0  0.693343  0  4.149543  0  0  0.734306  0  4.425982  0  0  0.76397  0  4.429352  0  0  0.082142  0.714301  0  4.422911  0
O  O66  1  0.30797055  0.90748230  0.23221409  1  0  -0.690824  0  2.094797  0  0  -0.622724  0  2.339923  0  0  -0.650775  0  2.333403  0  0  -0.424985  -0.601982  0  2.343802  0
O  O67  1  0.69202945  0.09251745  0.76778786  1  0  -0.69076  0  2.094745  0  0  -0.622649  0  2.339865  0  0  -0.650701  0  2.333343  0  0  -0.424984  -0.601912  0  2.343749  0
O  O68  1  0.28265838  0.61535115  0.24269603  1  0  -0.684093  0  2.094595  0  0  -0.626747  0  2.33726  0  0  -0.654649  0  2.334154  0  0  -0.408205  -0.60641  0  2.338755  0
O  O69  1  0.71734246  0.38464752  0.75730306  1  0  -0.684133  0  2.094544  0  0  -0.626745  0  2.337243  0  0  -0.65465  0  2.334146  0  0  -0.408206  -0.60643  0  2.338711  0
O  O70  1  0.32551935  0.80029045  0.48985787  1  0  -0.49954  0  1.809069  0  0  -0.492123  0  2.030486  0  0  -0.509183  0  2.025672  0  0  -0.215029  -0.479642  0  2.033557  0
O  O71  1  0.67447955  0.19970929  0.51014099  1  0  -0.499505  0  1.809108  0  0  -0.492089  0  2.03054  0  0  -0.50915  0  2.025722  0  0  -0.215005  -0.479605  0  2.03361  0
O  O72  1  0.13929535  0.61656975  0.46065124  1  0  -0.550056  0  1.838987  0  0  -0.540355  0  2.079718  0  0  -0.558856  0  2.073042  0  0  -0.243215  -0.52627  0  2.083901  0
O  O73  1  0.86070464  0.38342999  0.53934879  1  0  -0.550044  0  1.838994  0  0  -0.54034  0  2.079731  0  0  -0.558839  0  2.07305  0  0  -0.243212  -0.526255  0  2.083914  0
O  O74  1  0.34939615  0.63152860  0.61073617  1  0  -0.404099  0  1.765224  0  0  -0.400643  0  1.964313  0  0  -0.413677  0  1.958737  0  0  -0.147103  -0.391453  0  1.969063  0
O  O75  1  0.65060384  0.36847114  0.38926482  1  0  -0.40405  0  1.765216  0  0  -0.400609  0  1.964301  0  0  -0.413643  0  1.958726  0  0  -0.147104  -0.391419  0  1.969049  0
O  O76  1  0.83763054  0.71222991  0.14542829  1  0  -0.523137  0  1.845873  0  0  -0.517263  0  2.073835  0  0  -0.5358  0  2.071345  0  0  -0.210032  -0.503315  0  2.075403  0
O  O77  1  0.16237079  0.28777091  0.85457214  1  0  -0.523092  0  1.845839  0  0  -0.517209  0  2.073784  0  0  -0.535746  0  2.071292  0  0  -0.210002  -0.503262  0  2.075348  0
O  O78  1  0.97910205  0.92642856  0.17141710  1  0  -0.541154  0  1.81265  0  0  -0.533328  0  2.046831  0  0  -0.551558  0  2.041738  0  0  -0.242513  -0.519415  0  2.049244  0
O  O79  1  0.02089794  0.07357118  0.82858389  1  0  -0.541149  0  1.812692  0  0  -0.533329  0  2.046877  0  0  -0.551561  0  2.041784  0  0  -0.242527  -0.519416  0  2.049289  0
O  O80  1  0.75860014  0.86802592  0.02682346  1  0  -0.392413  0  1.780689  0  0  -0.380468  0  1.974707  0  0  -0.393548  0  1.96879  0  0  -0.139444  -0.370958  0  1.979429  0
O  O81  1  0.24139876  0.13197382  0.97317636  1  0  -0.39236  0  1.780813  0  0  -0.380452  0  1.974795  0  0  -0.393537  0  1.968883  0  0  -0.139455  -0.370949  0  1.979524  0
