# generated using pymatgen
data_GdH15(C3O4)3
_symmetry_space_group_name_H-M   'P 1'
_cell_length_a   7.11298106
_cell_length_b   10.01736735
_cell_length_c   10.51135687
_cell_angle_alpha   115.00788805
_cell_angle_beta   105.23822719
_cell_angle_gamma   99.14920800
_symmetry_Int_Tables_number   1
_chemical_formula_structural   GdH15(C3O4)3
_chemical_formula_sum   'Gd2 H30 C18 O24'
_cell_volume   622.85689922
_cell_formula_units_Z   2
loop_
 _symmetry_equiv_pos_site_id
 _symmetry_equiv_pos_as_xyz
  1  'x, y, z'
loop_
 _atom_site_type_symbol
 _atom_site_label
 _atom_site_symmetry_multiplicity
 _atom_site_fract_x
 _atom_site_fract_y
 _atom_site_fract_z
 _atom_site_occupancy
 _atom_site_hle17_bader_spin_density
 _atom_site_hle17_ddec_charge
 _atom_site_hle17_ddec_spin_density
 _atom_site_hle17_ddec_sum_bond_order
 _atom_site_hle17_magmom
 _atom_site_hse06_10hf_bader_spin_density
 _atom_site_hse06_10hf_ddec_charge
 _atom_site_hse06_10hf_ddec_spin_density
 _atom_site_hse06_10hf_ddec_sum_bond_order
 _atom_site_hse06_10hf_magmom
 _atom_site_hse06_bader_spin_density
 _atom_site_hse06_ddec_charge
 _atom_site_hse06_ddec_spin_density
 _atom_site_hse06_ddec_sum_bond_order
 _atom_site_hse06_magmom
 _atom_site_pbe_bader_spin_density
 _atom_site_pbe_cm5_charge
 _atom_site_pbe_ddec_charge
 _atom_site_pbe_ddec_spin_density
 _atom_site_pbe_ddec_sum_bond_order
 _atom_site_pbe_magmom
Gd  Gd0  1  0.16065039  0.65654427  0.66417859  1  0  2.285719  0  1.65312  0  0  2.210989  0  1.975641  0  0  2.252171  0  1.935156  0  0  1.439613  2.180684  0  2.004666  0
Gd  Gd1  1  0.99640377  0.99231704  0.33575332  1  0  2.285825  0  1.651848  0  0  2.210715  0  1.974623  0  0  2.251623  0  1.934616  0  0  1.439713  2.180869  0  2.003275  0
H  H2  1  0.91273652  0.88435523  0.73272823  1  0  0.423233  0  0.884376  0  0  0.394254  0  0.945547  0  0  0.403974  0  0.931344  0  0  0.299161  0.387451  0  0.955516  0
H  H3  1  0.67995117  0.15150467  0.26719562  1  0  0.423353  0  0.884102  0  0  0.394631  0  0.944764  0  0  0.404371  0  0.930531  0  0  0.299508  0.387739  0  0.954871  0
H  H4  1  0.26404940  0.55688058  0.98317299  1  0  0.105328  0  0.954624  0  0  0.112477  0  1.022748  0  0  0.116911  0  1.018115  0  0  0.112819  0.109261  0  1.025931  0
H  H5  1  0.78037503  0.57380729  0.01691386  1  0  0.105605  0  0.954192  0  0  0.11238  0  1.022878  0  0  0.116749  0  1.018298  0  0  0.112871  0.109315  0  1.02589  0
H  H6  1  0.22443194  0.07851003  0.73784095  1  0  0.112286  0  0.971302  0  0  0.117924  0  1.041852  0  0  0.122618  0  1.036789  0  0  0.115643  0.114224  0  1.046001  0
H  H7  1  0.98648952  0.34070311  0.26208466  1  0  0.113273  0  0.970171  0  0  0.118177  0  1.041475  0  0  0.122897  0  1.036337  0  0  0.11547  0.114331  0  1.045977  0
H  H8  1  0.46323674  0.31619350  0.22339927  1  0  0.098808  0  0.966205  0  0  0.105741  0  1.035162  0  0  0.110107  0  1.030866  0  0  0.107964  0.102211  0  1.039119  0
H  H9  1  0.74037495  0.09311540  0.77655990  1  0  0.098932  0  0.966328  0  0  0.106212  0  1.035034  0  0  0.110604  0  1.030692  0  0  0.108069  0.102769  0  1.038809  0
H  H10  1  0.49754730  0.72480657  0.54573655  1  0  0.428613  0  0.876205  0  0  0.395058  0  0.943657  0  0  0.406844  0  0.926337  0  0  0.298282  0.386652  0  0.956042  0
H  H11  1  0.45184808  0.17893844  0.45420782  1  0  0.42924  0  0.87558  0  0  0.396458  0  0.941814  0  0  0.408239  0  0.924488  0  0  0.299068  0.388048  0  0.954229  0
H  H12  1  0.73288387  0.46295526  0.58608394  1  0  0.430487  0  0.873183  0  0  0.397361  0  0.940526  0  0  0.408958  0  0.923382  0  0  0.301473  0.389097  0  0.952778  0
H  H13  1  0.64677918  0.87696968  0.41405693  1  0  0.428955  0  0.87509  0  0  0.395512  0  0.942724  0  0  0.407204  0  0.925491  0  0  0.300784  0.38724  0  0.954958  0
H  H14  1  0.33816753  0.48205203  0.44135802  1  0  0.431769  0  0.867682  0  0  0.402822  0  0.928314  0  0  0.412581  0  0.913975  0  0  0.306421  0.395927  0  0.938517  0
H  H15  1  0.39676486  0.04092879  0.55875868  1  0  0.430096  0  0.870078  0  0  0.401009  0  0.931084  0  0  0.410776  0  0.916725  0  0  0.305384  0.394115  0  0.941256  0
H  H16  1  0.27234145  0.35058668  0.48026180  1  0  0.451714  0  0.837594  0  0  0.421164  0  0.900787  0  0  0.431478  0  0.885363  0  0  0.311289  0.413695  0  0.911989  0
H  H17  1  0.29232845  0.87056074  0.51996196  1  0  0.452793  0  0.836285  0  0  0.422039  0  0.899922  0  0  0.432423  0  0.884358  0  0  0.311173  0.414612  0  0.911075  0
H  H18  1  0.54834072  0.72972897  0.93987345  1  0  0.440157  0  0.854976  0  0  0.413277  0  0.91195  0  0  0.423736  0  0.896419  0  0  0.2992  0.405784  0  0.923078  0
H  H19  1  0.10842114  0.78989517  0.06012974  1  0  0.440721  0  0.854289  0  0  0.413962  0  0.911034  0  0  0.424372  0  0.895574  0  0  0.299255  0.406351  0  0.922345  0
H  H20  1  0.89345436  0.61459109  0.82868923  1  0  0.420717  0  0.884  0  0  0.389238  0  0.951076  0  0  0.399501  0  0.936098  0  0  0.302435  0.382038  0  0.961564  0
H  H21  1  0.56458921  0.78576703  0.17147730  1  0  0.420473  0  0.884068  0  0  0.389207  0  0.951133  0  0  0.399503  0  0.936072  0  0  0.302172  0.382028  0  0.961602  0
H  H22  1  0.53876848  0.57930866  0.79446617  1  0  0.436672  0  0.862678  0  0  0.40588  0  0.92572  0  0  0.415812  0  0.911224  0  0  0.29942  0.39883  0  0.936017  0
H  H23  1  0.24390736  0.78460108  0.20551654  1  0  0.43764  0  0.86178  0  0  0.406836  0  0.924767  0  0  0.416827  0  0.910183  0  0  0.299434  0.39968  0  0.935241  0
H  H24  1  0.70566744  0.52218532  0.46604315  1  0  0.440448  0  0.851836  0  0  0.409867  0  0.914349  0  0  0.419683  0  0.900068  0  0  0.305129  0.402842  0  0.924638  0
H  H25  1  0.73965935  0.05629054  0.53399162  1  0  0.441225  0  0.850837  0  0  0.410433  0  0.913685  0  0  0.420229  0  0.899411  0  0  0.305601  0.40344  0  0.923939  0
H  H26  1  0.57452174  0.84305255  0.72355204  1  0  0.439264  0  0.846806  0  0  0.407239  0  0.917271  0  0  0.417279  0  0.902453  0  0  0.305534  0.400144  0  0.927724  0
H  H27  1  0.35095717  0.11922278  0.27635990  1  0  0.439534  0  0.846067  0  0  0.407136  0  0.917341  0  0  0.417167  0  0.90254  0  0  0.305694  0.399997  0  0.927906  0
H  H28  1  0.93114696  0.79402094  0.87660544  1  0  0.425759  0  0.880055  0  0  0.393828  0  0.945115  0  0  0.405762  0  0.927913  0  0  0.299278  0.385441  0  0.957232  0
H  H29  1  0.55430047  0.91715405  0.12338298  1  0  0.426023  0  0.881007  0  0  0.394093  0  0.945059  0  0  0.406035  0  0.927846  0  0  0.299282  0.385689  0  0.957191  0
H  H30  1  0.90113207  0.85911639  0.57208894  1  0  0.448073  0  0.841514  0  0  0.420243  0  0.900692  0  0  0.430319  0  0.8856  0  0  0.307182  0.412936  0  0.911652  0
H  H31  1  0.82904385  0.28692704  0.42788884  1  0  0.44794  0  0.841594  0  0  0.420196  0  0.900578  0  0  0.430255  0  0.885521  0  0  0.307437  0.4129  0  0.911553  0
C  C32  1  0.44393753  0.59626488  0.26912408  1  0  0.696141  0  3.822398  0  0  0.629582  0  4.127954  0  0  0.664062  0  4.120254  0  0  0.232815  0.60614  0  4.132608  0
C  C33  1  0.67495216  0.32731425  0.73088731  1  0  0.697623  0  3.820555  0  0  0.630241  0  4.127436  0  0  0.664611  0  4.119844  0  0  0.232692  0.606689  0  4.132304  0
C  C34  1  0.23295933  0.31799384  0.84626618  1  0  -0.08867  0  3.721052  0  0  -0.063165  0  3.959625  0  0  -0.074722  0  3.983156  0  0  -0.017044  -0.055954  0  3.943728  0
C  C35  1  0.88643733  0.47178047  0.15372837  1  0  -0.089652  0  3.721143  0  0  -0.063593  0  3.959203  0  0  -0.075116  0  3.982626  0  0  -0.016838  -0.056277  0  3.943208  0
C  C36  1  0.14854484  0.32297951  0.70119859  1  0  0.719411  0  3.838504  0  0  0.671806  0  4.127022  0  0  0.707198  0  4.117299  0  0  0.232662  0.647833  0  4.132923  0
C  C37  1  0.94710752  0.62176396  0.29885531  1  0  0.720454  0  3.835768  0  0  0.672455  0  4.124878  0  0  0.707879  0  4.115059  0  0  0.232643  0.648563  0  4.130685  0
C  C38  1  0.34411642  0.18093591  0.98112012  1  0  -0.093423  0  3.751627  0  0  -0.067304  0  3.992888  0  0  -0.078717  0  4.017099  0  0  -0.01992  -0.060028  0  3.976641  0
C  C39  1  0.86310967  0.19995076  0.01881877  1  0  -0.092736  0  3.750207  0  0  -0.066531  0  3.991249  0  0  -0.077968  0  4.015473  0  0  -0.019842  -0.05927  0  3.974883  0
C  C40  1  0.37613445  0.03749667  0.98415359  1  0  0.706374  0  3.837265  0  0  0.650063  0  4.135972  0  0  0.684647  0  4.127621  0  0  0.231956  0.626925  0  4.140352  0
C  C41  1  0.89210144  0.05348608  0.01577808  1  0  0.70539  0  3.83614  0  0  0.64899  0  4.135096  0  0  0.683541  0  4.126794  0  0  0.231642  0.625925  0  4.139505  0
C  C42  1  0.37312058  0.45282462  0.12038185  1  0  -0.099682  0  3.784623  0  0  -0.073773  0  4.030215  0  0  -0.085652  0  4.054984  0  0  -0.023781  -0.066208  0  4.013618  0
C  C43  1  0.75274904  0.33262604  0.87963970  1  0  -0.100589  0  3.782966  0  0  -0.074486  0  4.029218  0  0  -0.086417  0  4.054065  0  0  -0.023254  -0.06677  0  4.012766  0
C  C44  1  0.28767257  0.45264394  0.98432170  1  0  -0.03252  0  3.669247  0  0  -0.072227  0  3.920765  0  0  -0.066601  0  3.937832  0  0  -0.06353  -0.074832  0  3.907999  0
C  C45  1  0.80308981  0.46845577  0.01571489  1  0  -0.03308  0  3.669116  0  0  -0.072853  0  3.92137  0  0  -0.067228  0  3.938491  0  0  -0.064485  -0.075814  0  3.908627  0
C  C46  1  0.26346544  0.18268417  0.84505207  1  0  -0.031099  0  3.636305  0  0  -0.070413  0  3.885323  0  0  -0.065069  0  3.902023  0  0  -0.061937  -0.073384  0  3.874193  0
C  C47  1  0.91828283  0.33767021  0.15488080  1  0  -0.032928  0  3.63664  0  0  -0.071689  0  3.88538  0  0  -0.066343  0  3.902143  0  0  -0.062049  -0.074437  0  3.874393  0
C  C48  1  0.39853025  0.31632527  0.11758971  1  0  -0.038855  0  3.697696  0  0  -0.079951  0  3.950325  0  0  -0.07514  0  3.96855  0  0  -0.069522  -0.083717  0  3.939365  0
C  C49  1  0.78116681  0.19896154  0.88238167  1  0  -0.038193  0  3.694408  0  0  -0.079676  0  3.946984  0  0  -0.074825  0  3.965139  0  0  -0.0696  -0.083297  0  3.935715  0
O  O50  1  0.93956710  0.81865972  0.64258630  1  0  -0.921694  0  1.92169  0  0  -0.88701  0  2.117932  0  0  -0.903734  0  2.08664  0  0  -0.64228  -0.874908  0  2.140109  0
O  O51  1  0.79704845  0.17598670  0.35730651  1  0  -0.921944  0  1.92193  0  0  -0.887317  0  2.117819  0  0  -0.903888  0  2.086473  0  0  -0.643144  -0.874925  0  2.140327  0
O  O52  1  0.00245640  0.71142705  0.86340765  1  0  -0.883267  0  1.911645  0  0  -0.834406  0  2.100643  0  0  -0.854124  0  2.068138  0  0  -0.606716  -0.820574  0  2.123605  0
O  O53  1  0.63882189  0.84779665  0.13666571  1  0  -0.883398  0  1.912837  0  0  -0.834879  0  2.101195  0  0  -0.854549  0  2.068613  0  0  -0.606635  -0.821119  0  2.123894  0
O  O54  1  0.79780041  0.48219812  0.51899368  1  0  -0.901156  0  1.920674  0  0  -0.856294  0  2.111525  0  0  -0.875011  0  2.079094  0  0  -0.617199  -0.842867  0  2.134576  0
O  O55  1  0.77880866  0.96333493  0.48106301  1  0  -0.900539  0  1.921305  0  0  -0.854799  0  2.112654  0  0  -0.873576  0  2.080239  0  0  -0.616929  -0.841441  0  2.135668  0
O  O56  1  0.09173633  0.43919042  0.70900860  1  0  -0.717953  0  2.055605  0  0  -0.668738  0  2.304947  0  0  -0.694638  0  2.295993  0  0  -0.383833  -0.650371  0  2.31063  0
O  O57  1  0.88251656  0.73023252  0.29117821  1  0  -0.716435  0  2.052506  0  0  -0.667539  0  2.302516  0  0  -0.693372  0  2.293578  0  0  -0.3831  -0.649296  0  2.307973  0
O  O58  1  0.14257639  0.21154727  0.58057861  1  0  -0.722357  0  2.061186  0  0  -0.668101  0  2.307858  0  0  -0.694358  0  2.298593  0  0  -0.394021  -0.649385  0  2.313498  0
O  O59  1  0.06179994  0.63083443  0.41942547  1  0  -0.723563  0  2.06137  0  0  -0.669245  0  2.308579  0  0  -0.695614  0  2.299411  0  0  -0.394803  -0.650481  0  2.314233  0
O  O60  1  0.50445305  0.58547142  0.38908191  1  0  -0.652216  0  2.057954  0  0  -0.574813  0  2.273564  0  0  -0.601501  0  2.263452  0  0  -0.297699  -0.556284  0  2.280487  0
O  O61  1  0.61549047  0.19655887  0.61093221  1  0  -0.652463  0  2.057571  0  0  -0.575225  0  2.274009  0  0  -0.601889  0  2.263878  0  0  -0.297605  -0.556559  0  2.280989  0
O  O62  1  0.44487664  0.72547990  0.27240850  1  0  -0.657976  0  2.071657  0  0  -0.579863  0  2.287956  0  0  -0.606612  0  2.277529  0  0  -0.299425  -0.56135  0  2.29499  0
O  O63  1  0.67269334  0.45323037  0.72756849  1  0  -0.657953  0  2.070964  0  0  -0.579209  0  2.287591  0  0  -0.605602  0  2.276833  0  0  -0.299389  -0.560896  0  2.29481  0
O  O64  1  0.45095080  0.04677522  0.11431131  1  0  -0.66761  0  2.04192  0  0  -0.591355  0  2.254624  0  0  -0.618199  0  2.24372  0  0  -0.306413  -0.57253  0  2.261721  0
O  O65  1  0.83674329  0.93263194  0.88556753  1  0  -0.667944  0  2.041012  0  0  -0.591929  0  2.254431  0  0  -0.618655  0  2.243427  0  0  -0.306793  -0.573195  0  2.261415  0
O  O66  1  0.32982291  0.91576329  0.86100273  1  0  -0.697485  0  2.076003  0  0  -0.648633  0  2.333785  0  0  -0.674111  0  2.324626  0  0  -0.386047  -0.630798  0  2.339327  0
O  O67  1  0.96874377  0.05480769  0.13889543  1  0  -0.69656  0  2.074779  0  0  -0.647163  0  2.331782  0  0  -0.67263  0  2.322686  0  0  -0.385411  -0.629578  0  2.337387  0
O  O68  1  0.47404769  0.66118026  0.82972638  1  0  -0.92881  0  1.90811  0  0  -0.891994  0  2.105337  0  0  -0.909817  0  2.07405  0  0  -0.653712  -0.879577  0  2.127058  0
O  O69  1  0.14381112  0.83111768  0.17019030  1  0  -0.930667  0  1.907608  0  0  -0.89336  0  2.103799  0  0  -0.911221  0  2.072743  0  0  -0.65391  -0.880987  0  2.126096  0
O  O70  1  0.27183780  0.45629609  0.50294306  1  0  -0.910476  0  1.924108  0  0  -0.872915  0  2.124411  0  0  -0.889507  0  2.091884  0  0  -0.644572  -0.860806  0  2.147423  0
O  O71  1  0.26894620  0.95343515  0.49708129  1  0  -0.910022  0  1.924634  0  0  -0.87224  0  2.124381  0  0  -0.888864  0  2.09202  0  0  -0.643546  -0.860286  0  2.147483  0
O  O72  1  0.45411907  0.79074014  0.62824398  1  0  -0.895399  0  1.92571  0  0  -0.847466  0  2.123562  0  0  -0.865981  0  2.089956  0  0  -0.619845  -0.834203  0  2.147271  0
O  O73  1  0.32585226  0.16223908  0.37162340  1  0  -0.896755  0  1.924122  0  0  -0.84934  0  2.122083  0  0  -0.867697  0  2.088433  0  0  -0.621338  -0.83601  0  2.145976  0
