# generated using pymatgen
data_AgPH10(C7O3)2
_symmetry_space_group_name_H-M   'P 1'
_cell_length_a   8.03344860
_cell_length_b   11.30526990
_cell_length_c   14.08050000
_cell_angle_alpha   90.00000000
_cell_angle_beta   90.00000000
_cell_angle_gamma   90.00000000
_symmetry_Int_Tables_number   1
_chemical_formula_structural   AgPH10(C7O3)2
_chemical_formula_sum   'Ag4 P4 H40 C56 O24'
_cell_volume   1278.79529977
_cell_formula_units_Z   4
loop_
 _symmetry_equiv_pos_site_id
 _symmetry_equiv_pos_as_xyz
  1  'x, y, z'
loop_
 _atom_site_type_symbol
 _atom_site_label
 _atom_site_symmetry_multiplicity
 _atom_site_fract_x
 _atom_site_fract_y
 _atom_site_fract_z
 _atom_site_occupancy
 _atom_site_hle17_bader_spin_density
 _atom_site_hle17_ddec_charge
 _atom_site_hle17_ddec_spin_density
 _atom_site_hle17_ddec_sum_bond_order
 _atom_site_hle17_magmom
 _atom_site_hse06_10hf_bader_spin_density
 _atom_site_hse06_10hf_ddec_charge
 _atom_site_hse06_10hf_ddec_spin_density
 _atom_site_hse06_10hf_ddec_sum_bond_order
 _atom_site_hse06_10hf_magmom
 _atom_site_hse06_bader_spin_density
 _atom_site_hse06_ddec_charge
 _atom_site_hse06_ddec_spin_density
 _atom_site_hse06_ddec_sum_bond_order
 _atom_site_hse06_magmom
 _atom_site_pbe_bader_charge
 _atom_site_pbe_bader_spin_density
 _atom_site_pbe_cm5_charge
 _atom_site_pbe_ddec_charge
 _atom_site_pbe_ddec_spin_density
 _atom_site_pbe_ddec_sum_bond_order
 _atom_site_pbe_magmom
Ag  Ag0  1  0.49999822  0.84622217  0.25000107  1  0  0.643254  0  1.228057  0  0  0.572073  0  1.591616  0  0  0.588503  0  1.558772  0  0.66826  0  0.505125  0.560489  0  1.614446  0
Ag  Ag1  1  0.00000000  0.65377829  0.75000107  1  0  0.643258  0  1.228058  0  0  0.572079  0  1.591616  0  0  0.588508  0  1.558772  0  0.668259  0  0.505131  0.560494  0  1.614446  0
Ag  Ag2  1  0.50000071  0.15377784  0.75000178  1  0  0.643254  0  1.228064  0  0  0.572073  0  1.591627  0  0  0.588501  0  1.558783  0  0.668261  0  0.505121  0.560488  0  1.614457  0
Ag  Ag3  1  0.00000124  0.34622261  0.25000178  1  0  0.643237  0  1.228093  0  0  0.572057  0  1.591654  0  0  0.588487  0  1.558811  0  0.668263  0  0.50512  0.56047  0  1.614485  0
P  P4  1  0.49999698  0.11797153  0.25000036  1  0  1.205137  0  4.675034  0  0  1.072242  0  5.130833  0  0  1.113837  0  5.107396  0  3.02543  0  0.289128  1.043345  0  5.146263  0
P  P5  1  0.00000124  0.38202803  0.74999964  1  0  1.205144  0  4.674939  0  0  1.072245  0  5.130745  0  0  1.11384  0  5.107308  0  3.025418  0  0.289125  1.043349  0  5.146173  0
P  P6  1  0.49999946  0.88202848  0.74999964  1  0  1.205204  0  4.6749  0  0  1.072294  0  5.130707  0  0  1.113889  0  5.107269  0  3.025426  0  0.289131  1.043398  0  5.146135  0
P  P7  1  0.00000000  0.61797198  0.25000036  1  0  1.20524  0  4.674877  0  0  1.072303  0  5.130733  0  0  1.113899  0  5.107295  0  3.025446  0  0.289138  1.043405  0  5.146164  0
H  H8  1  0.34899956  0.46215703  0.03959661  1  0  0.104315  0  0.955636  0  0  0.113629  0  1.017632  0  0  0.116423  0  1.016944  0  0.135591  0  0.106711  0.111584  0  1.018255  0
H  H9  1  0.15100364  0.03784430  0.53959590  1  0  0.104276  0  0.955679  0  0  0.113611  0  1.017649  0  0  0.116406  0  1.01696  0  0.13561  0  0.106699  0.111567  0  1.018273  0
H  H10  1  0.84899902  0.03784607  0.96040339  1  0  0.104322  0  0.955621  0  0  0.11365  0  1.017606  0  0  0.116444  0  1.016917  0  0.135595  0  0.106707  0.111603  0  1.01823  0
H  H11  1  0.65100560  0.46215615  0.46040482  1  0  0.104316  0  0.95566  0  0  0.113623  0  1.01766  0  0  0.116417  0  1.016971  0  0.135606  0  0.106707  0.111576  0  1.018288  0
H  H12  1  0.65100186  0.53784474  0.96040410  1  0  0.104277  0  0.955664  0  0  0.113601  0  1.017648  0  0  0.116396  0  1.016959  0  0.135606  0  0.106692  0.111557  0  1.018273  0
H  H13  1  0.84899653  0.96215394  0.46040410  1  0  0.104316  0  0.955621  0  0  0.113639  0  1.01761  0  0  0.116433  0  1.016921  0  0.135638  0  0.106703  0.111592  0  1.018236  0
H  H14  1  0.15100364  0.96215660  0.03959590  1  0  0.104275  0  0.955674  0  0  0.113598  0  1.017658  0  0  0.116393  0  1.016971  0  0.135598  0  0.106702  0.111555  0  1.018281  0
H  H15  1  0.34899707  0.53784563  0.53959661  1  0  0.104296  0  0.955677  0  0  0.113637  0  1.017636  0  0  0.116431  0  1.016946  0  0.135629  0  0.106714  0.11159  0  1.018265  0
H  H16  1  0.06012362  0.39036485  0.01500444  1  0  0.112523  0  0.923761  0  0  0.125272  0  0.976638  0  0  0.128228  0  0.975288  0  0.108745  0  0.110802  0.123131  0  0.977719  0
H  H17  1  0.43987958  0.10963736  0.51500657  1  0  0.112519  0  0.923798  0  0  0.125235  0  0.976707  0  0  0.12819  0  0.975359  0  0.108761  0  0.11079  0.123096  0  0.977787  0
H  H18  1  0.56012557  0.10963736  0.98499556  1  0  0.112478  0  0.923866  0  0  0.125245  0  0.976706  0  0  0.128201  0  0.975354  0  0.108789  0  0.110778  0.123105  0  0.977787  0
H  H19  1  0.93988154  0.39036220  0.48499343  1  0  0.112536  0  0.923764  0  0  0.125241  0  0.976682  0  0  0.128196  0  0.975334  0  0.108763  0  0.110805  0.123101  0  0.977762  0
H  H20  1  0.93987656  0.60963693  0.98499556  1  0  0.1125  0  0.923809  0  0  0.125253  0  0.976676  0  0  0.128209  0  0.975326  0  0.108763  0  0.110787  0.123114  0  0.977756  0
H  H21  1  0.56012059  0.89035999  0.48499414  1  0  0.112458  0  0.923889  0  0  0.125217  0  0.976733  0  0  0.128174  0  0.975382  0  0.108784  0  0.110767  0.123078  0  0.977813  0
H  H22  1  0.43987709  0.89036353  0.01500515  1  0  0.112502  0  0.923804  0  0  0.125252  0  0.976678  0  0  0.128209  0  0.975327  0  0.10875  0  0.110791  0.123113  0  0.977758  0
H  H23  1  0.06012113  0.60963781  0.51500728  1  0  0.112516  0  0.923858  0  0  0.125223  0  0.976761  0  0  0.128179  0  0.975414  0  0.108787  0  0.110793  0.123085  0  0.977841  0
H  H24  1  0.96893879  0.20100891  0.09211747  1  0  0.118083  0  0.958357  0  0  0.126938  0  1.019065  0  0  0.129978  0  1.017572  0  0.15628  0  0.107604  0.124639  0  1.02038  0
H  H25  1  0.53106333  0.29899065  0.59212031  1  0  0.118099  0  0.958294  0  0  0.126967  0  1.018997  0  0  0.129996  0  1.017516  0  0.156275  0  0.107613  0.124669  0  1.020314  0
H  H26  1  0.46893808  0.29898888  0.90788111  1  0  0.11809  0  0.958355  0  0  0.126956  0  1.019055  0  0  0.129986  0  1.017574  0  0.156297  0  0.107613  0.124657  0  1.020371  0
H  H27  1  0.03106387  0.20100803  0.40787898  1  0  0.118124  0  0.95825  0  0  0.126995  0  1.018956  0  0  0.130018  0  1.017485  0  0.15627  0  0.107622  0.124697  0  1.020272  0
H  H28  1  0.03106262  0.79898756  0.90788040  1  0  0.118071  0  0.958368  0  0  0.12694  0  1.019065  0  0  0.129978  0  1.017562  0  0.156298  0  0.107601  0.124642  0  1.020381  0
H  H29  1  0.46893435  0.70100847  0.40787898  1  0  0.118112  0  0.95833  0  0  0.126987  0  1.019027  0  0  0.130008  0  1.017558  0  0.15625  0  0.107623  0.124687  0  1.020344  0
H  H30  1  0.53106209  0.70101024  0.09211889  1  0  0.118077  0  0.958361  0  0  0.126948  0  1.019052  0  0  0.129977  0  1.017574  0  0.156289  0  0.107609  0.124649  0  1.020368  0
H  H31  1  0.96893630  0.79899021  0.59212102  1  0  0.118096  0  0.958293  0  0  0.126973  0  1.018989  0  0  0.130001  0  1.017501  0  0.156271  0  0.107609  0.124676  0  1.020304  0
H  H32  1  0.16330471  0.09163603  0.19605412  1  0  0.104979  0  0.965381  0  0  0.110805  0  1.034955  0  0  0.114103  0  1.033233  0  0.100364  0  0.106757  0.108415  0  1.036289  0
H  H33  1  0.33669475  0.40836354  0.69605483  1  0  0.105006  0  0.965363  0  0  0.110815  0  1.034951  0  0  0.114114  0  1.033229  0  0.100383  0  0.106748  0.108426  0  1.036285  0
H  H34  1  0.66330418  0.40836265  0.80394517  1  0  0.105004  0  0.965365  0  0  0.110815  0  1.034946  0  0  0.114114  0  1.033224  0  0.100397  0  0.106753  0.108425  0  1.03628  0
H  H35  1  0.83669422  0.09163779  0.30394517  1  0  0.105005  0  0.965382  0  0  0.11082  0  1.034946  0  0  0.114119  0  1.033224  0  0.10037  0  0.106756  0.108431  0  1.036279  0
H  H36  1  0.83669671  0.90836133  0.80394446  1  0  0.105022  0  0.965358  0  0  0.110832  0  1.034936  0  0  0.11413  0  1.033216  0  0.100175  0  0.106758  0.108443  0  1.036269  0
H  H37  1  0.66330293  0.59163559  0.30394304  1  0  0.105001  0  0.965386  0  0  0.110811  0  1.034972  0  0  0.114109  0  1.033251  0  0.100348  0  0.106749  0.108421  0  1.036307  0
H  H38  1  0.33669475  0.59163736  0.19605412  1  0  0.104987  0  0.965395  0  0  0.110819  0  1.03495  0  0  0.114118  0  1.033228  0  0.1004  0  0.106761  0.108429  0  1.036285  0
H  H39  1  0.16330471  0.90836487  0.69605625  1  0  0.105022  0  0.965336  0  0  0.110824  0  1.034936  0  0  0.114123  0  1.033215  0  0.10035  0  0.106768  0.108435  0  1.036269  0
H  H40  1  0.72380870  0.50780919  0.15505273  1  0  0.433883  0  0.864662  0  0  0.400673  0  0.936527  0  0  0.413482  0  0.918443  0  0.681089  0  0.304941  0.391699  0  0.949153  0
H  H41  1  0.77619343  0.99219126  0.65505486  1  0  0.433898  0  0.864621  0  0  0.400686  0  0.936507  0  0  0.413495  0  0.918423  0  0.681101  0  0.304923  0.391712  0  0.949133  0
H  H42  1  0.22380675  0.99219126  0.84494727  1  0  0.433877  0  0.864702  0  0  0.400673  0  0.936526  0  0  0.41348  0  0.918446  0  0.681099  0  0.304952  0.391701  0  0.949149  0
H  H43  1  0.27619521  0.50780919  0.34494727  1  0  0.433873  0  0.864696  0  0  0.400657  0  0.936554  0  0  0.413465  0  0.918471  0  0.681104  0  0.304913  0.391685  0  0.949177  0
H  H44  1  0.27619272  0.49218993  0.84494656  1  0  0.43385  0  0.864726  0  0  0.400642  0  0.936571  0  0  0.41345  0  0.918489  0  0.681096  0  0.3049  0.391669  0  0.949196  0
H  H45  1  0.22380426  0.00780963  0.34494656  1  0  0.433881  0  0.864682  0  0  0.400671  0  0.936529  0  0  0.413479  0  0.918446  0  0.681101  0  0.30492  0.391698  0  0.949154  0
H  H46  1  0.77619343  0.00780875  0.15505415  1  0  0.433854  0  0.864712  0  0  0.400643  0  0.936568  0  0  0.413452  0  0.918485  0  0.681102  0  0.304902  0.391671  0  0.949192  0
H  H47  1  0.72380621  0.49219081  0.65505273  1  0  0.433873  0  0.864694  0  0  0.400662  0  0.936542  0  0  0.41347  0  0.91846  0  0.681105  0  0.304922  0.39169  0  0.949166  0
C  C48  1  0.59459147  0.36263796  0.13927843  1  0  0.643575  0  3.822098  0  0  0.591989  0  4.123394  0  0  0.62437  0  4.116209  0  1.53159  0  0.227244  0.569934  0  4.127711  0
C  C49  1  0.90540817  0.13736249  0.63927772  1  0  0.643582  0  3.822111  0  0  0.591968  0  4.123464  0  0  0.624348  0  4.11628  0  1.531747  0  0.227194  0.569913  0  4.127779  0
C  C50  1  0.09459200  0.13736249  0.86072014  1  0  0.643621  0  3.822084  0  0  0.591998  0  4.123428  0  0  0.624377  0  4.116244  0  1.531569  0  0.227258  0.569947  0  4.12774  0
C  C51  1  0.40540995  0.36263884  0.36072370  1  0  0.643783  0  3.822004  0  0  0.59217  0  4.123297  0  0  0.62455  0  4.116111  0  1.531731  0  0.227326  0.570116  0  4.127617  0
C  C52  1  0.40540871  0.63736117  0.86072086  1  0  0.643574  0  3.822106  0  0  0.591978  0  4.123432  0  0  0.624357  0  4.116248  0  1.531548  0  0.227206  0.56992  0  4.127753  0
C  C53  1  0.09458951  0.86263929  0.36072157  1  0  0.643549  0  3.822105  0  0  0.591943  0  4.123468  0  0  0.624324  0  4.116283  0  1.531532  0  0.227211  0.569892  0  4.127778  0
C  C54  1  0.90540942  0.86263841  0.13927914  1  0  0.643619  0  3.822047  0  0  0.592015  0  4.123368  0  0  0.624394  0  4.116183  0  1.531531  0  0.227222  0.569964  0  4.127679  0
C  C55  1  0.59459147  0.63736205  0.63927843  1  0  0.643566  0  3.822094  0  0  0.591975  0  4.123409  0  0  0.624354  0  4.116224  0  1.531541  0  0.227231  0.569926  0  4.127717  0
C  C56  1  0.42163212  0.31602784  0.12849118  1  0  -0.054874  0  3.732085  0  0  -0.040926  0  3.965479  0  0  -0.046919  0  3.989056  0  -0.023082  0  -0.010162  -0.037126  0  3.949823  0
C  C57  1  0.07836983  0.18397172  0.62849118  1  0  -0.054992  0  3.732168  0  0  -0.041047  0  3.965612  0  0  -0.04704  0  3.989191  0  -0.023223  0  -0.010188  -0.037243  0  3.949952  0
C  C58  1  0.92163159  0.18397261  0.87150811  1  0  -0.054939  0  3.732272  0  0  -0.04092  0  3.96562  0  0  -0.046912  0  3.989197  0  -0.023125  0  -0.010149  -0.037119  0  3.949962  0
C  C59  1  0.57836805  0.31602784  0.37151167  1  0  -0.055031  0  3.7322  0  0  -0.040996  0  3.965495  0  0  -0.046988  0  3.989074  0  -0.023181  0  -0.010184  -0.037195  0  3.94984  0
C  C60  1  0.57836929  0.68397217  0.87150953  1  0  -0.054945  0  3.732151  0  0  -0.040985  0  3.965568  0  0  -0.046977  0  3.989146  0  -0.023261  0  -0.010184  -0.037182  0  3.949912  0
C  C61  1  0.92162910  0.81602828  0.37150811  1  0  -0.054823  0  3.732074  0  0  -0.040913  0  3.965552  0  0  -0.046905  0  3.989131  0  -0.023225  0  -0.010154  -0.037113  0  3.949893  0
C  C62  1  0.07836859  0.81602828  0.12849047  1  0  -0.055012  0  3.73223  0  0  -0.041014  0  3.9656  0  0  -0.047007  0  3.989181  0  -0.023239  0  -0.01019  -0.037212  0  3.949942  0
C  C63  1  0.42163088  0.68397217  0.62848976  1  0  -0.05493  0  3.732114  0  0  -0.041013  0  3.96557  0  0  -0.047005  0  3.989148  0  -0.023231  0  -0.010204  -0.037212  0  3.949911  0
C  C64  1  0.30785907  0.38070387  0.07334541  1  0  -0.063147  0  3.692452  0  0  -0.089655  0  3.94902  0  0  -0.09021  0  3.967655  0  -0.044926  0  -0.080803  -0.089256  0  3.93665  0
C  C65  1  0.19214289  0.11929658  0.57334541  1  0  -0.063022  0  3.692485  0  0  -0.089548  0  3.949042  0  0  -0.090102  0  3.967678  0  -0.045446  0  -0.080758  -0.089149  0  3.936672  0
C  C66  1  0.80785978  0.11929835  0.92665317  1  0  -0.063191  0  3.692546  0  0  -0.089763  0  3.949143  0  0  -0.090317  0  3.967778  0  -0.04541  0  -0.080843  -0.089359  0  3.936769  0
C  C67  1  0.69214360  0.38070387  0.42665388  1  0  -0.063057  0  3.692587  0  0  -0.089581  0  3.949099  0  0  -0.090134  0  3.967735  0  -0.044919  0  -0.080758  -0.089183  0  3.936732  0
C  C68  1  0.69213986  0.61929702  0.92665530  1  0  -0.063067  0  3.692457  0  0  -0.089598  0  3.949039  0  0  -0.090152  0  3.967674  0  -0.045422  0  -0.080774  -0.089199  0  3.936669  0
C  C69  1  0.80785604  0.88070343  0.42665246  1  0  -0.063129  0  3.692497  0  0  -0.089664  0  3.94911  0  0  -0.090218  0  3.967747  0  -0.045022  0  -0.080778  -0.08926  0  3.936737  0
C  C70  1  0.19214040  0.88070343  0.07334470  1  0  -0.063048  0  3.692478  0  0  -0.08959  0  3.949048  0  0  -0.090145  0  3.967686  0  -0.045323  0  -0.080776  -0.089191  0  3.936678  0
C  C71  1  0.30785782  0.61929702  0.57334612  1  0  -0.063071  0  3.692484  0  0  -0.089592  0  3.949036  0  0  -0.090146  0  3.967672  0  -0.044946  0  -0.080777  -0.089194  0  3.936669  0
C  C72  1  0.14550040  0.34094630  0.06012002  1  0  -0.036531  0  3.702426  0  0  -0.054044  0  3.962105  0  0  -0.053194  0  3.977545  0  -0.030357  0  -0.082401  -0.054797  0  3.951849  0
C  C73  1  0.35450155  0.15905591  0.56012073  1  0  -0.036606  0  3.702445  0  0  -0.054089  0  3.962138  0  0  -0.053239  0  3.977575  0  -0.03004  0  -0.082434  -0.054843  0  3.951884  0
C  C74  1  0.64550111  0.15905591  0.93988069  1  0  -0.036491  0  3.702485  0  0  -0.053987  0  3.962155  0  0  -0.053137  0  3.977593  0  -0.029728  0  -0.082394  -0.054742  0  3.951899  0
C  C75  1  0.85450226  0.34094365  0.43987856  1  0  -0.036607  0  3.702457  0  0  -0.054077  0  3.96214  0  0  -0.053226  0  3.977576  0  -0.030566  0  -0.082446  -0.05483  0  3.951886  0
C  C76  1  0.85449977  0.65905459  0.93988140  1  0  -0.036543  0  3.702443  0  0  -0.054052  0  3.962134  0  0  -0.053202  0  3.977573  0  -0.029781  0  -0.08242  -0.054806  0  3.951879  0
C  C77  1  0.64549862  0.84094321  0.43987927  1  0  -0.036543  0  3.702519  0  0  -0.054033  0  3.962181  0  0  -0.053182  0  3.977618  0  -0.03045  0  -0.082436  -0.054788  0  3.951927  0
C  C78  1  0.35450031  0.84094498  0.06011931  1  0  -0.036517  0  3.702415  0  0  -0.054024  0  3.962104  0  0  -0.053173  0  3.977542  0  -0.029708  0  -0.08241  -0.054778  0  3.95185  0
C  C79  1  0.14549916  0.65905636  0.56012144  1  0  -0.03656  0  3.702506  0  0  -0.05402  0  3.962171  0  0  -0.05317  0  3.977609  0  -0.030575  0  -0.082398  -0.054776  0  3.951919  0
C  C80  1  0.09348663  0.23577942  0.10447001  1  0  -0.104019  0  3.774629  0  0  -0.115071  0  4.03415  0  0  -0.116135  0  4.049937  0  -0.150209  0  -0.108869  -0.114243  0  4.023524  0
C  C81  1  0.40651408  0.26422102  0.60447214  1  0  -0.10393  0  3.774597  0  0  -0.114987  0  4.034098  0  0  -0.116042  0  4.049886  0  -0.150068  0  -0.108845  -0.114161  0  4.023476  0
C  C82  1  0.59348858  0.26422102  0.89552999  1  0  -0.103991  0  3.774631  0  0  -0.115059  0  4.034139  0  0  -0.116114  0  4.049933  0  -0.150351  0  -0.108845  -0.11423  0  4.023513  0
C  C83  1  0.90651355  0.23577765  0.39552715  1  0  -0.103994  0  3.77447  0  0  -0.115067  0  4.033975  0  0  -0.116117  0  4.04977  0  -0.150071  0  -0.108869  -0.114239  0  4.023351  0
C  C84  1  0.90651230  0.76421970  0.89552999  1  0  -0.103966  0  3.774682  0  0  -0.11503  0  4.034192  0  0  -0.116084  0  4.049992  0  -0.150349  0  -0.10885  -0.114201  0  4.023566  0
C  C85  1  0.59348485  0.73577721  0.39552786  1  0  -0.103962  0  3.774592  0  0  -0.115036  0  4.034103  0  0  -0.116088  0  4.049901  0  -0.150056  0  -0.108857  -0.114208  0  4.02348  0
C  C86  1  0.40651284  0.73577987  0.10447001  1  0  -0.103992  0  3.774655  0  0  -0.115056  0  4.034166  0  0  -0.116113  0  4.049962  0  -0.150355  0  -0.108856  -0.114227  0  4.023541  0
C  C87  1  0.09348538  0.76422147  0.60447214  1  0  -0.103947  0  3.774564  0  0  -0.11502  0  4.03407  0  0  -0.116068  0  4.049869  0  -0.150065  0  -0.108869  -0.114192  0  4.023445  0
C  C88  1  0.20593273  0.17195432  0.16098931  1  0  -0.055566  0  3.7371  0  0  -0.077309  0  3.987589  0  0  -0.077813  0  4.006086  0  -0.044024  0  -0.086312  -0.07706  0  3.975281  0
C  C89  1  0.29406798  0.32804524  0.66099144  1  0  -0.055697  0  3.737193  0  0  -0.077423  0  3.98769  0  0  -0.077926  0  4.006183  0  -0.044031  0  -0.086327  -0.077174  0  3.975383  0
C  C90  1  0.70593344  0.32804524  0.83900856  1  0  -0.055626  0  3.737115  0  0  -0.077342  0  3.98761  0  0  -0.077845  0  4.006103  0  -0.044048  0  -0.086303  -0.077093  0  3.975302  0
C  C91  1  0.79406371  0.17195344  0.33900785  1  0  -0.055672  0  3.737112  0  0  -0.077393  0  3.987619  0  0  -0.077896  0  4.006109  0  -0.043985  0  -0.086325  -0.077144  0  3.975308  0
C  C92  1  0.79406744  0.82804392  0.83900856  1  0  -0.055653  0  3.737166  0  0  -0.077367  0  3.98766  0  0  -0.077872  0  4.006156  0  -0.04381  0  -0.086302  -0.077117  0  3.97535  0
C  C93  1  0.70593219  0.67195300  0.33900785  1  0  -0.055655  0  3.737201  0  0  -0.077388  0  3.98768  0  0  -0.07789  0  4.006171  0  -0.044042  0  -0.086316  -0.077139  0  3.975371  0
C  C94  1  0.29406798  0.67195565  0.16099144  1  0  -0.055613  0  3.737142  0  0  -0.077339  0  3.987625  0  0  -0.077842  0  4.006119  0  -0.044036  0  -0.086312  -0.07709  0  3.975318  0
C  C95  1  0.20593149  0.82804746  0.66099144  1  0  -0.055712  0  3.73713  0  0  -0.077449  0  3.987636  0  0  -0.077953  0  4.00613  0  -0.044036  0  -0.08635  -0.077199  0  3.975325  0
C  C96  1  0.37073368  0.21014447  0.17323817  1  0  -0.192472  0  3.696676  0  0  -0.161252  0  3.927009  0  0  -0.167234  0  3.948738  0  -0.492933  0  -0.015647  -0.157299  0  3.912657  0
C  C97  1  0.12926702  0.28985509  0.67323746  1  0  -0.192405  0  3.696655  0  0  -0.161182  0  3.926989  0  0  -0.167165  0  3.94872  0  -0.492761  0  -0.015645  -0.15723  0  3.912634  0
C  C98  1  0.87073439  0.28985420  0.82676112  1  0  -0.19242  0  3.696741  0  0  -0.161227  0  3.927069  0  0  -0.167209  0  3.948797  0  -0.492926  0  -0.01565  -0.157276  0  3.912717  0
C  C99  1  0.62926400  0.21014536  0.32676254  1  0  -0.192391  0  3.696649  0  0  -0.161211  0  3.926967  0  0  -0.167194  0  3.948698  0  -0.492826  0  -0.015658  -0.157259  0  3.912615  0
C  C100  1  0.62926649  0.78985377  0.82676183  1  0  -0.192443  0  3.696664  0  0  -0.161239  0  3.92701  0  0  -0.167221  0  3.94874  0  -0.49276  0  -0.015656  -0.157288  0  3.912658  0
C  C101  1  0.87073190  0.71014404  0.32676183  1  0  -0.19255  0  3.696784  0  0  -0.161287  0  3.927096  0  0  -0.167271  0  3.948827  0  -0.492759  0  -0.015644  -0.157333  0  3.912742  0
C  C102  1  0.12926578  0.71014581  0.17323817  1  0  -0.192429  0  3.696651  0  0  -0.161234  0  3.926994  0  0  -0.167216  0  3.948725  0  -0.492913  0  -0.015652  -0.157282  0  3.912642  0
C  C103  1  0.37073244  0.78985553  0.67323675  1  0  -0.192489  0  3.696718  0  0  -0.161238  0  3.927028  0  0  -0.167221  0  3.94876  0  -0.492727  0  -0.015629  -0.157285  0  3.912675  0
O  O104  1  0.60305359  0.48009911  0.13849934  1  0  -0.561444  0  2.080778  0  0  -0.502485  0  2.298001  0  0  -0.526096  0  2.282112  0  -1.205509  0  -0.32443  -0.485928  0  2.308506  0
O  O105  1  0.89695103  0.01990134  0.63850289  1  0  -0.561426  0  2.080728  0  0  -0.502449  0  2.297963  0  0  -0.52606  0  2.282073  0  -1.205596  0  -0.324361  -0.485896  0  2.30848  0
O  O106  1  0.10305163  0.01990045  0.86149924  1  0  -0.56142  0  2.080817  0  0  -0.502446  0  2.298031  0  0  -0.526054  0  2.282141  0  -1.205489  0  -0.324444  -0.485897  0  2.308546  0
O  O107  1  0.39695157  0.48009999  0.36150066  1  0  -0.561489  0  2.080782  0  0  -0.50254  0  2.298045  0  0  -0.526144  0  2.282143  0  -1.205638  0  -0.324401  -0.485974  0  2.308531  0
O  O108  1  0.39695032  0.51990002  0.86149711  1  0  -0.561405  0  2.080832  0  0  -0.502437  0  2.298047  0  0  -0.526046  0  2.282156  0  -1.205633  0  -0.324358  -0.485884  0  2.308564  0
O  O109  1  0.10304790  0.98009955  0.36149711  1  0  -0.561434  0  2.080819  0  0  -0.502445  0  2.29802  0  0  -0.526053  0  2.282128  0  -1.205641  0  -0.324357  -0.485892  0  2.308532  0
O  O110  1  0.89694979  0.98009955  0.13850289  1  0  -0.56141  0  2.08079  0  0  -0.502445  0  2.298016  0  0  -0.526053  0  2.282126  0  -1.205505  0  -0.324362  -0.485894  0  2.30853  0
O  O111  1  0.60304985  0.51990090  0.63850005  1  0  -0.561421  0  2.080806  0  0  -0.502461  0  2.298038  0  0  -0.52607  0  2.28215  0  -1.205494  0  -0.324398  -0.4859  0  2.308531  0
O  O112  1  0.71655030  0.29687748  0.14861191  1  0  -0.562239  0  2.016664  0  0  -0.51535  0  2.253691  0  0  -0.538169  0  2.248451  0  -1.140634  0  -0.279954  -0.499347  0  2.256834  0
O  O113  1  0.78345183  0.20312297  0.64861262  1  0  -0.562237  0  2.016691  0  0  -0.515347  0  2.253744  0  0  -0.538164  0  2.248503  0  -1.140826  0  -0.279935  -0.499343  0  2.256888  0
O  O114  1  0.21654835  0.20312297  0.85138738  1  0  -0.562252  0  2.016664  0  0  -0.515367  0  2.253721  0  0  -0.538184  0  2.248481  0  -1.140643  0  -0.279939  -0.499363  0  2.256863  0
O  O115  1  0.28345361  0.29687748  0.35138880  1  0  -0.562352  0  2.016637  0  0  -0.515448  0  2.253655  0  0  -0.538266  0  2.248413  0  -1.140766  0  -0.280032  -0.499446  0  2.256799  0
O  O116  1  0.28345112  0.70312165  0.85138738  1  0  -0.56222  0  2.016707  0  0  -0.515328  0  2.253746  0  0  -0.538148  0  2.248504  0  -1.140593  0  -0.279931  -0.499323  0  2.256891  0
O  O117  1  0.21654835  0.79687704  0.35138880  1  0  -0.56222  0  2.016688  0  0  -0.51533  0  2.253745  0  0  -0.538149  0  2.248505  0  -1.14056  0  -0.279961  -0.499327  0  2.256887  0
O  O118  1  0.78345183  0.79687792  0.14861262  1  0  -0.562242  0  2.016652  0  0  -0.515356  0  2.253702  0  0  -0.538174  0  2.248461  0  -1.140586  0  -0.279942  -0.499354  0  2.256844  0
O  O119  1  0.71654781  0.70312253  0.64861191  1  0  -0.562223  0  2.016707  0  0  -0.51533  0  2.253737  0  0  -0.538149  0  2.248495  0  -1.140588  0  -0.279939  -0.49933  0  2.256877  0
O  O120  1  0.39108733  0.04026618  0.31364937  1  0  -0.811287  0  2.047583  0  0  -0.735396  0  2.306696  0  0  -0.762011  0  2.288742  0  -1.428819  0  -0.372639  -0.716293  0  2.318304  0
O  O121  1  0.10890964  0.45973427  0.81364866  1  0  -0.811263  0  2.047578  0  0  -0.73537  0  2.306707  0  0  -0.761986  0  2.288753  0  -1.428788  0  -0.372595  -0.716265  0  2.318313  0
O  O122  1  0.89109053  0.45973338  0.68635134  1  0  -0.811254  0  2.047517  0  0  -0.735373  0  2.306668  0  0  -0.761989  0  2.288713  0  -1.428785  0  -0.372614  -0.716269  0  2.318274  0
O  O123  1  0.60890911  0.04026618  0.18635418  1  0  -0.811221  0  2.047528  0  0  -0.735341  0  2.306673  0  0  -0.761958  0  2.288723  0  -1.428773  0  -0.37258  -0.716236  0  2.318278  0
O  O124  1  0.60891035  0.95973472  0.68635205  1  0  -0.81128  0  2.047553  0  0  -0.735379  0  2.306685  0  0  -0.761996  0  2.28873  0  -1.428798  0  -0.37259  -0.716273  0  2.318292  0
O  O125  1  0.89109053  0.54026485  0.18635276  1  0  -0.811272  0  2.047537  0  0  -0.735371  0  2.306689  0  0  -0.761988  0  2.288735  0  -1.428801  0  -0.372589  -0.716267  0  2.318295  0
O  O126  1  0.10891213  0.54026751  0.31364937  1  0  -0.811249  0  2.047494  0  0  -0.735367  0  2.306668  0  0  -0.761983  0  2.288711  0  -1.428801  0  -0.372602  -0.716264  0  2.318276  0
O  O127  1  0.39109107  0.95973295  0.81364866  1  0  -0.81126  0  2.047523  0  0  -0.735383  0  2.306675  0  0  -0.761998  0  2.288721  0  -1.428785  0  -0.372616  -0.716278  0  2.318281  0
