# generated using pymatgen
data_Dy2MnH32C36N6(ClO8)2
_symmetry_space_group_name_H-M   'P 1'
_cell_length_a   9.33151776
_cell_length_b   15.50188907
_cell_length_c   18.22832968
_cell_angle_alpha   89.99980510
_cell_angle_beta   89.45796586
_cell_angle_gamma   90.00053612
_symmetry_Int_Tables_number   1
_chemical_formula_structural   Dy2MnH32C36N6(ClO8)2
_chemical_formula_sum   'Dy4 Mn2 H64 C72 N12 Cl4 O32'
_cell_volume   2636.72205582
_cell_formula_units_Z   2
loop_
 _symmetry_equiv_pos_site_id
 _symmetry_equiv_pos_as_xyz
  1  'x, y, z'
loop_
 _atom_site_type_symbol
 _atom_site_label
 _atom_site_symmetry_multiplicity
 _atom_site_fract_x
 _atom_site_fract_y
 _atom_site_fract_z
 _atom_site_occupancy
 _atom_site_pbe_bader_charge
 _atom_site_pbe_bader_spin_density
 _atom_site_pbe_cm5_charge
 _atom_site_pbe_ddec_charge
 _atom_site_pbe_ddec_spin_density
 _atom_site_pbe_ddec_sum_bond_order
 _atom_site_pbe_magmom
Dy  Dy0  1  0.29901905  0.42135687  0.50384178  1  2.200301  8.7e-05  1.528562  2.122042  7.8e-05  2.139223  0.0
Dy  Dy1  1  0.20097883  0.92135596  0.99615572  1  2.200016  8.7e-05  1.528504  2.122047  7.8e-05  2.139398  0.0
Dy  Dy2  1  0.70099837  0.57864594  0.49615734  1  2.199872  8.7e-05  1.528527  2.12209  7.8e-05  2.139407  0.0
Dy  Dy3  1  0.79899143  0.07865136  0.00384462  1  2.199999  8.7e-05  1.528481  2.12179  7.8e-05  2.139603  0.0
Mn  Mn4  1  0.50002737  0.50000176  0.99999583  1  1.396118  4.517978  0.511845  0.658075  4.659113  2.570207  4.42
Mn  Mn5  1  0.00000043  0.99999971  0.49999893  1  1.39638  4.517926  0.511796  0.658085  4.659121  2.570159  4.42
H  H6  1  0.07372280  0.37990214  0.40187321  1  0.632639  1.2e-05  0.331794  0.420168  -0.0  0.867641  0.0
H  H7  1  0.42627310  0.87990022  0.09812418  1  0.632586  1.2e-05  0.331785  0.42017  -0.0  0.867648  0.0
H  H8  1  0.92629778  0.62010067  0.59813194  1  0.632402  1.2e-05  0.331851  0.420248  -0.0  0.867533  0.0
H  H9  1  0.57370579  0.12009550  0.90186956  1  0.63257  1.2e-05  0.331811  0.420259  -0.0  0.867519  0.0
H  H10  1  0.01958535  0.47629601  0.41927357  1  0.665244  3e-06  0.313357  0.434186  4e-06  0.880584  0.0
H  H11  1  0.48041739  0.97629511  0.08072571  1  0.665246  3e-06  0.313356  0.43422  4e-06  0.880538  0.0
H  H12  1  0.98042131  0.52370164  0.58073107  1  0.665138  3e-06  0.31339  0.434169  4e-06  0.880581  0.0
H  H13  1  0.51957220  0.02369932  0.91926964  1  0.665096  3e-06  0.313402  0.434259  4e-06  0.88047  0.0
H  H14  1  0.43729603  0.16562486  0.02620508  1  0.121748  0.000483  0.112453  0.119678  0.000244  1.048298  0.0
H  H15  1  0.06271042  0.66562714  0.47379620  1  0.121831  0.000483  0.112474  0.119682  0.000244  1.04822  0.0
H  H16  1  0.56268283  0.83436569  0.97379140  1  0.121246  0.000483  0.112418  0.119632  0.000244  1.0483  0.0
H  H17  1  0.93734445  0.33437567  0.52620941  1  0.121203  0.000483  0.11241  0.119763  0.000244  1.048168  0.0
H  H18  1  0.55522436  0.31247632  0.02869524  1  0.145365  0.001329  0.104333  0.085941  0.000733  1.061352  0.001
H  H19  1  0.94478846  0.81247689  0.47129720  1  0.145531  0.00133  0.104365  0.085932  0.000734  1.061415  0.001
H  H20  1  0.44478351  0.68750649  0.97129349  1  0.145471  0.00133  0.104304  0.085935  0.000735  1.061341  0.001
H  H21  1  0.05524820  0.18751947  0.52870735  1  0.144943  0.001329  0.104326  0.086005  0.000733  1.061446  0.001
H  H22  1  0.24813980  0.23227985  0.46198250  1  0.617007  0.000875  0.281635  0.388354  0.000517  0.940669  0.0
H  H23  1  0.25186876  0.73228300  0.03801967  1  0.617015  0.000875  0.28159  0.388263  0.000517  0.940797  0.0
H  H24  1  0.75187432  0.76771586  0.53802650  1  0.617126  0.000876  0.281599  0.388325  0.000517  0.940715  0.0
H  H25  1  0.74812621  0.26771852  0.96197347  1  0.617102  0.000876  0.281616  0.388333  0.000517  0.940688  0.0
H  H26  1  0.33432278  0.27075360  0.39514383  1  0.643424  7e-06  0.280763  0.343191  5.1e-05  1.020044  0.0
H  H27  1  0.16567567  0.77074826  0.10485716  1  0.6434  7e-06  0.280764  0.343132  5.1e-05  1.020148  0.0
H  H28  1  0.66567424  0.72924405  0.60486028  1  0.643374  7e-06  0.280753  0.343185  5.1e-05  1.020072  0.0
H  H29  1  0.83432247  0.22924423  0.89514037  1  0.643372  7e-06  0.280771  0.343194  5.1e-05  1.020061  0.0
H  H30  1  0.03819780  0.29337207  0.98077020  1  0.147123  0.001223  0.112811  0.124466  0.000898  1.016333  0.0
H  H31  1  0.46181629  0.79338099  0.51922818  1  0.146721  0.001224  0.112772  0.124455  0.000898  1.016277  0.0
H  H32  1  0.96180136  0.70664106  0.01923391  1  0.147428  0.001223  0.112825  0.124518  0.000898  1.016251  0.0
H  H33  1  0.53822793  0.20664569  0.48076923  1  0.1474  0.001223  0.112762  0.124359  0.000898  1.016405  0.0
H  H34  1  0.17326936  0.43419013  0.97970956  1  0.134695  0.001164  0.105001  0.083262  0.000456  1.03782  0.001
H  H35  1  0.32674056  0.93419635  0.52028183  1  0.134486  0.001166  0.104977  0.083278  0.000456  1.037822  0.001
H  H36  1  0.82675023  0.56581526  0.02028681  1  0.134672  0.001166  0.105063  0.083352  0.000457  1.037843  0.001
H  H37  1  0.67328118  0.06582195  0.47971399  1  0.134831  0.001165  0.105019  0.083147  0.000457  1.037713  0.001
H  H38  1  0.27716533  0.45715873  0.26333689  1  0.05827  0.000625  0.113277  0.123296  0.000335  0.996439  0.0
H  H39  1  0.22282429  0.95716479  0.23665754  1  0.057794  0.000625  0.113231  0.123202  0.000335  0.996482  0.0
H  H40  1  0.72282432  0.54283892  0.73665078  1  0.057578  0.000625  0.11326  0.123276  0.000335  0.996487  0.0
H  H41  1  0.77716952  0.04284189  0.76334548  1  0.057957  0.000625  0.113306  0.123384  0.000335  0.996426  0.0
H  H42  1  0.72766284  0.51058601  0.12942427  1  0.08665  0.001261  0.115079  0.082299  0.000651  1.013554  0.001
H  H43  1  0.77233874  0.01058788  0.37058006  1  0.086602  0.001261  0.115061  0.082259  0.000651  1.013557  0.001
H  H44  1  0.27235449  0.48939487  0.87058418  1  0.086618  0.001261  0.115032  0.082288  0.000651  1.013627  0.001
H  H45  1  0.22764330  0.98939944  0.62942134  1  0.086697  0.001261  0.115066  0.082267  0.000651  1.01368  0.001
H  H46  1  0.72587965  0.52004264  0.26786086  1  0.090425  0.000629  0.11119  0.124371  0.000339  1.007465  0.0
H  H47  1  0.77411135  0.02004637  0.23214456  1  0.091079  0.000629  0.111134  0.124273  0.000339  1.007559  0.0
H  H48  1  0.27411303  0.47995178  0.73214875  1  0.09112  0.000629  0.111161  0.124272  0.000339  1.007512  0.0
H  H49  1  0.22588141  0.97996547  0.76785627  1  0.090517  0.000629  0.111224  0.124396  0.000339  1.007545  0.0
H  H50  1  0.29227118  0.46175720  0.12492401  1  0.112299  0.001519  0.113383  0.084846  0.000746  1.017567  0.0
H  H51  1  0.20772924  0.96175810  0.37506983  1  0.112461  0.00152  0.113328  0.08486  0.000747  1.017585  0.0
H  H52  1  0.70774418  0.53823400  0.87506525  1  0.112705  0.001519  0.113332  0.084803  0.000747  1.017605  0.0
H  H53  1  0.79225494  0.03823503  0.62493157  1  0.112638  0.001518  0.113383  0.084863  0.000746  1.01756  0.0
H  H54  1  0.19392174  0.22109349  0.69929150  1  0.107588  4.2e-05  0.116074  0.130878  5e-06  0.985705  0.0
H  H55  1  0.30607513  0.72108751  0.80070988  1  0.107456  4.2e-05  0.116053  0.130919  5e-06  0.985594  0.0
H  H56  1  0.80609139  0.77889577  0.30070873  1  0.107729  4.2e-05  0.116149  0.131014  5e-06  0.985651  0.0
H  H57  1  0.69390049  0.27891272  0.19929044  1  0.107639  4.2e-05  0.116096  0.130947  5e-06  0.98555  0.0
H  H58  1  0.08051841  0.16984176  0.81768405  1  0.086612  6e-05  0.115422  0.083743  4.4e-05  1.005421  0.0
H  H59  1  0.41947766  0.66984270  0.68231693  1  0.086633  6e-05  0.115436  0.083804  4.4e-05  1.005428  0.0
H  H60  1  0.91949363  0.83014879  0.18231782  1  0.086614  6e-05  0.115472  0.083836  4.4e-05  1.005333  0.0
H  H61  1  0.58050545  0.33015818  0.31768448  1  0.086587  6e-05  0.115406  0.083745  4.4e-05  1.005361  0.0
H  H62  1  0.80586930  0.37882155  0.82530082  1  0.120603  0.000276  0.107893  0.079299  2.7e-05  1.026136  0.0
H  H63  1  0.69413185  0.87882576  0.67470376  1  0.120659  0.000276  0.107833  0.07919  2.6e-05  1.026117  0.0
H  H64  1  0.19414385  0.62116772  0.17469666  1  0.12031  0.000276  0.107936  0.079396  2.6e-05  1.026229  0.0
H  H65  1  0.30584372  0.12117899  0.32530150  1  0.119934  0.000277  0.107895  0.079374  2.6e-05  1.026191  0.0
H  H66  1  0.91102270  0.44028813  0.70805770  1  0.095873  2.5e-05  0.110555  0.117057  1.4e-05  1.01092  0.0
H  H67  1  0.58897298  0.94028612  0.79194617  1  0.095871  2.5e-05  0.110552  0.117012  1.4e-05  1.011029  0.0
H  H68  1  0.08899364  0.55970178  0.29194307  1  0.095603  2.5e-05  0.110496  0.116918  1.4e-05  1.011013  0.0
H  H69  1  0.41099511  0.05971604  0.20805636  1  0.095808  2.5e-05  0.110513  0.116936  1.4e-05  1.010962  0.0
C  C70  1  0.22998234  0.21929456  0.00315096  1  -0.050776  0.006325  0.003147  0.007062  0.004817  3.938161  0.004
C  C71  1  0.27002820  0.71929468  0.49684686  1  -0.050753  0.006328  0.003165  0.007037  0.004819  3.937885  0.004
C  C72  1  0.77000505  0.78071019  0.99685098  1  -0.051224  0.006335  0.003216  0.00722  0.004824  3.938119  0.004
C  C73  1  0.73002246  0.28071587  0.50315108  1  -0.051077  0.00633  0.003132  0.007127  0.004821  3.938315  0.004
C  C74  1  0.37654546  0.22436594  0.01671173  1  -0.102619  -0.000691  -0.080286  -0.140166  -0.001177  3.94564  -0.001
C  C75  1  0.12345874  0.72436981  0.48328444  1  -0.102587  -0.000692  -0.080272  -0.140116  -0.001178  3.945205  -0.001
C  C76  1  0.62343984  0.77562848  0.98328364  1  -0.10173  -0.000694  -0.080127  -0.140004  -0.001179  3.945355  -0.001
C  C77  1  0.87658761  0.27563687  0.51671570  1  -0.101479  -0.000693  -0.079987  -0.14002  -0.001179  3.945434  -0.001
C  C78  1  0.15826242  0.13292359  0.00328734  1  1.564454  0.00029  0.240986  0.662614  0.000187  4.15109  0.0
C  C79  1  0.34172106  0.63292154  0.49670915  1  1.564124  0.00029  0.240839  0.662465  0.000187  4.150991  0.0
C  C80  1  0.84168314  0.86709018  0.99671910  1  1.564063  0.00029  0.240789  0.662205  0.000187  4.151411  0.0
C  C81  1  0.65832641  0.36709417  0.50328496  1  1.562674  0.00029  0.241054  0.662442  0.000187  4.151202  0.0
C  C82  1  0.44167089  0.30473955  0.01688617  1  0.525377  0.007462  0.043038  0.086027  0.006253  3.929265  0.005
C  C83  1  0.05833779  0.80474306  0.48310866  1  0.525266  0.007463  0.042997  0.086056  0.006254  3.92952  0.005
C  C84  1  0.55833375  0.69525100  0.98310421  1  0.524817  0.007472  0.042938  0.085808  0.006261  3.929373  0.005
C  C85  1  0.94169995  0.19526298  0.51689535  1  0.524185  0.007466  0.042949  0.085815  0.006255  3.929808  0.005
C  C86  1  0.15329076  0.29511023  0.99006386  1  -0.005508  -0.000241  -0.075111  -0.131219  -0.000554  3.927326  0.0
C  C87  1  0.34671372  0.79511531  0.50993289  1  -0.005525  -0.000242  -0.075117  -0.131222  -0.000555  3.927004  0.0
C  C88  1  0.84670198  0.70489710  0.00993807  1  -0.005377  -0.000245  -0.075196  -0.131364  -0.000557  3.927281  0.0
C  C89  1  0.65332086  0.20490750  0.49006399  1  -0.004342  -0.000244  -0.075247  -0.131311  -0.000556  3.927336  0.0
C  C90  1  0.49316919  0.49074925  0.35786427  1  1.590413  0.000408  0.235002  0.645323  0.000259  4.175958  0.0
C  C91  1  0.00678770  0.99077124  0.14213453  1  1.589991  0.000408  0.23486  0.645162  0.000259  4.175652  0.0
C  C92  1  0.50678286  0.50923421  0.64213447  1  1.590242  0.000408  0.234779  0.644967  0.000258  4.175915  0.0
C  C93  1  0.99317933  0.00924834  0.85786691  1  1.589919  0.000407  0.234881  0.645129  0.000258  4.175966  0.0
C  C94  1  0.22757768  0.37285838  0.98914195  1  0.436807  0.007221  0.043715  0.077278  0.005675  3.942727  0.005
C  C95  1  0.27242697  0.87286627  0.51085183  1  0.437152  0.007222  0.043744  0.077228  0.005677  3.942734  0.005
C  C96  1  0.77243012  0.62714185  0.01085446  1  0.436538  0.00723  0.04368  0.07721  0.005683  3.942633  0.005
C  C97  1  0.72759902  0.12715267  0.48914781  1  0.436238  0.007228  0.04391  0.07765  0.00568  3.942153  0.005
C  C98  1  0.06065272  0.33483475  0.69520403  1  -0.049095  4e-05  0.003892  0.015973  1.3e-05  3.944039  0.0
C  C99  1  0.43934377  0.83482950  0.80479757  1  -0.049384  4e-05  0.003948  0.015981  1.3e-05  3.944257  0.0
C  C100  1  0.93937005  0.66515839  0.30479618  1  -0.049562  4e-05  0.003764  0.015981  1.3e-05  3.944025  0.0
C  C101  1  0.56061793  0.16517138  0.19520115  1  -0.049552  4e-05  0.003732  0.015951  1.3e-05  3.943993  0.0
C  C102  1  0.37728245  0.47195275  0.23486827  1  0.037433  -0.000856  -0.078162  -0.143656  -0.001238  3.956824  -0.001
C  C103  1  0.12270953  0.97195878  0.26512830  1  0.03828  -0.000857  -0.078056  -0.143481  -0.001239  3.956712  -0.001
C  C104  1  0.62271573  0.52803909  0.76512487  1  0.038312  -0.000857  -0.078053  -0.143638  -0.001238  3.956824  -0.001
C  C105  1  0.87727572  0.02804661  0.73487364  1  0.037606  -0.000857  -0.078158  -0.143745  -0.001238  3.957006  -0.001
C  C106  1  0.12772583  0.36720855  0.62508613  1  1.579768  5.1e-05  0.2007  0.567459  4.8e-05  4.243425  0.0
C  C107  1  0.37227331  0.86720716  0.87491481  1  1.57967  5.1e-05  0.20067  0.567413  4.8e-05  4.243393  0.0
C  C108  1  0.87231297  0.63278458  0.37491842  1  1.579137  5.1e-05  0.20059  0.567204  4.8e-05  4.243028  0.0
C  C109  1  0.62767023  0.13280017  0.12507682  1  1.579057  5.1e-05  0.200745  0.567325  4.8e-05  4.243332  0.0
C  C110  1  0.62913303  0.50220153  0.16129511  1  0.438674  0.008897  0.053356  0.094611  0.006943  3.938394  0.006
C  C111  1  0.87086415  0.00220667  0.33870761  1  0.438404  0.0089  0.053364  0.094615  0.006945  3.938391  0.006
C  C112  1  0.37087683  0.49778386  0.83871061  1  0.43837  0.008898  0.053431  0.09464  0.006943  3.938602  0.006
C  C113  1  0.12912004  0.99779292  0.66129324  1  0.438182  0.008895  0.053334  0.094624  0.006941  3.938434  0.006
C  C114  1  0.49991880  0.49055075  0.27530223  1  -0.022825  0.00752  0.004467  0.008742  0.005807  3.943125  0.005
C  C115  1  0.00007021  0.99056076  0.22469978  1  -0.023583  0.007522  0.004468  0.008817  0.005808  3.942889  0.005
C  C116  1  0.50006540  0.50944174  0.72469752  1  -0.023512  0.007518  0.004456  0.008911  0.005805  3.942887  0.005
C  C117  1  0.99992145  0.00945302  0.77530325  1  -0.023151  0.007516  0.004468  0.008805  0.005804  3.943223  0.005
C  C118  1  0.62839695  0.50624605  0.23757846  1  0.065339  -0.000679  -0.076209  -0.140665  -0.001007  3.931312  -0.001
C  C119  1  0.87159279  0.00625149  0.26242481  1  0.065142  -0.00068  -0.076215  -0.140656  -0.001007  3.931284  -0.001
C  C120  1  0.37159899  0.49374451  0.76242675  1  0.065217  -0.00068  -0.07621  -0.140592  -0.001006  3.931227  -0.001
C  C121  1  0.12839461  0.99375777  0.73757658  1  0.065753  -0.000679  -0.076185  -0.14064  -0.001006  3.931454  -0.001
C  C122  1  0.38615006  0.47248835  0.15885061  1  0.439094  0.008277  0.049093  0.089447  0.006393  3.952536  0.005
C  C123  1  0.11384836  0.97249273  0.34114540  1  0.438957  0.00828  0.049143  0.089336  0.006396  3.952656  0.005
C  C124  1  0.61386100  0.52750092  0.84114085  1  0.438566  0.008278  0.048989  0.089371  0.006394  3.952643  0.005
C  C125  1  0.88613474  0.02750492  0.65885656  1  0.43854  0.008276  0.049027  0.089396  0.006392  3.952446  0.005
C  C126  1  0.10877589  0.25763391  0.72630494  1  0.010561  8.4e-05  -0.073503  -0.137636  1.3e-05  3.926548  0.0
C  C127  1  0.39122046  0.75763109  0.77369853  1  0.010581  8.4e-05  -0.073421  -0.1376  1.3e-05  3.926404  0.0
C  C128  1  0.89123936  0.74235600  0.27369748  1  0.010645  8.4e-05  -0.073557  -0.137927  1.3e-05  3.926638  0.0
C  C129  1  0.60875194  0.24237108  0.22630235  1  0.010614  8.4e-05  -0.073445  -0.137778  1.3e-05  3.926235  0.0
C  C130  1  0.04509228  0.22913901  0.79131276  1  0.512072  6e-05  0.04723  0.085092  1.9e-05  3.976322  0.0
C  C131  1  0.45490685  0.72913810  0.70868804  1  0.512356  6e-05  0.047187  0.084942  1.9e-05  3.976295  0.0
C  C132  1  0.95491977  0.77085090  0.20868747  1  0.511923  6e-05  0.047265  0.085152  1.9e-05  3.976122  0.0
C  C133  1  0.54507412  0.27086278  0.29131282  1  0.512143  6e-05  0.047343  0.085262  1.9e-05  3.976055  0.0
C  C134  1  0.89200506  0.34595811  0.79539373  1  0.414903  0.000302  0.046138  0.086242  0.000241  3.954749  0.0
C  C135  1  0.60799022  0.84596043  0.70460987  1  0.414375  0.000302  0.0462  0.086314  0.000241  3.954546  0.0
C  C136  1  0.10800807  0.65403051  0.20460541  1  0.41471  0.000302  0.045993  0.085939  0.000242  3.954903  0.0
C  C137  1  0.39198214  0.15404432  0.29539485  1  0.415667  0.000302  0.046085  0.085977  0.000242  3.954735  0.0
C  C138  1  0.95080084  0.38009489  0.73100508  1  -0.009347  0.000104  -0.077788  -0.142706  6e-05  3.938368  0.0
C  C139  1  0.54919500  0.88009404  0.76899678  1  -0.008564  0.000104  -0.077833  -0.142647  6e-05  3.938576  0.0
C  C140  1  0.04921765  0.61989502  0.26899404  1  -0.008488  0.000104  -0.077661  -0.142413  6e-05  3.938215  0.0
C  C141  1  0.45077098  0.11991006  0.23100302  1  -0.008583  0.000104  -0.077582  -0.142284  6e-05  3.938117  0.0
N  N142  1  0.36950550  0.37787627  0.00198791  1  -1.299066  0.04922  -0.319095  -0.225606  0.032177  3.515481  0.016
N  N143  1  0.13050434  0.87787496  0.49800450  1  -1.299111  0.049226  -0.319036  -0.225557  0.032177  3.516087  0.016
N  N144  1  0.63050877  0.62212267  0.99800354  1  -1.298768  0.049217  -0.319005  -0.225426  0.032172  3.515909  0.016
N  N145  1  0.86951949  0.12212914  0.50199680  1  -1.298968  0.049239  -0.319257  -0.225826  0.032178  3.515946  0.016
N  N146  1  0.50994039  0.48710118  0.12239505  1  -1.243795  0.050456  -0.31576  -0.21697  0.032931  3.517179  0.017
N  N147  1  0.99006009  0.98710495  0.37760459  1  -1.243634  0.050465  -0.315714  -0.216842  0.032931  3.517087  0.017
N  N148  1  0.49007383  0.51288292  0.87760243  1  -1.243416  0.050465  -0.315646  -0.216873  0.032931  3.517066  0.017
N  N149  1  0.00992302  0.01288754  0.62239682  1  -1.243119  0.050455  -0.315689  -0.216924  0.032929  3.516783  0.017
N  N150  1  0.93759369  0.27152854  0.82504289  1  -1.230003  0.000241  -0.296668  -0.224591  0.000133  3.390212  0.0
N  N151  1  0.56240261  0.77152749  0.67495818  1  -1.230064  0.000241  -0.296667  -0.224533  0.000133  3.389999  0.0
N  N152  1  0.06241731  0.72846266  0.17495570  1  -1.229658  0.000241  -0.296602  -0.224462  0.000133  3.390044  0.0
N  N153  1  0.43757193  0.22847274  0.32504324  1  -1.230217  0.000241  -0.296813  -0.224745  0.000133  3.390184  0.0
Cl  Cl154  1  0.73625736  0.41429348  0.98533493  1  -0.745391  0.081828  -0.32641  -0.574497  0.063786  1.036597  0.04
Cl  Cl155  1  0.76374764  0.91429163  0.51466076  1  -0.745603  0.081841  -0.326444  -0.574531  0.063773  1.036455  0.04
Cl  Cl156  1  0.26375898  0.58570288  0.01466529  1  -0.745608  0.081817  -0.326447  -0.574533  0.063762  1.03644  0.039
Cl  Cl157  1  0.23625375  0.08570280  0.48533346  1  -0.745552  0.081837  -0.32642  -0.574504  0.063771  1.03651  0.04
O  O158  1  0.08301000  0.42843166  0.43521057  1  -1.261558  6.1e-05  -0.629996  -0.844985  2.9e-05  2.055404  0.0
O  O159  1  0.41699310  0.92842918  0.06478501  1  -1.261493  6.1e-05  -0.629975  -0.84501  2.9e-05  2.055203  0.0
O  O160  1  0.91699662  0.57156921  0.56479736  1  -1.26126  6.1e-05  -0.630099  -0.845057  2.9e-05  2.055346  0.0
O  O161  1  0.58299223  0.07156589  0.93520761  1  -1.261382  6.1e-05  -0.630019  -0.845127  2.9e-05  2.055314  0.0
O  O162  1  0.59750701  0.52476404  0.39087661  1  -1.195692  0.000873  -0.392039  -0.67424  0.000655  2.355793  0.001
O  O163  1  0.90246469  0.02478769  0.10913817  1  -1.196181  0.000872  -0.392124  -0.674127  0.000655  2.356081  0.001
O  O164  1  0.40245239  0.47521748  0.60914021  1  -1.196099  0.000872  -0.392084  -0.673998  0.000655  2.3561  0.001
O  O165  1  0.09751945  0.97521383  0.89086707  1  -1.195436  0.000872  -0.39218  -0.674263  0.000655  2.355635  0.001
O  O166  1  0.23908468  0.06724086  0.00438763  1  -1.18016  0.000769  -0.394675  -0.649128  0.00058  2.296537  0.001
O  O167  1  0.26091923  0.56724803  0.49560571  1  -1.179823  0.000769  -0.394506  -0.648878  0.00058  2.29686  0.001
O  O168  1  0.76088135  0.93275873  0.99560559  1  -1.180494  0.000769  -0.394466  -0.648718  0.00058  2.297192  0.001
O  O169  1  0.73916348  0.43276833  0.50440257  1  -1.179322  0.000769  -0.394756  -0.648913  0.00058  2.296643  0.001
O  O170  1  0.38377676  0.45543125  0.38670102  1  -1.179945  0.001081  -0.391778  -0.661796  0.000814  2.308508  0.001
O  O171  1  0.11619040  0.95544817  0.11328579  1  -1.179004  0.001082  -0.391603  -0.661721  0.000814  2.30786  0.001
O  O172  1  0.61617863  0.54455801  0.61328399  1  -1.179365  0.001081  -0.391539  -0.661695  0.000813  2.308052  0.001
O  O173  1  0.88380453  0.04457077  0.88671229  1  -1.179631  0.00108  -0.391509  -0.661529  0.000813  2.308533  0.001
O  O174  1  0.09831120  0.44247741  0.60098007  1  -1.195903  9.3e-05  -0.343016  -0.626775  6.7e-05  2.235587  0.0
O  O175  1  0.40168166  0.94247802  0.89901683  1  -1.195802  9.3e-05  -0.343041  -0.626763  6.7e-05  2.235557  0.0
O  O176  1  0.90169237  0.55750541  0.39901086  1  -1.195642  9.3e-05  -0.342948  -0.626598  6.7e-05  2.235285  0.0
O  O177  1  0.59829499  0.05751770  0.10098788  1  -1.195453  9.3e-05  -0.343053  -0.626737  6.7e-05  2.235404  0.0
O  O178  1  0.21565102  0.31793616  0.59140671  1  -1.169361  0.000142  -0.37862  -0.62142  3e-05  2.187493  0.0
O  O179  1  0.28435266  0.81792962  0.90859985  1  -1.169536  0.000142  -0.378671  -0.621466  3e-05  2.187373  0.0
O  O180  1  0.78442513  0.68207117  0.40861585  1  -1.168971  0.000142  -0.378615  -0.621423  3e-05  2.187485  0.0
O  O181  1  0.71554923  0.18208480  0.09137487  1  -1.169319  0.000142  -0.378606  -0.621289  3e-05  2.187667  0.0
O  O182  1  0.02264537  0.13244134  0.00203296  1  -1.15162  0.0008  -0.413383  -0.692894  0.000566  2.379216  0.001
O  O183  1  0.47736053  0.63244069  0.49797171  1  -1.15151  0.000801  -0.413441  -0.692981  0.000567  2.378567  0.001
O  O184  1  0.97732468  0.86758082  0.99799097  1  -1.150799  0.000802  -0.413462  -0.692903  0.000568  2.378555  0.001
O  O185  1  0.52270629  0.36759567  0.50201522  1  -1.150553  0.000801  -0.413381  -0.692947  0.000567  2.378955  0.001
O  O186  1  0.26483558  0.28731582  0.43596805  1  -1.28591  0.001242  -0.637716  -0.853115  0.000783  2.114773  0.001
O  O187  1  0.23516952  0.78731684  0.06403781  1  -1.285759  0.001242  -0.637676  -0.852994  0.000783  2.11484  0.001
O  O188  1  0.73517959  0.71267989  0.56404370  1  -1.285875  0.001242  -0.637662  -0.853105  0.000783  2.114769  0.001
O  O189  1  0.76481794  0.21268404  0.93595645  1  -1.285889  0.001242  -0.637689  -0.853052  0.000784  2.114693  0.001
