# generated using pymatgen
data_CdH24C34(NO3)2
_symmetry_space_group_name_H-M   'P 1'
_cell_length_a   8.00209410
_cell_length_b   12.17890850
_cell_length_c   15.47467415
_cell_angle_alpha   108.41808184
_cell_angle_beta   101.08041852
_cell_angle_gamma   97.51884038
_symmetry_Int_Tables_number   1
_chemical_formula_structural   CdH24C34(NO3)2
_chemical_formula_sum   'Cd2 H48 C68 N4 O12'
_cell_volume   1374.14360328
_cell_formula_units_Z   2
loop_
 _symmetry_equiv_pos_site_id
 _symmetry_equiv_pos_as_xyz
  1  'x, y, z'
loop_
 _atom_site_type_symbol
 _atom_site_label
 _atom_site_symmetry_multiplicity
 _atom_site_fract_x
 _atom_site_fract_y
 _atom_site_fract_z
 _atom_site_occupancy
 _atom_site_hle17_bader_spin_density
 _atom_site_hle17_ddec_charge
 _atom_site_hle17_ddec_spin_density
 _atom_site_hle17_ddec_sum_bond_order
 _atom_site_hle17_magmom
 _atom_site_hse06_10hf_bader_spin_density
 _atom_site_hse06_10hf_ddec_charge
 _atom_site_hse06_10hf_ddec_spin_density
 _atom_site_hse06_10hf_ddec_sum_bond_order
 _atom_site_hse06_10hf_magmom
 _atom_site_hse06_bader_spin_density
 _atom_site_hse06_ddec_charge
 _atom_site_hse06_ddec_spin_density
 _atom_site_hse06_ddec_sum_bond_order
 _atom_site_hse06_magmom
 _atom_site_pbe_bader_spin_density
 _atom_site_pbe_cm5_charge
 _atom_site_pbe_ddec_charge
 _atom_site_pbe_ddec_spin_density
 _atom_site_pbe_ddec_sum_bond_order
 _atom_site_pbe_magmom
Cd  Cd0  1  0.02003296  0.42303947  0.30595273  1  0  1.097182  0  1.669439  0  0  0.901013  0  2.114768  0  0  0.961119  0  2.061968  0  0  0.754593  0.858553  0  2.150638  0
Cd  Cd1  1  0.97996728  0.57696217  0.69404936  1  0  1.09717  0  1.669399  0  0  0.900998  0  2.11473  0  0  0.961105  0  2.061932  0  0  0.75459  0.858537  0  2.15059  0
H  H2  1  0.30293325  0.48164834  0.44772793  1  0  0.4163  0  0.833251  0  0  0.398838  0  0.888238  0  0  0.407302  0  0.878865  0  0  0.311949  0.392823  0  0.894906  0
H  H3  1  0.69706472  0.51834975  0.55227112  1  0  0.416315  0  0.833261  0  0  0.398855  0  0.88824  0  0  0.407318  0  0.878868  0  0  0.311971  0.392837  0  0.894916  0
H  H4  1  0.21730179  0.59099593  0.48944386  1  0  0.425652  0  0.883989  0  0  0.389607  0  0.956794  0  0  0.401475  0  0.939562  0  0  0.281105  0.381206  0  0.968972  0
H  H5  1  0.78269999  0.40900218  0.51055624  1  0  0.425617  0  0.884045  0  0  0.389559  0  0.956871  0  0  0.401428  0  0.939638  0  0  0.281093  0.381157  0  0.969052  0
H  H6  1  0.15846776  0.19037253  0.73737941  1  0  0.102368  0  0.955377  0  0  0.111107  0  1.020381  0  0  0.114057  0  1.020417  0  0  0.104016  0.109012  0  1.020486  0
H  H7  1  0.84153428  0.80962646  0.26262093  1  0  0.102396  0  0.955372  0  0  0.111121  0  1.020388  0  0  0.114071  0  1.020423  0  0  0.10402  0.109024  0  1.02049  0
H  H8  1  0.74116180  0.22316278  0.51328368  1  0  0.102496  0  0.946898  0  0  0.116788  0  1.000978  0  0  0.119833  0  0.999382  0  0  0.106199  0.114568  0  1.002227  0
H  H9  1  0.25883419  0.77683263  0.48671063  1  0  0.102535  0  0.946945  0  0  0.116828  0  1.001021  0  0  0.119872  0  0.999425  0  0  0.106211  0.114602  0  1.002267  0
H  H10  1  0.36190627  0.16284116  0.17366724  1  0  0.116697  0  0.955845  0  0  0.122686  0  1.020689  0  0  0.126794  0  1.017971  0  0  0.109342  0.119754  0  1.022732  0
H  H11  1  0.63809503  0.83715959  0.82633281  1  0  0.116712  0  0.95581  0  0  0.122684  0  1.020677  0  0  0.12679  0  1.017961  0  0  0.109346  0.119754  0  1.022722  0
H  H12  1  0.71117650  0.33859735  0.77232229  1  0  0.100888  0  0.984678  0  0  0.108273  0  1.050987  0  0  0.110822  0  1.049925  0  0  0.102543  0.106416  0  1.051774  0
H  H13  1  0.28881823  0.66140247  0.22767362  1  0  0.100827  0  0.984628  0  0  0.108206  0  1.050967  0  0  0.110755  0  1.049908  0  0  0.102517  0.106348  0  1.051767  0
H  H14  1  0.87800678  0.30361155  0.08081661  1  0  0.077422  0  0.956824  0  0  0.087121  0  1.020089  0  0  0.089283  0  1.018336  0  0  0.11439  0.085458  0  1.021452  0
H  H15  1  0.12200055  0.69638836  0.91918774  1  0  0.077505  0  0.956723  0  0  0.08715  0  1.020035  0  0  0.089312  0  1.018283  0  0  0.114409  0.085483  0  1.0214  0
H  H16  1  0.53131473  0.37312328  0.63387711  1  0  0.122223  0  0.961876  0  0  0.131391  0  1.022943  0  0  0.13492  0  1.021432  0  0  0.106218  0.128818  0  1.024185  0
H  H17  1  0.46868478  0.62687569  0.36612167  1  0  0.122252  0  0.961863  0  0  0.131425  0  1.022927  0  0  0.134956  0  1.021413  0  0  0.106237  0.128857  0  1.024172  0
H  H18  1  0.13790284  0.19585958  0.07804977  1  0  0.101697  0  0.951297  0  0  0.112227  0  1.012203  0  0  0.114588  0  1.011378  0  0  0.106456  0.11052  0  1.012822  0
H  H19  1  0.86210071  0.80414030  0.92195224  1  0  0.101712  0  0.951233  0  0  0.112211  0  1.012164  0  0  0.114573  0  1.011339  0  0  0.106452  0.110511  0  1.012787  0
H  H20  1  0.64474571  0.26666713  0.28885560  1  0  0.079448  0  0.955375  0  0  0.089433  0  1.016862  0  0  0.091864  0  1.014502  0  0  0.113728  0.087575  0  1.018721  0
H  H21  1  0.35525043  0.73333360  0.71114649  1  0  0.079489  0  0.955408  0  0  0.089468  0  1.01689  0  0  0.091899  0  1.014532  0  0  0.11373  0.087612  0  1.018745  0
H  H22  1  0.60504356  0.20186958  0.95554181  1  0  0.105962  0  0.948979  0  0  0.117995  0  1.006738  0  0  0.120839  0  1.006703  0  0  0.107041  0.115949  0  1.006944  0
H  H23  1  0.39496790  0.79812680  0.04445888  1  0  0.105952  0  0.948971  0  0  0.11801  0  1.00669  0  0  0.120853  0  1.006664  0  0  0.107054  0.115961  0  1.006891  0
H  H24  1  0.57593898  0.46864674  0.17327029  1  0  0.0967  0  0.975468  0  0  0.105402  0  1.042136  0  0  0.107512  0  1.042608  0  0  0.099134  0.103878  0  1.041884  0
H  H25  1  0.42404956  0.53135396  0.82672906  1  0  0.09676  0  0.975389  0  0  0.105385  0  1.042154  0  0  0.107496  0  1.042623  0  0  0.099139  0.103862  0  1.041899  0
H  H26  1  0.40253423  0.02531645  0.87130412  1  0  0.085166  0  0.980392  0  0  0.09252  0  1.049868  0  0  0.094248  0  1.050767  0  0  0.096005  0.091319  0  1.049225  0
H  H27  1  0.59746368  0.97468165  0.12869751  1  0  0.085213  0  0.980312  0  0  0.092553  0  1.049797  0  0  0.094284  0  1.050691  0  0  0.096016  0.09135  0  1.049154  0
H  H28  1  0.85622006  0.11503367  0.95739028  1  0  0.101267  0  0.977901  0  0  0.110671  0  1.043242  0  0  0.11308  0  1.043306  0  0  0.102479  0.108972  0  1.043305  0
H  H29  1  0.14378245  0.88496710  0.04261313  1  0  0.101315  0  0.977839  0  0  0.110625  0  1.043313  0  0  0.113031  0  1.04338  0  0  0.102481  0.10893  0  1.043371  0
H  H30  1  0.17872676  0.12137034  0.40823555  1  0  0.115478  0  0.944926  0  0  0.12281  0  1.009129  0  0  0.127265  0  1.00527  0  0  0.106718  0.119592  0  1.011917  0
H  H31  1  0.82127843  0.87863041  0.59176103  1  0  0.115484  0  0.944922  0  0  0.122811  0  1.009135  0  0  0.127262  0  1.005274  0  0  0.106738  0.119597  0  1.011923  0
H  H32  1  0.49334226  0.90887034  0.69351283  1  0  0.115577  0  0.943197  0  0  0.128468  0  0.998946  0  0  0.131489  0  0.997707  0  0  0.109697  0.126343  0  0.999883  0
H  H33  1  0.50665974  0.09113308  0.30649182  1  0  0.115568  0  0.943161  0  0  0.128462  0  0.998911  0  0  0.131485  0  0.997669  0  0  0.109672  0.126335  0  0.999854  0
H  H34  1  0.16964731  0.47701803  0.88811013  1  0  0.102613  0  0.975875  0  0  0.110011  0  1.043952  0  0  0.113426  0  1.041963  0  0  0.097268  0.107499  0  1.045539  0
H  H35  1  0.83034199  0.52297649  0.11188649  1  0  0.102506  0  0.975935  0  0  0.109926  0  1.044003  0  0  0.113306  0  1.042059  0  0  0.09724  0.107416  0  1.045595  0
H  H36  1  0.96969316  0.33172550  0.71630157  1  0  0.076256  0  0.959344  0  0  0.084875  0  1.026058  0  0  0.086974  0  1.024252  0  0  0.113073  0.083349  0  1.027284  0
H  H37  1  0.03030833  0.66827615  0.28370195  1  0  0.076226  0  0.959368  0  0  0.084833  0  1.026097  0  0  0.086929  0  1.024298  0  0  0.113059  0.08331  0  1.027328  0
H  H38  1  0.32836989  0.50707377  0.61948126  1  0  0.078688  0  0.935112  0  0  0.09015  0  0.995752  0  0  0.092595  0  0.993064  0  0  0.117386  0.088309  0  0.997771  0
H  H39  1  0.67163343  0.49292964  0.38052095  1  0  0.078687  0  0.935136  0  0  0.090124  0  0.995794  0  0  0.092569  0  0.993108  0  0  0.117373  0.088282  0  0.997816  0
H  H40  1  0.90903366  0.21739468  0.81865579  1  0  0.112721  0  0.957219  0  0  0.125795  0  1.012277  0  0  0.128548  0  1.0122  0  0  0.10684  0.123864  0  1.012419  0
H  H41  1  0.09096564  0.78260782  0.18134254  1  0  0.112701  0  0.957273  0  0  0.125761  0  1.012334  0  0  0.128512  0  1.012263  0  0  0.106824  0.12383  0  1.012479  0
H  H42  1  0.29026431  0.03305240  0.65360719  1  0  0.087196  0  0.990354  0  0  0.09577  0  1.057027  0  0  0.097384  0  1.057886  0  0  0.098186  0.094591  0  1.056514  0
H  H43  1  0.70973725  0.96694924  0.34639310  1  0  0.08722  0  0.990339  0  0  0.095777  0  1.057056  0  0  0.097393  0  1.057915  0  0  0.09819  0.094613  0  1.056495  0
H  H44  1  0.05738884  0.43509174  0.01499719  1  0  0.091138  0  0.975131  0  0  0.101755  0  1.038679  0  0  0.104504  0  1.03742  0  0  0.098293  0.09976  0  1.039683  0
H  H45  1  0.94259635  0.56489745  0.98499704  1  0  0.091123  0  0.975259  0  0  0.101736  0  1.03882  0  0  0.104487  0  1.037559  0  0  0.098282  0.099745  0  1.039828  0
H  H46  1  0.71492090  0.05552379  0.57149243  1  0  0.095028  0  0.963141  0  0  0.106006  0  1.023305  0  0  0.108066  0  1.024336  0  0  0.099709  0.104538  0  1.022667  0
H  H47  1  0.28508216  0.94447431  0.42850716  1  0  0.095051  0  0.963092  0  0  0.106012  0  1.02327  0  0  0.108073  0  1.0243  0  0  0.09971  0.104538  0  1.022633  0
H  H48  1  0.11857907  0.94393618  0.75138632  1  0  0.116808  0  0.951003  0  0  0.12534  0  1.014894  0  0  0.127699  0  1.01487  0  0  0.10631  0.123634  0  1.015056  0
H  H49  1  0.88141964  0.05606457  0.24861540  1  0  0.116793  0  0.950973  0  0  0.125327  0  1.014864  0  0  0.127686  0  1.014838  0  0  0.106301  0.123616  0  1.015028  0
C  C50  1  0.97517686  0.27949951  0.41781795  1  0  0.638316  0  3.921676  0  0  0.586039  0  4.216079  0  0  0.620301  0  4.210776  0  0  0.198908  0.5629  0  4.218715  0
C  C51  1  0.02482314  0.72049681  0.58218088  1  0  0.638469  0  3.921591  0  0  0.586156  0  4.216046  0  0  0.620418  0  4.210743  0  0  0.198936  0.563008  0  4.21869  0
C  C52  1  0.36370476  0.27005077  0.68898317  1  0  0.113467  0  3.757815  0  0  0.125426  0  3.987104  0  0  0.131145  0  4.008916  0  0  0.016067  0.121767  0  3.9723  0
C  C53  1  0.63629805  0.72995088  0.31101855  1  0  0.113478  0  3.757802  0  0  0.125437  0  3.987075  0  0  0.131154  0  4.008889  0  0  0.016098  0.12178  0  3.972269  0
C  C54  1  0.20000372  0.25785286  0.70911321  1  0  -0.156234  0  3.699737  0  0  -0.173624  0  3.947548  0  0  -0.181414  0  3.968142  0  0  -0.081571  -0.168691  0  3.93389  0
C  C55  1  0.79999884  0.74214789  0.29088762  1  0  -0.156273  0  3.69981  0  0  -0.173651  0  3.947609  0  0  -0.181441  0  3.968203  0  0  -0.081579  -0.168709  0  3.933942  0
C  C56  1  0.31083189  0.45186030  0.10281083  1  0  -0.059348  0  3.777351  0  0  -0.034968  0  4.012104  0  0  -0.041887  0  4.03394  0  0  -0.023471  -0.030568  0  3.997436  0
C  C57  1  0.68916025  0.54813510  0.89718437  1  0  -0.059462  0  3.77754  0  0  -0.035045  0  4.012236  0  0  -0.042036  0  4.034162  0  0  -0.023478  -0.030636  0  3.997559  0
C  C58  1  0.83151425  0.16328116  0.50401110  1  0  -0.079222  0  3.754269  0  0  -0.103718  0  4.004652  0  0  -0.104593  0  4.025693  0  0  -0.088523  -0.102967  0  3.990346  0
C  C59  1  0.16848427  0.83671426  0.49598477  1  0  -0.07919  0  3.754287  0  0  -0.103686  0  4.004678  0  0  -0.104559  0  4.025716  0  0  -0.088516  -0.10292  0  3.990348  0
C  C60  1  0.48500768  0.19505792  0.70967964  1  0  0.018455  0  3.786147  0  0  0.034097  0  4.014427  0  0  0.030899  0  4.037763  0  0  -0.016648  0.036126  0  3.998525  0
C  C61  1  0.51499668  0.80494461  0.29032181  1  0  0.018342  0  3.786244  0  0  0.034024  0  4.014469  0  0  0.030824  0  4.037807  0  0  -0.016766  0.036054  0  3.998562  0
C  C62  1  0.29097306  0.11854194  0.98275518  1  0  0.030828  0  3.775092  0  0  0.045675  0  4.006026  0  0  0.043151  0  4.029855  0  0  -0.010575  0.047298  0  3.989776  0
C  C63  1  0.70903206  0.88145882  0.01724527  1  0  0.030936  0  3.774899  0  0  0.045682  0  4.005999  0  0  0.043158  0  4.02983  0  0  -0.010534  0.0473  0  3.989759  0
C  C64  1  0.47311160  0.19028022  0.14890548  1  0  -0.142729  0  3.686406  0  0  -0.161257  0  3.941317  0  0  -0.167303  0  3.958536  0  0  -0.077458  -0.157545  0  3.930026  0
C  C65  1  0.52689122  0.80972142  0.85109559  1  0  -0.142785  0  3.686382  0  0  -0.16128  0  3.941299  0  0  -0.167327  0  3.958518  0  0  -0.077457  -0.157566  0  3.930012  0
C  C66  1  0.97393811  0.02884168  0.84724870  1  0  0.268413  0  3.786183  0  0  0.259423  0  4.046125  0  0  0.269141  0  4.06198  0  0  0.083071  0.252811  0  4.035241  0
C  C67  1  0.02606370  0.97116084  0.15275248  1  0  0.268329  0  3.786347  0  0  0.259364  0  4.046204  0  0  0.26911  0  4.062053  0  0  0.083075  0.252757  0  4.035318  0
C  C68  1  0.66124889  0.24457919  0.75476460  1  0  -0.073794  0  3.73039  0  0  -0.091763  0  3.975356  0  0  -0.091075  0  3.995063  0  0  -0.084226  -0.091949  0  3.961846  0
C  C69  1  0.33875271  0.75542243  0.24523311  1  0  -0.073668  0  3.730327  0  0  -0.091632  0  3.975249  0  0  -0.090942  0  3.994956  0  0  -0.084169  -0.091823  0  3.961749  0
C  C70  1  0.45852602  0.17116236  0.05325910  1  0  0.108007  0  3.758028  0  0  0.116986  0  3.991333  0  0  0.122405  0  4.012561  0  0  0.014315  0.113502  0  3.976954  0
C  C71  1  0.54147883  0.82883753  0.94674175  1  0  0.108122  0  3.757967  0  0  0.117074  0  3.99138  0  0  0.122493  0  4.012609  0  0  0.014323  0.113588  0  3.977005  0
C  C72  1  0.76168146  0.26736524  0.09762055  1  0  0.12357  0  3.732541  0  0  0.093232  0  3.986634  0  0  0.100694  0  4.004801  0  0  0.039935  0.088371  0  3.974317  0
C  C73  1  0.23832462  0.73263466  0.90238302  1  0  0.123429  0  3.73265  0  0  0.093157  0  3.986707  0  0  0.100622  0  4.004872  0  0  0.039907  0.088306  0  3.97438  0
C  C74  1  0.40817730  0.35944549  0.65316927  1  0  -0.159112  0  3.680637  0  0  -0.177838  0  3.929212  0  0  -0.185974  0  3.949418  0  0  -0.081688  -0.172666  0  3.915818  0
C  C75  1  0.59182350  0.64055349  0.34682899  1  0  -0.159165  0  3.680735  0  0  -0.177909  0  3.92932  0  0  -0.186044  0  3.949525  0  0  -0.081721  -0.17274  0  3.915929  0
C  C76  1  0.13480315  0.14169835  0.00638371  1  0  -0.075479  0  3.730102  0  0  -0.095966  0  3.978914  0  0  -0.096815  0  4.00062  0  0  -0.082871  -0.095192  0  3.964102  0
C  C77  1  0.86520322  0.85830242  0.99361816  1  0  -0.075643  0  3.730132  0  0  -0.096064  0  3.978978  0  0  -0.096914  0  4.000683  0  0  -0.08295  -0.095304  0  3.964184  0
C  C78  1  0.55808241  0.49879932  0.04114145  1  0  0.057449  0  3.78309  0  0  0.07569  0  4.005107  0  0  0.075362  0  4.028516  0  0  -0.009372  0.075902  0  3.989176  0
C  C79  1  0.44190437  0.50119960  0.95885534  1  0  0.057198  0  3.783303  0  0  0.075516  0  4.005221  0  0  0.075185  0  4.028639  0  0  -0.009365  0.075728  0  3.989287  0
C  C80  1  0.63068936  0.24810799  0.21381408  1  0  0.130599  0  3.714104  0  0  0.098227  0  3.972481  0  0  0.105533  0  3.990128  0  0  0.042597  0.093498  0  3.960513  0
C  C81  1  0.36931089  0.75189364  0.78618801  1  0  0.130563  0  3.714168  0  0  0.098209  0  3.972519  0  0  0.105514  0  3.990167  0  0  0.042577  0.093473  0  3.960548  0
C  C82  1  0.23514363  0.43501526  0.18042219  1  0  0.613793  0  3.956738  0  0  0.565923  0  4.250964  0  0  0.600008  0  4.244168  0  0  0.189081  0.542822  0  4.254625  0
C  C83  1  0.76484722  0.56498456  0.81957589  1  0  0.613769  0  3.956877  0  0  0.565888  0  4.251101  0  0  0.599993  0  4.244306  0  0  0.18902  0.542781  0  4.254768  0
C  C84  1  0.71251450  0.05545210  0.75954873  1  0  0.272696  0  3.805713  0  0  0.260855  0  4.072408  0  0  0.272675  0  4.087175  0  0  0.085853  0.252822  0  4.062253  0
C  C85  1  0.28748397  0.94455218  0.24045383  1  0  0.272731  0  3.805456  0  0  0.260742  0  4.072317  0  0  0.27259  0  4.087078  0  0  0.085768  0.252717  0  4.062151  0
C  C86  1  0.60922117  0.21005525  0.02823273  1  0  -0.16358  0  3.707752  0  0  -0.178971  0  3.953713  0  0  -0.186201  0  3.973353  0  0  -0.084407  -0.174339  0  3.940616  0
C  C87  1  0.39078521  0.78994552  0.97176850  1  0  -0.163645  0  3.707851  0  0  -0.179034  0  3.953795  0  0  -0.18627  0  3.973436  0  0  -0.084446  -0.174406  0  3.940697  0
C  C88  1  0.48833812  0.47183226  0.11125848  1  0  -0.113739  0  3.707255  0  0  -0.144118  0  3.953593  0  0  -0.144199  0  3.974509  0  0  -0.083993  -0.143835  0  3.939364  0
C  C89  1  0.51165583  0.52816934  0.88873907  1  0  -0.113662  0  3.70727  0  0  -0.144001  0  3.953578  0  0  -0.144055  0  3.97451  0  0  -0.084007  -0.143719  0  3.939343  0
C  C90  1  0.28368443  0.04695851  0.89044856  1  0  -0.085427  0  3.746706  0  0  -0.103906  0  3.992496  0  0  -0.104916  0  4.014609  0  0  -0.087353  -0.102984  0  3.977336  0
C  C91  1  0.71631659  0.95304135  0.10955189  1  0  -0.085549  0  3.746704  0  0  -0.103975  0  3.992538  0  0  -0.104985  0  4.014654  0  0  -0.087375  -0.103051  0  3.977376  0
C  C92  1  0.96344517  0.18189688  0.45741714  1  0  -0.06836  0  3.768056  0  0  -0.045622  0  4.006767  0  0  -0.053584  0  4.0301  0  0  -0.021767  -0.04046  0  3.990984  0
C  C93  1  0.03655384  0.81810032  0.54258051  1  0  -0.068417  0  3.768089  0  0  -0.04565  0  4.006791  0  0  -0.053614  0  4.030126  0  0  -0.021713  -0.04049  0  3.991013  0
C  C94  1  0.97711631  0.09757188  0.93904658  1  0  -0.181102  0  3.780639  0  0  -0.200789  0  4.032123  0  0  -0.206185  0  4.05361  0  0  -0.100301  -0.197138  0  4.017549  0
C  C95  1  0.02288776  0.90242978  0.06095592  1  0  -0.181014  0  3.780669  0  0  -0.200647  0  4.032154  0  0  -0.206036  0  4.05363  0  0  -0.100286  -0.197004  0  4.017587  0
C  C96  1  0.07897395  0.10612049  0.44462551  1  0  -0.103003  0  3.681346  0  0  -0.135504  0  3.932375  0  0  -0.134081  0  3.948905  0  0  -0.077229  -0.136191  0  3.921085  0
C  C97  1  0.92103117  0.89388028  0.55537494  1  0  -0.102994  0  3.681364  0  0  -0.135493  0  3.932425  0  0  -0.134064  0  3.948953  0  0  -0.077282  -0.136193  0  3.921148  0
C  C98  1  0.53858926  0.00359302  0.71201563  1  0  -0.184567  0  3.755569  0  0  -0.206448  0  4.012176  0  0  -0.211842  0  4.030653  0  0  -0.102864  -0.202849  0  3.99967  0
C  C99  1  0.46140613  0.99640948  0.28798681  1  0  -0.184493  0  3.75548  0  0  -0.206333  0  4.012103  0  0  -0.211726  0  4.030573  0  0  -0.10279  -0.202745  0  3.999608  0
C  C100  1  0.25981004  0.47601114  0.95027299  1  0  -0.123087  0  3.751411  0  0  -0.140914  0  4.000129  0  0  -0.14371  0  4.020673  0  0  -0.095409  -0.138963  0  3.986219  0
C  C101  1  0.74017849  0.52398513  0.04972398  1  0  -0.122925  0  3.751217  0  0  -0.140749  0  3.999935  0  0  -0.143519  0  4.020497  0  0  -0.09536  -0.138799  0  3.986036  0
C  C102  1  0.09425436  0.33648363  0.69776719  1  0  0.127726  0  3.73593  0  0  0.097653  0  3.989884  0  0  0.105485  0  4.008465  0  0  0.040972  0.092568  0  3.977278  0
C  C103  1  0.90574770  0.66351978  0.30223489  1  0  0.127872  0  3.736148  0  0  0.09781  0  3.990083  0  0  0.105642  0  4.008661  0  0  0.041028  0.092714  0  3.97749  0
C  C104  1  0.29426643  0.43431783  0.64382706  1  0  0.137285  0  3.714116  0  0  0.102983  0  3.97598  0  0  0.111289  0  3.993254  0  0  0.045413  0.097538  0  3.964282  0
C  C105  1  0.70573638  0.56568381  0.35617466  1  0  0.137322  0  3.71408  0  0  0.103049  0  3.975961  0  0  0.111355  0  3.993234  0  0  0.045439  0.097609  0  3.964267  0
C  C106  1  0.06710575  0.00932442  0.47662516  1  0  0.049464  0  3.789638  0  0  0.066153  0  4.0185  0  0  0.065871  0  4.041801  0  0  -0.008466  0.066321  0  4.002678  0
C  C107  1  0.93289888  0.99067457  0.52337351  1  0  0.049427  0  3.789555  0  0  0.066062  0  4.018457  0  0  0.065778  0  4.041758  0  0  -0.008459  0.066241  0  4.002632  0
C  C108  1  0.77412561  0.17642055  0.78114569  1  0  -0.204616  0  3.774862  0  0  -0.223541  0  4.026281  0  0  -0.229741  0  4.046175  0  0  -0.108528  -0.219379  0  4.012778  0
C  C109  1  0.22587465  0.82358108  0.21885576  1  0  -0.204633  0  3.774828  0  0  -0.223514  0  4.026283  0  0  -0.229711  0  4.046169  0  0  -0.108503  -0.219354  0  4.012779  0
C  C110  1  0.42592574  0.07371357  0.68932158  1  0  -0.085467  0  3.768562  0  0  -0.103915  0  4.015076  0  0  -0.103345  0  4.035935  0  0  -0.087659  -0.10404  0  4.000794  0
C  C111  1  0.57407455  0.92628806  0.31067793  1  0  -0.085478  0  3.768648  0  0  -0.103957  0  4.015172  0  0  -0.103387  0  4.036034  0  0  -0.087608  -0.104076  0  4.000886  0
C  C112  1  0.19669168  0.45292661  0.02072965  1  0  -0.086133  0  3.766816  0  0  -0.110177  0  4.016056  0  0  -0.110926  0  4.036609  0  0  -0.097206  -0.109541  0  4.002129  0
C  C113  1  0.80329684  0.54706967  0.97926796  1  0  -0.086117  0  3.766982  0  0  -0.110183  0  4.016214  0  0  -0.11091  0  4.036774  0  0  -0.097186  -0.109555  0  4.002293  0
C  C114  1  0.81682315  0.07002844  0.53615170  1  0  -0.109794  0  3.739713  0  0  -0.127768  0  3.988834  0  0  -0.130878  0  4.010348  0  0  -0.087157  -0.125655  0  3.97423  0
C  C115  1  0.18317893  0.92997054  0.46384670  1  0  -0.109891  0  3.739772  0  0  -0.127879  0  3.988923  0  0  -0.130988  0  4.010435  0  0  -0.087169  -0.12576  0  3.974306  0
C  C116  1  0.12596633  0.00115995  0.82270440  1  0  -0.16634  0  3.737811  0  0  -0.187906  0  3.991637  0  0  -0.192439  0  4.011545  0  0  -0.098727  -0.184855  0  3.978159  0
C  C117  1  0.87403522  0.99884169  0.17729653  1  0  -0.166228  0  3.737898  0  0  -0.187808  0  3.991694  0  0  -0.192338  0  4.011593  0  0  -0.098709  -0.184757  0  3.978214  0
N  N118  1  0.77356816  0.28739915  0.18957503  1  0  -0.351786  0  3.239353  0  0  -0.277189  0  3.508622  0  0  -0.297802  0  3.52832  0  0  -0.333691  -0.263149  0  3.494895  0
N  N119  1  0.22643362  0.71260337  0.81042745  1  0  -0.351706  0  3.23938  0  0  -0.27712  0  3.50862  0  0  -0.297734  0  3.528318  0  0  -0.333638  -0.263084  0  3.494893  0
N  N120  1  0.14052533  0.42519221  0.66711371  1  0  -0.353681  0  3.246567  0  0  -0.279035  0  3.519923  0  0  -0.300219  0  3.538945  0  0  -0.336528  -0.26465  0  3.506686  0
N  N121  1  0.85948105  0.57481299  0.33288990  1  0  -0.35379  0  3.246638  0  0  -0.279152  0  3.51999  0  0  -0.300334  0  3.539008  0  0  -0.336574  -0.264769  0  3.506762  0
O  O122  1  0.26408446  0.54871406  0.43471532  1  0  -0.816198  0  1.829701  0  0  -0.759392  0  2.015223  0  0  -0.780456  0  1.985678  0  0  -0.579301  -0.744494  0  2.035654  0
O  O123  1  0.73591633  0.45128492  0.56528360  1  0  -0.816182  0  1.829738  0  0  -0.759372  0  2.015266  0  0  -0.78043  0  1.985718  0  0  -0.579314  -0.744471  0  2.035702  0
O  O124  1  0.81729782  0.98049894  0.77904491  1  0  -0.292905  0  2.341623  0  0  -0.222995  0  2.565862  0  0  -0.241198  0  2.567298  0  0  -0.149459  -0.210087  0  2.56443  0
O  O125  1  0.18270038  0.01950446  0.22095805  1  0  -0.29297  0  2.341558  0  0  -0.222956  0  2.565762  0  0  -0.241231  0  2.567247  0  0  -0.149423  -0.210052  0  2.564328  0
O  O126  1  0.09367269  0.47495643  0.18703368  1  0  -0.670009  0  2.002607  0  0  -0.599156  0  2.253753  0  0  -0.630003  0  2.243952  0  0  -0.344097  -0.57728  0  2.259407  0
O  O127  1  0.90632249  0.52504960  0.81296831  1  0  -0.669992  0  2.002614  0  0  -0.599143  0  2.253743  0  0  -0.629999  0  2.243954  0  0  -0.344045  -0.577262  0  2.259393  0
O  O128  1  0.30526866  0.38683855  0.23461741  1  0  -0.612866  0  1.905815  0  0  -0.559794  0  2.125621  0  0  -0.585289  0  2.118702  0  0  -0.32707  -0.541734  0  2.129645  0
O  O129  1  0.69472269  0.61315862  0.76538007  1  0  -0.612824  0  1.905917  0  0  -0.559722  0  2.125677  0  0  -0.585215  0  2.118751  0  0  -0.327041  -0.541666  0  2.129707  0
O  O130  1  0.09438558  0.28919660  0.37482576  1  0  -0.628144  0  1.979551  0  0  -0.563974  0  2.219015  0  0  -0.592271  0  2.207832  0  0  -0.330601  -0.544293  0  2.225918  0
O  O131  1  0.90561368  0.71080149  0.62517213  1  0  -0.628186  0  1.979505  0  0  -0.564002  0  2.218987  0  0  -0.5923  0  2.207806  0  0  -0.330587  -0.544318  0  2.225894  0
O  O132  1  0.86354813  0.34586507  0.42408652  1  0  -0.666238  0  2.001144  0  0  -0.604072  0  2.236041  0  0  -0.631196  0  2.224369  0  0  -0.326692  -0.584944  0  2.243212  0
O  O133  1  0.13645471  0.65413215  0.57591153  1  0  -0.666312  0  2.001024  0  0  -0.604156  0  2.235953  0  0  -0.631275  0  2.224276  0  0  -0.326755  -0.585042  0  2.243172  0
