# generated using pymatgen
data_KCuPH14C8N2O7
_symmetry_space_group_name_H-M   'P 1'
_cell_length_a   7.97091721
_cell_length_b   8.42828528
_cell_length_c   11.08899716
_cell_angle_alpha   100.48627139
_cell_angle_beta   104.31316918
_cell_angle_gamma   110.12129569
_symmetry_Int_Tables_number   1
_chemical_formula_structural   KCuPH14C8N2O7
_chemical_formula_sum   'K2 Cu2 P2 H28 C16 N4 O14'
_cell_volume   647.93638634
_cell_formula_units_Z   2
loop_
 _symmetry_equiv_pos_site_id
 _symmetry_equiv_pos_as_xyz
  1  'x, y, z'
loop_
 _atom_site_type_symbol
 _atom_site_label
 _atom_site_symmetry_multiplicity
 _atom_site_fract_x
 _atom_site_fract_y
 _atom_site_fract_z
 _atom_site_occupancy
 _atom_site_hle17_ddec_charge
 _atom_site_hle17_ddec_spin_density
 _atom_site_hle17_ddec_sum_bond_order
 _atom_site_hle17_magmom
 _atom_site_hse06_10hf_ddec_charge
 _atom_site_hse06_10hf_ddec_spin_density
 _atom_site_hse06_10hf_ddec_sum_bond_order
 _atom_site_hse06_10hf_magmom
 _atom_site_hse06_ddec_charge
 _atom_site_hse06_ddec_spin_density
 _atom_site_hse06_ddec_sum_bond_order
 _atom_site_hse06_magmom
 _atom_site_pbe_cm5_charge
 _atom_site_pbe_ddec_charge
 _atom_site_pbe_ddec_spin_density
 _atom_site_pbe_ddec_sum_bond_order
 _atom_site_pbe_magmom
K  K0  1  0.51729594  0.77092865  0.94908537  1  0.912589  0.0  0.475021  0.0  0.867842  -5.5e-05  0.660254  0.0  0.883876  -1.7e-05  0.635543  0.0  0.76632  0.855954  -0.000104  0.677919  0.0
K  K1  1  0.48270295  0.22906959  0.05091502  1  0.912589  -1.7e-05  0.475021  0.0  0.867843  5.1e-05  0.660258  0.0  0.883875  1.9e-05  0.635546  0.0  0.766325  0.855955  0.000105  0.677923  0.0
Cu  Cu2  1  0.62228662  0.09881769  0.67291742  1  0.81322  -0.663755  1.777984  -0.462  0.802326  -0.771004  2.13898  -0.592  0.893871  -0.856042  2.079917  -0.687  0.730412  0.747177  -0.703855  2.180411  -0.528
Cu  Cu3  1  0.37771343  0.90118320  0.32708263  1  0.813197  0.663765  1.778019  0.462  0.802282  0.771003  2.139023  0.592  0.89383  0.85604  2.079972  0.687  0.730419  0.747151  0.703851  2.18046  0.529
P  P4  1  0.80290587  0.19494626  0.46849144  1  1.198548  -0.003622  4.704376  -0.006  1.072768  -0.002075  5.202094  -0.005  1.112576  -0.001018  5.177819  -0.003  0.269329  1.044636  -0.002746  5.218635  -0.005
P  P5  1  0.19709677  0.80505462  0.53150907  1  1.198584  0.003623  4.70436  0.006  1.072786  0.002074  5.202075  0.005  1.112592  0.001019  5.177794  0.003  0.26933  1.044652  0.002747  5.21862  0.005
H  H6  1  0.04850485  0.12967845  0.59075487  1  0.131242  -0.001151  0.926187  -0.002  0.146824  -0.000607  0.979534  -0.001  0.147935  -0.00043  0.979317  -0.001  0.123103  0.145693  -0.000698  0.980026  -0.001
H  H7  1  0.95149462  0.87032111  0.40924490  1  0.131235  0.001151  0.92619  0.002  0.146825  0.000607  0.979522  0.001  0.147932  0.00043  0.979314  0.001  0.123104  0.145695  0.000698  0.980013  0.001
H  H8  1  0.10447744  0.35717026  0.64907233  1  0.133778  -0.00339  0.932182  -0.005  0.145081  -0.001871  0.991243  -0.003  0.146753  -0.001248  0.990602  -0.002  0.121306  0.143764  -0.002209  0.991933  -0.003
H  H9  1  0.89552203  0.64282930  0.35092834  1  0.133785  0.003391  0.93215  0.005  0.145099  0.001871  0.991203  0.003  0.146771  0.001249  0.990556  0.002  0.121317  0.14378  0.002209  0.991898  0.003
H  H10  1  0.11180134  0.43482899  0.86811023  1  0.097732  -0.002504  0.926488  -0.003  0.113486  -0.001345  0.986846  -0.002  0.115039  -0.000697  0.985209  -0.001  0.118438  0.111948  -0.001762  0.988341  -0.002
H  H11  1  0.88819814  0.56517058  0.13188954  1  0.097707  0.002502  0.926498  0.003  0.113459  0.001346  0.986857  0.002  0.115013  0.000697  0.985221  0.001  0.118423  0.111922  0.001762  0.988353  0.002
H  H12  1  0.89563320  0.32278323  0.89691878  1  0.090325  -0.000651  0.92555  -0.001  0.104799  -0.000375  0.986389  -0.001  0.104844  -0.000194  0.986646  0.0  0.116857  0.104197  -0.000495  0.986846  -0.001
H  H13  1  0.10436815  0.67721766  0.10308059  1  0.090341  0.000654  0.925572  0.001  0.104806  0.000375  0.986409  0.001  0.104851  0.000194  0.986666  0.0  0.116866  0.104204  0.000495  0.986866  0.001
H  H14  1  0.84202991  0.55579719  0.82556898  1  0.101298  -0.000286  0.941787  -0.001  0.118828  -0.000105  0.995106  0.0  0.119832  -6.7e-05  0.994786  0.0  0.12019  0.117866  -0.000135  0.99554  0.0
H  H15  1  0.15796827  0.44420238  0.17443146  1  0.101328  0.000286  0.9418  0.001  0.11885  0.000105  0.995097  0.0  0.119854  6.7e-05  0.994777  0.0  0.120204  0.11789  0.000135  0.995531  0.0
H  H16  1  0.96056132  0.54790394  0.71197361  1  0.095516  -0.00194  0.961407  -0.003  0.108844  -0.001306  1.022631  -0.002  0.110061  -0.000902  1.021771  -0.001  0.111562  0.107699  -0.001533  1.023438  -0.002
H  H17  1  0.03944060  0.45209827  0.28802696  1  0.095528  0.001942  0.961445  0.003  0.108841  0.001306  1.022664  0.002  0.110059  0.000902  1.021805  0.001  0.111563  0.107697  0.001533  1.023473  0.002
H  H18  1  0.78549629  0.48294148  0.51816381  1  0.128239  -0.004915  0.933756  -0.006  0.138489  -0.002826  0.99525  -0.004  0.140756  -0.001844  0.993898  -0.002  0.112419  0.136704  -0.003418  0.996349  -0.004
H  H19  1  0.21450448  0.51705809  0.48183618  1  0.128237  0.004914  0.933793  0.006  0.138478  0.002826  0.995275  0.004  0.140742  0.001844  0.993923  0.002  0.112408  0.136694  0.003418  0.996376  0.004
H  H20  1  0.55756170  0.29938990  0.44478742  1  0.132419  -0.000102  0.961317  0.0  0.142072  -5.6e-05  1.02622  0.0  0.143722  -8.3e-05  1.025845  0.0  0.118816  0.140605  -3.7e-05  1.026882  0.0
H  H21  1  0.44243907  0.70060967  0.55521347  1  0.132445  0.000103  0.961272  0.0  0.142072  5.6e-05  1.026196  0.0  0.143721  8.3e-05  1.025818  0.0  0.118809  0.140604  3.7e-05  1.026857  0.0
H  H22  1  0.39805620  0.31905866  0.58264264  1  0.110862  -0.000338  0.916911  -0.001  0.127484  -0.00021  0.973541  -0.001  0.128705  -0.000118  0.973244  0.0  0.116037  0.126461  -0.000279  0.974019  -0.001
H  H23  1  0.60194515  0.68094222  0.41735494  1  0.110863  0.000339  0.916904  0.001  0.127489  0.00021  0.973536  0.001  0.12871  0.000118  0.973239  0.0  0.116031  0.126466  0.000279  0.974015  0.001
H  H24  1  0.56303135  0.53844861  0.67969954  1  0.1001  -0.004798  0.932448  -0.006  0.110969  -0.003022  0.998618  -0.004  0.113098  -0.002055  0.996523  -0.003  0.111107  0.109191  -0.003518  1.000343  -0.004
H  H25  1  0.43697129  0.46155227  0.32030097  1  0.100088  0.004797  0.932444  0.006  0.110961  0.003022  0.998618  0.004  0.11309  0.002055  0.996523  0.003  0.111108  0.109184  0.003518  1.000344  0.004
H  H26  1  0.08734310  0.14332057  0.88292606  1  0.114867  -0.00295  0.935466  -0.004  0.122912  -0.001947  1.004403  -0.002  0.125615  -0.001346  1.002201  -0.002  0.122817  0.120669  -0.002281  1.006318  -0.003
H  H27  1  0.91265695  0.85668032  0.11707489  1  0.114844  0.00295  0.935506  0.004  0.122888  0.001946  1.004451  0.002  0.12559  0.001346  1.00225  0.002  0.122807  0.120643  0.002281  1.006365  0.003
H  H28  1  0.03417617  0.00147602  0.72748632  1  0.124244  0.000117  0.936104  0.0  0.137171  0.000125  0.994247  0.0  0.139756  8.3e-05  0.992434  0.0  0.124979  0.135088  0.000149  0.995835  0.0
H  H29  1  0.96582331  0.99852355  0.27251525  1  0.124271  -0.000118  0.936082  0.0  0.137186  -0.000126  0.994239  0.0  0.139771  -8.3e-05  0.992426  0.0  0.12498  0.135101  -0.000148  0.995828  0.0
H  H30  1  0.90099136  0.14168423  0.09423438  1  0.410729  0.000277  0.893705  0.0  0.38585  0.000299  0.949714  0.0  0.395674  0.000173  0.935444  0.0  0.286587  0.378863  0.00042  0.959903  0.0
H  H31  1  0.09900869  0.85831666  0.90576657  1  0.410737  -0.000279  0.893694  0.0  0.385858  -0.000299  0.949704  0.0  0.395682  -0.000173  0.935433  0.0  0.286582  0.37887  -0.00042  0.959893  0.0
H  H32  1  0.80337672  0.15758484  0.19750177  1  0.420906  -5e-06  0.88467  0.0  0.393863  2e-06  0.94336  0.0  0.403442  1e-06  0.929361  0.0  0.285263  0.386952  5e-06  0.953441  0.0
H  H33  1  0.19662333  0.84241605  0.80249918  1  0.420905  4e-06  0.884682  0.0  0.393856  -2e-06  0.943382  0.0  0.403435  -1e-06  0.929383  0.0  0.285255  0.386943  -5e-06  0.953467  0.0
C  C34  1  0.98863312  0.22472366  0.61782408  1  -0.311531  0.000529  3.576874  0.004  -0.34434  -0.000503  3.824158  0.003  -0.347648  0.00071  3.836494  0.004  -0.073916  -0.341125  -0.001528  3.816308  0.002
C  C35  1  0.01136765  0.77527591  0.38217592  1  -0.311534  -0.000526  3.576878  -0.004  -0.344344  0.000503  3.824134  -0.003  -0.347651  -0.000711  3.836466  -0.004  -0.073937  -0.341128  0.001528  3.816291  -0.002
C  C36  1  0.95730193  0.35914378  0.82250785  1  -0.053537  0.001605  3.617201  0.003  -0.117915  -0.000595  3.889801  0.001  -0.114289  0.000332  3.901887  0.001  -0.072148  -0.119832  -0.00138  3.882271  0.0
C  C37  1  0.04269941  0.64085710  0.17749153  1  -0.053515  -0.001602  3.617272  -0.003  -0.117889  0.000596  3.889845  -0.001  -0.114265  -0.000332  3.901933  -0.001  -0.072145  -0.119806  0.00138  3.882321  0.0
C  C38  1  0.86653091  0.46544886  0.75458950  1  -0.062782  0.002318  3.57339  0.005  -0.112692  -0.000502  3.821079  0.002  -0.10958  0.000104  3.834035  0.002  -0.075399  -0.114243  -0.000974  3.81235  0.001
C  C39  1  0.13346856  0.53455070  0.24541027  1  -0.062837  -0.002322  3.573443  -0.005  -0.112718  0.000501  3.82111  -0.002  -0.109604  -0.000105  3.834066  -0.002  -0.075401  -0.114257  0.000974  3.812366  -0.001
C  C40  1  0.69876277  0.34915611  0.51828094  1  -0.328913  -0.002337  3.600019  0.001  -0.36713  -0.002335  3.857755  0.001  -0.370743  -0.000603  3.869448  0.002  -0.082164  -0.363978  -0.003722  3.850392  -0.001
C  C41  1  0.30123742  0.65084213  0.48171877  1  -0.328936  0.002341  3.600027  -0.001  -0.367074  0.002336  3.857673  -0.001  -0.37067  0.000603  3.869346  -0.002  -0.082132  -0.363922  0.003723  3.850314  0.001
C  C42  1  0.48295094  0.35123940  0.78813995  1  0.678569  -0.000501  3.925556  -0.001  0.638487  -0.000611  4.227593  -0.001  0.672242  -0.00045  4.21871  -0.001  0.183865  0.615667  -0.000697  4.232291  -0.001
C  C43  1  0.51704853  0.64876016  0.21185801  1  0.678376  0.000498  3.925857  0.001  0.63842  0.000612  4.22769  0.001  0.672175  0.000449  4.218807  0.001  0.183842  0.615603  0.000697  4.232389  0.001
C  C44  1  0.52640995  0.39676402  0.66810629  1  -0.17582  0.001731  3.615744  0.005  -0.234929  -0.000586  3.87794  0.002  -0.234944  0.000311  3.887318  0.003  -0.075021  -0.23468  -0.001243  3.872203  0.002
C  C45  1  0.47359082  0.60323554  0.33189280  1  -0.175782  -0.001731  3.615751  -0.005  -0.234951  0.000585  3.877954  -0.002  -0.234966  -0.000308  3.887333  -0.003  -0.075041  -0.234703  0.001244  3.872222  -0.002
C  C46  1  0.97540723  0.07023825  0.78808020  1  -0.190153  0.001583  3.617014  0.006  -0.242602  -0.000956  3.86633  0.002  -0.243939  -0.000145  3.875817  0.003  -0.067765  -0.24124  -0.001542  3.860735  0.002
C  C47  1  0.02459282  0.92976263  0.21191985  1  -0.190183  -0.001575  3.617045  -0.006  -0.242614  0.000957  3.866346  -0.002  -0.243953  0.000145  3.875835  -0.003  -0.067755  -0.241256  0.001543  3.860771  -0.002
C  C48  1  0.81199084  0.92771145  0.80626904  1  0.675269  -0.000269  3.853758  0.0  0.633164  -0.002108  4.154858  -0.002  0.668469  -0.001473  4.14688  -0.002  0.200604  0.609072  -0.002451  4.159504  -0.002
C  C49  1  0.18800863  0.07228812  0.19373073  1  0.675357  0.000267  3.853649  0.0  0.633223  0.002108  4.154796  0.002  0.668529  0.001473  4.146816  0.002  0.200644  0.609133  0.002451  4.159443  0.002
N  N50  1  0.91650122  0.19185330  0.72608318  1  -0.095702  -0.124269  3.293303  -0.152  -0.035577  -0.080272  3.559606  -0.105  -0.067049  -0.063901  3.592354  -0.089  -0.335979  -0.018568  -0.085756  3.54059  -0.108
N  N51  1  0.08349825  0.80814626  0.27391658  1  -0.095673  0.124263  3.293337  0.152  -0.035543  0.080275  3.559632  0.105  -0.067014  0.063902  3.592381  0.089  -0.335951  -0.018538  0.085756  3.540624  0.108
N  N52  1  0.68082940  0.34911510  0.64780941  1  -0.104547  -0.114504  3.274354  -0.14  -0.040423  -0.074373  3.534078  -0.098  -0.072482  -0.0593  3.568471  -0.083  -0.336872  -0.022042  -0.079743  3.513073  -0.101
N  N53  1  0.31917137  0.65088447  0.35219058  1  -0.104533  0.114509  3.274284  0.14  -0.040436  0.074375  3.534011  0.098  -0.072502  0.0593  3.568403  0.083  -0.336878  -0.022059  0.079743  3.513019  0.101
O  O54  1  0.89268908  0.24235941  0.36774971  1  -0.783991  -0.002269  1.905486  -0.003  -0.710957  -0.000761  2.139704  -0.001  -0.734342  -0.000359  2.123515  0.0  -0.365493  -0.693875  -0.001198  2.150304  -0.001
O  O55  1  0.10731356  0.75764148  0.63225080  1  -0.784035  0.002269  1.905512  0.003  -0.710998  0.000761  2.139733  0.001  -0.734384  0.000359  2.123543  0.0  -0.365505  -0.693914  0.001199  2.150329  0.001
O  O56  1  0.65389123  0.00667834  0.43811774  1  -0.79439  0.028167  2.073922  0.034  -0.747129  0.023553  2.386487  0.031  -0.780916  0.020873  2.366539  0.029  -0.385175  -0.723976  0.023954  2.400456  0.03
O  O57  1  0.34611083  0.99332122  0.56188068  1  -0.794382  -0.028172  2.073875  -0.034  -0.747132  -0.023553  2.386456  -0.031  -0.780917  -0.020873  2.366505  -0.029  -0.385164  -0.723978  -0.023955  2.400424  -0.03
O  O58  1  0.54628499  0.24508031  0.83048243  1  -0.688087  -0.00317  2.0062  -0.005  -0.644748  -0.002158  2.254062  -0.004  -0.674414  -0.00088  2.242597  -0.002  -0.41855  -0.624066  -0.003565  2.261525  -0.006
O  O59  1  0.45371060  0.75491926  0.16951665  1  -0.688058  0.00317  2.006321  0.005  -0.644737  0.002157  2.254077  0.004  -0.674404  0.00088  2.242612  0.002  -0.418535  -0.624058  0.003565  2.261543  0.006
O  O60  1  0.38657226  0.42065209  0.83455142  1  -0.703179  -0.002172  1.927579  -0.002  -0.662343  -0.001061  2.165902  -0.001  -0.684485  -0.000476  2.154084  0.0  -0.424654  -0.645892  -0.001853  2.172905  -0.002
O  O61  1  0.61341887  0.57934616  0.16544398  1  -0.703061  0.002173  1.927733  0.002  -0.66227  0.001062  2.165989  0.001  -0.684412  0.000472  2.15417  0.0  -0.424648  -0.645818  0.001853  2.172991  0.002
O  O62  1  0.84921533  0.83282185  0.87466044  1  -0.632  -0.011738  1.959742  -0.014  -0.584663  -0.006665  2.183654  -0.009  -0.61  -0.003621  2.175196  -0.005  -0.34735  -0.566321  -0.009522  2.188687  -0.012
O  O63  1  0.15078285  0.16717772  0.12533909  1  -0.63203  0.011737  1.959704  0.014  -0.584678  0.006665  2.183621  0.009  -0.610015  0.003622  2.175161  0.005  -0.347351  -0.566336  0.009521  2.188655  0.012
O  O64  1  0.64078319  0.90774647  0.74797619  1  -0.642608  -0.053854  2.058336  -0.07  -0.6025  -0.040556  2.331351  -0.057  -0.639122  -0.033797  2.317928  -0.05  -0.367595  -0.578624  -0.043455  2.341001  -0.059
O  O65  1  0.35921628  0.09225310  0.25202447  1  -0.642649  0.053855  2.058281  0.07  -0.602531  0.040555  2.331316  0.057  -0.639154  0.033797  2.317893  0.05  -0.367645  -0.57866  0.043453  2.340975  0.059
O  O66  1  0.77581325  0.12692034  0.10172815  1  -0.903209  0.001058  1.754812  0.001  -0.863307  0.000832  1.913528  0.001  -0.882312  0.000442  1.885278  0.001  -0.711939  -0.84975  0.001228  1.933719  0.002
O  O67  1  0.22418680  0.87308055  0.89827281  1  -0.903212  -0.001054  1.754809  -0.001  -0.863309  -0.000832  1.913524  -0.001  -0.882313  -0.000441  1.885273  -0.001  -0.711923  -0.849752  -0.001228  1.933717  -0.002
