# generated using pymatgen
data_Zn2H6C5N8O3
_symmetry_space_group_name_H-M   'P 1'
_cell_length_a   9.83473455
_cell_length_b   9.77243864
_cell_length_c   16.26810032
_cell_angle_alpha   89.99984842
_cell_angle_beta   90.00002882
_cell_angle_gamma   89.99959532
_symmetry_Int_Tables_number   1
_chemical_formula_structural   Zn2H6C5N8O3
_chemical_formula_sum   'Zn8 H24 C20 N32 O12'
_cell_volume   1563.51638299
_cell_formula_units_Z   4
loop_
 _symmetry_equiv_pos_site_id
 _symmetry_equiv_pos_as_xyz
  1  'x, y, z'
loop_
 _atom_site_type_symbol
 _atom_site_label
 _atom_site_symmetry_multiplicity
 _atom_site_fract_x
 _atom_site_fract_y
 _atom_site_fract_z
 _atom_site_occupancy
 _atom_site_hle17_bader_spin_density
 _atom_site_hle17_ddec_charge
 _atom_site_hle17_ddec_spin_density
 _atom_site_hle17_ddec_sum_bond_order
 _atom_site_hle17_magmom
 _atom_site_hse06_10hf_bader_spin_density
 _atom_site_hse06_10hf_ddec_charge
 _atom_site_hse06_10hf_ddec_spin_density
 _atom_site_hse06_10hf_ddec_sum_bond_order
 _atom_site_hse06_10hf_magmom
 _atom_site_hse06_bader_spin_density
 _atom_site_hse06_ddec_charge
 _atom_site_hse06_ddec_spin_density
 _atom_site_hse06_ddec_sum_bond_order
 _atom_site_hse06_magmom
 _atom_site_pbe_bader_spin_density
 _atom_site_pbe_cm5_charge
 _atom_site_pbe_ddec_charge
 _atom_site_pbe_ddec_spin_density
 _atom_site_pbe_ddec_sum_bond_order
 _atom_site_pbe_magmom
Zn  Zn0  1  0.07009962  0.87718212  0.42386933  1  0  0.949064  0  1.971668  0  0  0.749911  0  2.460193  0  0  0.790816  0  2.41123  0  0  0.723524  0.721589  0  2.49382  0
Zn  Zn1  1  0.57009778  0.62282077  0.57612896  1  0  0.9491  0  1.971586  0  0  0.749913  0  2.460081  0  0  0.790823  0  2.411116  0  0  0.723525  0.721592  0  2.493708  0
Zn  Zn2  1  0.92990193  0.12281763  0.92387193  1  0  0.949164  0  1.971598  0  0  0.749991  0  2.460097  0  0  0.790902  0  2.411134  0  0  0.723563  0.721685  0  2.493718  0
Zn  Zn3  1  0.42990151  0.37717949  0.07612791  1  0  0.949211  0  1.971591  0  0  0.750066  0  2.460102  0  0  0.79097  0  2.411133  0  0  0.723594  0.721755  0  2.493729  0
Zn  Zn4  1  0.92990284  0.12281942  0.57612942  1  0  0.94915  0  1.97157  0  0  0.749994  0  2.460084  0  0  0.790905  0  2.41112  0  0  0.723577  0.721704  0  2.493699  0
Zn  Zn5  1  0.42990366  0.37718077  0.42387042  1  0  0.949139  0  1.971543  0  0  0.74993  0  2.460063  0  0  0.790843  0  2.411097  0  0  0.723531  0.721623  0  2.493685  0
Zn  Zn6  1  0.07009951  0.87718084  0.07612683  1  0  0.949148  0  1.971633  0  0  0.749977  0  2.460124  0  0  0.790885  0  2.411158  0  0  0.723561  0.72168  0  2.49374  0
Zn  Zn7  1  0.57009789  0.62281898  0.92387208  1  0  0.949135  0  1.971646  0  0  0.749962  0  2.46015  0  0  0.790872  0  2.411186  0  0  0.723523  0.721636  0  2.493779  0
H  H8  1  0.29345447  0.99287734  0.32131951  1  0  0.345902  0  0.922663  0  0  0.328584  0  0.987315  0  0  0.33704  0  0.979483  0  0  0.292828  0.322607  0  0.992831  0
H  H9  1  0.79345249  0.50712191  0.67867887  1  0  0.345859  0  0.922766  0  0  0.328582  0  0.987351  0  0  0.337032  0  0.979526  0  0  0.292815  0.322608  0  0.99287  0
H  H10  1  0.70654701  0.00712389  0.82132098  1  0  0.345859  0  0.922733  0  0  0.328576  0  0.987334  0  0  0.337029  0  0.979506  0  0  0.292801  0.322592  0  0.992856  0
H  H11  1  0.20654483  0.49287687  0.17868001  1  0  0.345855  0  0.922812  0  0  0.328619  0  0.987334  0  0  0.337054  0  0.979532  0  0  0.292849  0.322636  0  0.992852  0
H  H12  1  0.70654798  0.00712420  0.67868048  1  0  0.345828  0  0.922775  0  0  0.328545  0  0.987371  0  0  0.336998  0  0.979543  0  0  0.29281  0.322565  0  0.992892  0
H  H13  1  0.20654894  0.49287758  0.32132112  1  0  0.345897  0  0.92272  0  0  0.328626  0  0.987289  0  0  0.337076  0  0.979465  0  0  0.292831  0.322643  0  0.992812  0
H  H14  1  0.29345239  0.99287765  0.17867839  1  0  0.345904  0  0.92274  0  0  0.328637  0  0.987297  0  0  0.337087  0  0.979475  0  0  0.292855  0.322662  0  0.992812  0
H  H15  1  0.79345152  0.50712160  0.82132183  1  0  0.345855  0  0.922791  0  0  0.328578  0  0.987372  0  0  0.33703  0  0.979546  0  0  0.29281  0.3226  0  0.992895  0
H  H16  1  0.41207078  0.12483357  0.33542329  1  0  0.331411  0  0.914667  0  0  0.317759  0  0.973239  0  0  0.324753  0  0.967723  0  0  0.297505  0.312793  0  0.977164  0
H  H17  1  0.91206418  0.37516879  0.66457347  1  0  0.331487  0  0.914839  0  0  0.317914  0  0.97328  0  0  0.324904  0  0.967764  0  0  0.297538  0.312959  0  0.977196  0
H  H18  1  0.58793579  0.87516759  0.83542701  1  0  0.331503  0  0.914794  0  0  0.317921  0  0.973245  0  0  0.324915  0  0.967727  0  0  0.297534  0.31296  0  0.977166  0
H  H19  1  0.08793618  0.62483006  0.16457374  1  0  0.331458  0  0.914841  0  0  0.317877  0  0.973296  0  0  0.324868  0  0.967782  0  0  0.297533  0.312917  0  0.977213  0
H  H20  1  0.58793371  0.87516796  0.66457486  1  0  0.331471  0  0.914756  0  0  0.31788  0  0.973227  0  0  0.324872  0  0.967712  0  0  0.297548  0.312921  0  0.977149  0
H  H21  1  0.08793624  0.62483071  0.33542528  1  0  0.331458  0  0.91487  0  0  0.317878  0  0.973315  0  0  0.324869  0  0.967801  0  0  0.297544  0.312918  0  0.977237  0
H  H22  1  0.41206158  0.12483088  0.16457236  1  0  0.331536  0  0.914904  0  0  0.318  0  0.973293  0  0  0.324992  0  0.967774  0  0  0.297574  0.313035  0  0.977221  0
H  H23  1  0.91206322  0.37516636  0.83542747  1  0  0.331533  0  0.914778  0  0  0.317935  0  0.973251  0  0  0.324927  0  0.967734  0  0  0.297549  0.312974  0  0.977173  0
H  H24  1  0.16400746  0.34470644  0.54678948  1  0  0.10036  0  0.903923  0  0  0.115561  0  0.955527  0  0  0.117721  0  0.952454  0  0  0.146057  0.1139  0  0.957815  0
H  H25  1  0.66400532  0.15528643  0.45320965  1  0  0.100351  0  0.90393  0  0  0.115556  0  0.955522  0  0  0.117715  0  0.952452  0  0  0.146064  0.113899  0  0.957808  0
H  H26  1  0.83599792  0.65528166  0.04679060  1  0  0.100299  0  0.903843  0  0  0.115544  0  0.955402  0  0  0.117703  0  0.952334  0  0  0.146048  0.113887  0  0.95769  0
H  H27  1  0.33598506  0.84470705  0.95320718  1  0  0.100287  0  0.903925  0  0  0.11549  0  0.955529  0  0  0.117649  0  0.95246  0  0  0.146041  0.113833  0  0.957818  0
H  H28  1  0.83599194  0.65529203  0.45320744  1  0  0.100352  0  0.903917  0  0  0.115554  0  0.955516  0  0  0.117714  0  0.952446  0  0  0.146056  0.113896  0  0.957805  0
H  H29  1  0.33599713  0.84471511  0.54678973  1  0  0.100361  0  0.903881  0  0  0.115567  0  0.955471  0  0  0.117726  0  0.952402  0  0  0.146039  0.113903  0  0.957759  0
H  H30  1  0.16399945  0.34471885  0.95321001  1  0  0.100313  0  0.903837  0  0  0.115537  0  0.955417  0  0  0.117696  0  0.952348  0  0  0.146057  0.113882  0  0.957703  0
H  H31  1  0.66400723  0.15528733  0.04679526  1  0  0.100287  0  0.903917  0  0  0.115507  0  0.955498  0  0  0.117666  0  0.952428  0  0  0.146025  0.11384  0  0.957786  0
C  C32  1  0.25929497  0.11905749  0.41639276  1  0  0.597712  0  3.838664  0  0  0.550744  0  4.112999  0  0  0.575202  0  4.123058  0  0  0.32734  0.534335  0  4.105763  0
C  C33  1  0.75928015  0.38093573  0.58359656  1  0  0.6044  0  3.8286  0  0  0.551032  0  4.112503  0  0  0.575864  0  4.121991  0  0  0.327516  0.534624  0  4.105272  0
C  C34  1  0.74071979  0.88093820  0.91640085  1  0  0.604258  0  3.828836  0  0  0.550846  0  4.112798  0  0  0.575291  0  4.122864  0  0  0.32741  0.534442  0  4.105564  0
C  C35  1  0.24071915  0.61906450  0.08359751  1  0  0.60429  0  3.828756  0  0  0.55089  0  4.112726  0  0  0.575755  0  4.122163  0  0  0.32747  0.534483  0  4.105497  0
C  C36  1  0.74071562  0.88093893  0.58360169  1  0  0.60421  0  3.828928  0  0  0.550784  0  4.112898  0  0  0.575646  0  4.122343  0  0  0.327395  0.53438  0  4.105664  0
C  C37  1  0.24072332  0.61906581  0.41640097  1  0  0.604298  0  3.828698  0  0  0.550876  0  4.112681  0  0  0.575762  0  4.122088  0  0  0.327511  0.534472  0  4.105448  0
C  C38  1  0.25926944  0.11906948  0.08359546  1  0  0.604232  0  3.828871  0  0  0.55083  0  4.112822  0  0  0.575255  0  4.1229  0  0  0.327404  0.534427  0  4.105586  0
C  C39  1  0.75927923  0.38093602  0.91640309  1  0  0.604413  0  3.82864  0  0  0.551012  0  4.112576  0  0  0.575875  0  4.122022  0  0  0.327495  0.534603  0  4.105345  0
C  C40  1  0.17789527  0.25730353  0.50650580  1  0  0.244682  0  3.734912  0  0  0.181732  0  4.008526  0  0  0.199074  0  4.018297  0  0  0.152306  0.170361  0  4.001668  0
C  C41  1  0.67788949  0.24269641  0.49349333  1  0  0.244561  0  3.735486  0  0  0.181776  0  4.008612  0  0  0.199109  0  4.01841  0  0  0.152403  0.170407  0  4.001753  0
C  C42  1  0.82211314  0.74269806  0.00650432  1  0  0.244671  0  3.735666  0  0  0.181834  0  4.008798  0  0  0.199175  0  4.01857  0  0  0.152438  0.170467  0  4.00194  0
C  C43  1  0.32210295  0.75730099  0.99349284  1  0  0.244654  0  3.735514  0  0  0.181872  0  4.008642  0  0  0.199201  0  4.018442  0  0  0.152387  0.170502  0  4.001784  0
C  C44  1  0.82210617  0.74270006  0.49349234  1  0  0.244533  0  3.735427  0  0  0.18173  0  4.008554  0  0  0.19906  0  4.018353  0  0  0.152352  0.17036  0  4.001694  0
C  C45  1  0.32211195  0.75730308  0.50650543  1  0  0.244409  0  3.73535  0  0  0.181638  0  4.00848  0  0  0.198964  0  4.018282  0  0  0.152367  0.170268  0  4.001619  0
C  C46  1  0.17788220  0.25729939  0.99349505  1  0  0.244652  0  3.735615  0  0  0.181846  0  4.008733  0  0  0.19918  0  4.018501  0  0  0.152462  0.170479  0  4.001877  0
C  C47  1  0.67788934  0.24269543  0.00650838  1  0  0.244708  0  3.735467  0  0  0.18192  0  4.008587  0  0  0.199253  0  4.018386  0  0  0.152436  0.170549  0  4.001733  0
C  C48  1  0.06274918  0.84877509  0.25000210  1  0  0.921807  0  3.978641  0  0  0.85097  0  4.285843  0  0  0.893414  0  4.267588  0  0  0.251893  0.82192  0  4.297361  0
C  C49  1  0.56274726  0.65122786  0.74999742  1  0  0.921886  0  3.978398  0  0  0.851061  0  4.285595  0  0  0.893503  0  4.267341  0  0  0.251944  0.822007  0  4.297104  0
C  C50  1  0.93725429  0.15122748  0.74999789  1  0  0.921774  0  3.978564  0  0  0.850921  0  4.285803  0  0  0.893364  0  4.267549  0  0  0.251901  0.821882  0  4.297325  0
C  C51  1  0.43725723  0.34877163  0.25000134  1  0  0.921827  0  3.978561  0  0  0.850992  0  4.285767  0  0  0.893433  0  4.267515  0  0  0.251957  0.821956  0  4.297301  0
N  N52  1  0.14436884  0.06209969  0.44583261  1  0  -0.412745  0  3.153036  0  0  -0.339853  0  3.454822  0  0  -0.360354  0  3.463375  0  0  -0.284846  -0.32616  0  3.449037  0
N  N53  1  0.64436886  0.43789537  0.55416712  1  0  -0.414781  0  3.151185  0  0  -0.339826  0  3.455008  0  0  -0.360444  0  3.463427  0  0  -0.284837  -0.326137  0  3.449225  0
N  N54  1  0.85563374  0.93789587  0.94583388  1  0  -0.414717  0  3.151241  0  0  -0.339783  0  3.455099  0  0  -0.360278  0  3.463652  0  0  -0.284794  -0.326096  0  3.449322  0
N  N55  1  0.35563043  0.56210089  0.05416759  1  0  -0.414737  0  3.151219  0  0  -0.339803  0  3.455092  0  0  -0.360431  0  3.463502  0  0  -0.28483  -0.326125  0  3.449323  0
N  N56  1  0.85563158  0.93789878  0.55416799  1  0  -0.414739  0  3.151161  0  0  -0.33981  0  3.455037  0  0  -0.360439  0  3.463451  0  0  -0.284833  -0.32613  0  3.449261  0
N  N57  1  0.35563258  0.56210617  0.44583164  1  0  -0.414751  0  3.15129  0  0  -0.33977  0  3.455122  0  0  -0.360406  0  3.463526  0  0  -0.28481  -0.326095  0  3.449352  0
N  N58  1  0.14436669  0.06210669  0.05416856  1  0  -0.41463  0  3.151299  0  0  -0.339695  0  3.455162  0  0  -0.360183  0  3.463715  0  0  -0.284772  -0.326014  0  3.449382  0
N  N59  1  0.64436593  0.43789553  0.94583547  1  0  -0.414724  0  3.151205  0  0  -0.339753  0  3.455057  0  0  -0.360381  0  3.463468  0  0  -0.28478  -0.326064  0  3.449278  0
N  N60  1  0.09318058  0.15233413  0.50396655  1  0  -0.282736  0  3.267147  0  0  -0.215521  0  3.576072  0  0  -0.231118  0  3.586993  0  0  -0.270672  -0.205163  0  3.568666  0
N  N61  1  0.59317814  0.34766129  0.49603071  1  0  -0.282765  0  3.267618  0  0  -0.21542  0  3.576024  0  0  -0.231024  0  3.586969  0  0  -0.270622  -0.205059  0  3.568615  0
N  N62  1  0.90682070  0.84765826  0.00396923  1  0  -0.282875  0  3.267882  0  0  -0.215501  0  3.576295  0  0  -0.231097  0  3.587213  0  0  -0.270684  -0.205145  0  3.568896  0
N  N63  1  0.40682243  0.65233404  0.99603104  1  0  -0.282894  0  3.267511  0  0  -0.215533  0  3.575923  0  0  -0.231139  0  3.586871  0  0  -0.270678  -0.205166  0  3.568517  0
N  N64  1  0.90682085  0.84766639  0.49603221  1  0  -0.28275  0  3.267582  0  0  -0.215382  0  3.575973  0  0  -0.230986  0  3.586923  0  0  -0.270619  -0.205021  0  3.568568  0
N  N65  1  0.40682228  0.65233922  0.50396805  1  0  -0.282714  0  3.267648  0  0  -0.215367  0  3.576039  0  0  -0.230972  0  3.586991  0  0  -0.270637  -0.205002  0  3.568632  0
N  N66  1  0.09317769  0.15234123  0.99603076  1  0  -0.282828  0  3.267778  0  0  -0.215474  0  3.576201  0  0  -0.231071  0  3.587117  0  0  -0.270646  -0.205112  0  3.568799  0
N  N67  1  0.59317697  0.34765828  0.00397080  1  0  -0.282921  0  3.26775  0  0  -0.215627  0  3.57624  0  0  -0.231231  0  3.587182  0  0  -0.270716  -0.205272  0  3.568843  0
N  N68  1  0.28281628  0.24229985  0.45339761  1  0  -0.528357  0  3.193928  0  0  -0.443998  0  3.492482  0  0  -0.468605  0  3.49724  0  0  -0.371329  -0.427442  0  3.488903  0
N  N69  1  0.78281348  0.25769729  0.54660218  1  0  -0.530392  0  3.192022  0  0  -0.44411  0  3.492619  0  0  -0.46883  0  3.497247  0  0  -0.371468  -0.427567  0  3.489058  0
N  N70  1  0.71718833  0.75769772  0.95339788  1  0  -0.530405  0  3.192051  0  0  -0.444095  0  3.492658  0  0  -0.468691  0  3.497409  0  0  -0.371454  -0.427543  0  3.489084  0
N  N71  1  0.21718681  0.74229798  0.04660231  1  0  -0.530284  0  3.192232  0  0  -0.443994  0  3.492832  0  0  -0.468716  0  3.497447  0  0  -0.371373  -0.427454  0  3.489264  0
N  N72  1  0.71718516  0.75770169  0.54660177  1  0  -0.530388  0  3.19203  0  0  -0.444037  0  3.492587  0  0  -0.468763  0  3.497207  0  0  -0.371389  -0.42749  0  3.489018  0
N  N73  1  0.21718795  0.74230425  0.45339535  1  0  -0.530247  0  3.191797  0  0  -0.44398  0  3.492423  0  0  -0.468704  0  3.497025  0  0  -0.371451  -0.427432  0  3.488853  0
N  N74  1  0.28280700  0.24230484  0.04660334  1  0  -0.530348  0  3.19216  0  0  -0.444036  0  3.492728  0  0  -0.468612  0  3.497468  0  0  -0.371447  -0.427488  0  3.489159  0
N  N75  1  0.78281260  0.25769844  0.95339829  1  0  -0.530441  0  3.192037  0  0  -0.444125  0  3.492618  0  0  -0.468857  0  3.497241  0  0  -0.371448  -0.427582  0  3.489054  0
N  N76  1  0.34244941  0.05938132  0.36082887  1  0  -0.712177  0  3.029532  0  0  -0.682044  0  3.252442  0  0  -0.702453  0  3.246979  0  0  -0.591997  -0.667731  0  3.255874  0
N  N77  1  0.84245251  0.44061949  0.63917647  1  0  -0.714696  0  3.02621  0  0  -0.682558  0  3.251635  0  0  -0.703088  0  3.246003  0  0  -0.592234  -0.668226  0  3.255065  0
N  N78  1  0.65754701  0.94061871  0.86082638  1  0  -0.714584  0  3.02638  0  0  -0.68242  0  3.251815  0  0  -0.702824  0  3.246345  0  0  -0.592161  -0.668104  0  3.255254  0
N  N79  1  0.15754886  0.55937435  0.13917871  1  0  -0.714634  0  3.026316  0  0  -0.682517  0  3.251719  0  0  -0.703045  0  3.246103  0  0  -0.5923  -0.668198  0  3.255153  0
N  N80  1  0.65754897  0.94062124  0.63917481  1  0  -0.714479  0  3.026521  0  0  -0.682301  0  3.251961  0  0  -0.702842  0  3.246325  0  0  -0.592145  -0.667978  0  3.255391  0
N  N81  1  0.15754791  0.55938205  0.36082291  1  0  -0.714673  0  3.026239  0  0  -0.682506  0  3.251679  0  0  -0.703055  0  3.246028  0  0  -0.592275  -0.668187  0  3.255117  0
N  N82  1  0.34245443  0.05938283  0.13917853  1  0  -0.714818  0  3.026098  0  0  -0.682714  0  3.251482  0  0  -0.703113  0  3.246015  0  0  -0.592367  -0.668394  0  3.25492  0
N  N83  1  0.84244953  0.44061695  0.86082558  1  0  -0.714709  0  3.026265  0  0  -0.682548  0  3.251729  0  0  -0.703088  0  3.246084  0  0  -0.592257  -0.668227  0  3.255168  0
O  O84  1  0.00272535  0.80987186  0.31821352  1  0  -0.723141  0  2.000827  0  0  -0.645529  0  2.266329  0  0  -0.673329  0  2.245663  0  0  -0.369614  -0.626059  0  2.279863  0
O  O85  1  0.50272311  0.69013049  0.68178597  1  0  -0.723164  0  2.000802  0  0  -0.645536  0  2.266289  0  0  -0.673336  0  2.245623  0  0  -0.369635  -0.626077  0  2.279826  0
O  O86  1  0.99727308  0.19013347  0.81821788  1  0  -0.723308  0  2.000659  0  0  -0.645651  0  2.266138  0  0  -0.673452  0  2.24547  0  0  -0.369726  -0.626185  0  2.279672  0
O  O87  1  0.49727320  0.30986726  0.18178321  1  0  -0.723243  0  2.000681  0  0  -0.645617  0  2.266172  0  0  -0.673418  0  2.245506  0  0  -0.369698  -0.62614  0  2.279709  0
O  O88  1  0.99727710  0.19013070  0.68178647  1  0  -0.723161  0  2.000803  0  0  -0.645544  0  2.266312  0  0  -0.673344  0  2.245646  0  0  -0.369648  -0.626085  0  2.279845  0
O  O89  1  0.49727527  0.30987105  0.31821340  1  0  -0.723156  0  2.0009  0  0  -0.645499  0  2.26636  0  0  -0.673299  0  2.245696  0  0  -0.369621  -0.626028  0  2.279899  0
O  O90  1  0.00272836  0.80986909  0.18178211  1  0  -0.72328  0  2.000653  0  0  -0.645617  0  2.26611  0  0  -0.673419  0  2.245443  0  0  -0.369698  -0.626159  0  2.279645  0
O  O91  1  0.50272824  0.69013530  0.81821739  1  0  -0.723311  0  2.000551  0  0  -0.64568  0  2.266037  0  0  -0.67348  0  2.245368  0  0  -0.369752  -0.626234  0  2.279581  0
O  O92  1  0.17316982  0.91681093  0.24999961  1  0  -0.741702  0  1.94044  0  0  -0.685626  0  2.159766  0  0  -0.710877  0  2.145179  0  0  -0.353988  -0.667995  0  2.169271  0
O  O93  1  0.67316939  0.58319020  0.74999996  1  0  -0.741704  0  1.940302  0  0  -0.685625  0  2.159631  0  0  -0.710877  0  2.145045  0  0  -0.353968  -0.667976  0  2.169127  0
O  O94  1  0.82683263  0.08319060  0.74999977  1  0  -0.741659  0  1.940358  0  0  -0.685567  0  2.159697  0  0  -0.710819  0  2.145112  0  0  -0.353914  -0.667882  0  2.169182  0
O  O95  1  0.32682798  0.41681236  0.24999942  1  0  -0.741746  0  1.940248  0  0  -0.685687  0  2.159586  0  0  -0.710934  0  2.144999  0  0  -0.353964  -0.667995  0  2.169073  0
