# generated using pymatgen
data_ZnH8C12(BrN2)2
_symmetry_space_group_name_H-M   'P 1'
_cell_length_a   14.56725965
_cell_length_b   19.14813629
_cell_length_c   30.36383355
_cell_angle_alpha   101.22093877
_cell_angle_beta   89.98283795
_cell_angle_gamma   112.35934236
_symmetry_Int_Tables_number   1
_chemical_formula_structural   ZnH8C12(BrN2)2
_chemical_formula_sum   'Zn12 H96 C144 Br24 N48'
_cell_volume   7657.64101159
_cell_formula_units_Z   12
loop_
 _symmetry_equiv_pos_site_id
 _symmetry_equiv_pos_as_xyz
  1  'x, y, z'
loop_
 _atom_site_type_symbol
 _atom_site_label
 _atom_site_symmetry_multiplicity
 _atom_site_fract_x
 _atom_site_fract_y
 _atom_site_fract_z
 _atom_site_occupancy
 _atom_site_pbe_bader_charge
 _atom_site_pbe_bader_spin_density
 _atom_site_pbe_cm5_charge
 _atom_site_pbe_ddec_charge
 _atom_site_pbe_ddec_spin_density
 _atom_site_pbe_ddec_sum_bond_order
 _atom_site_pbe_magmom
Zn  Zn0  1  0.52645031  0.34742675  0.26900862  1  1.025992  0  0.495523  0.533199  0  2.713124  0
Zn  Zn1  1  0.93891244  0.16301074  0.59542915  1  1.030107  0  0.49076  0.560361  0  2.700524  0
Zn  Zn2  1  0.27145739  0.76023358  0.94271943  1  1.030752  0  0.496331  0.555902  0  2.718895  0
Zn  Zn3  1  0.82110485  0.34746697  0.76909403  1  1.023066  0  0.495086  0.532658  0  2.713777  0
Zn  Zn4  1  0.22370146  0.16250866  0.09548942  1  1.029184  0  0.491417  0.560809  0  2.6989  0
Zn  Zn5  1  0.48864844  0.76001463  0.44279021  1  1.031078  0  0.495865  0.555686  0  2.716838  0
Zn  Zn6  1  0.17889005  0.65253084  0.23090650  1  1.022818  0  0.495105  0.532649  0  2.71383  0
Zn  Zn7  1  0.77630088  0.83749030  0.90451059  1  1.029299  0  0.491405  0.560826  0  2.698914  0
Zn  Zn8  1  0.51135007  0.23998491  0.55720955  1  1.03106  0  0.49588  0.555767  0  2.716747  0
Zn  Zn9  1  0.47354961  0.65257972  0.73099298  1  1.025895  0  0.495503  0.533142  0  2.713205  0
Zn  Zn10  1  0.06108730  0.83698302  0.40457220  1  1.030189  0  0.490802  0.560464  0  2.700344  0
Zn  Zn11  1  0.72854679  0.23976769  0.05728087  1  1.030795  0  0.496276  0.555816  0  2.719003  0
H  H12  1  0.42643591  0.69252545  0.93315193  1  0.139695  0  0.109479  0.09627  0  1.009586  0
H  H13  1  0.46097926  0.58924510  0.88066795  1  0.112602  0  0.113037  0.123296  0  0.999568  0
H  H14  1  0.18702235  0.53912983  0.80270631  1  0.134617  0  0.101292  0.115041  0  1.042525  0
H  H15  1  0.16648141  0.64859167  0.85712373  1  0.120567  0  0.10779  0.084694  0  1.019974  0
H  H16  1  0.61060431  0.50886395  0.83068168  1  0.126353  0  0.118046  0.129047  0  0.990073  0
H  H17  1  0.76505125  0.47868628  0.82392747  1  0.138356  0  0.117496  0.089928  0  0.992009  0
H  H18  1  0.61518243  0.27284680  0.73330573  1  0.126119  0  0.10548  0.08219  0  1.034175  0
H  H19  1  0.45486721  0.29424328  0.73635110  1  0.140901  0  0.117728  0.128198  0  0.997023  0
H  H20  1  0.15293744  0.19332004  0.62015252  1  0.118342  0  0.110755  0.086576  0  1.022285  0
H  H21  1  0.28808300  0.27832466  0.67892152  1  0.151316  0  0.105011  0.118638  0  1.031202  0
H  H22  1  0.09386839  0.39346179  0.73065534  1  0.133433  0  0.103034  0.111944  0  1.045746  0
H  H23  1  0.96604594  0.30449509  0.66822335  1  0.150239  0  0.102201  0.088162  0  1.043967  0
H  H24  1  0.02333919  0.03935577  0.57325068  1  0.145127  0  0.110776  0.088202  0  1.008509  0
H  H25  1  0.15729239  0.01712137  0.52600766  1  0.126802  0  0.117366  0.129786  0  0.98493  0
H  H26  1  0.17979477  0.21313325  0.47071026  1  0.111225  0  0.118148  0.128916  0  0.98616  0
H  H27  1  0.04539510  0.22773254  0.52017291  1  0.132585  0  0.110862  0.087011  0  1.010494  0
H  H28  1  0.43985799  0.10269038  0.33294930  1  0.103609  0  0.118336  0.128068  0  0.98634  0
H  H29  1  0.50300428  0.19037218  0.27786255  1  0.098083  0  0.113329  0.08319  0  1.00405  0
H  H30  1  0.43363354  0.36250856  0.35716904  1  0.104247  0  0.111025  0.086578  0  1.013243  0
H  H31  1  0.36176898  0.27956010  0.41413071  1  0.109362  0  0.117647  0.130439  0  0.98643  0
H  H32  1  0.33829330  0.95914626  0.50938239  1  0.117986  0  0.116684  0.128743  0  0.984091  0
H  H33  1  0.39694784  0.85018595  0.50828176  1  0.129725  0  0.109627  0.089099  0  1.005136  0
H  H34  1  0.48493525  0.85710504  0.37912379  1  0.121394  0  0.111907  0.083886  0  1.000839  0
H  H35  1  0.43046588  0.96613162  0.37501821  1  0.101485  0  0.116217  0.126613  0  0.991117  0
H  H36  1  0.26599393  0.69228333  0.43314125  1  0.126542  0  0.109402  0.096367  0  1.009412  0
H  H37  1  0.12819280  0.58903772  0.38060973  1  0.115893  0  0.113242  0.123638  0  0.999208  0
H  H38  1  0.35228107  0.53916454  0.30261886  1  0.139768  0  0.101236  0.114588  0  1.042686  0
H  H39  1  0.48222352  0.64860178  0.35707281  1  0.126817  0  0.107554  0.085029  0  1.02065  0
H  H40  1  0.89822847  0.50871733  0.33060550  1  0.126395  0  0.117921  0.128979  0  0.990371  0
H  H41  1  0.71362650  0.47858172  0.32381992  1  0.120323  0  0.117703  0.09024  0  0.991375  0
H  H42  1  0.65779128  0.27274797  0.23318884  1  0.137293  0  0.105716  0.082203  0  1.033845  0
H  H43  1  0.83950497  0.29417930  0.23623535  1  0.127964  0  0.117483  0.127727  0  0.998156  0
H  H44  1  0.04024640  0.19339366  0.12004506  1  0.12425  0  0.110518  0.086729  0  1.022474  0
H  H45  1  0.99034580  0.27852384  0.17888860  1  0.132894  0  0.105097  0.118785  0  1.03189  0
H  H46  1  0.29976331  0.39335065  0.23046789  1  0.142411  0  0.103043  0.11146  0  1.046024  0
H  H47  1  0.33834693  0.30420008  0.16802827  1  0.137038  0  0.102403  0.087931  0  1.044095  0
H  H48  1  0.01553097  0.03907197  0.07338032  1  0.116266  0  0.110381  0.0875  0  1.008793  0
H  H49  1  0.85955562  0.01696037  0.02603889  1  0.12715  0  0.117335  0.129987  0  0.984983  0
H  H50  1  0.03358943  0.21283843  0.97074409  1  0.111123  0  0.118027  0.128987  0  0.986374  0
H  H51  1  0.18243945  0.22733133  0.02028849  1  0.13811  0  0.110721  0.08721  0  1.011482  0
H  H52  1  0.66297585  0.10269724  0.83310291  1  0.121859  0  0.118225  0.127997  0  0.986449  0
H  H53  1  0.68739412  0.19031023  0.77800417  1  0.128596  0  0.113538  0.083184  0  1.003855  0
H  H54  1  0.92895192  0.36249552  0.85718964  1  0.1214  0  0.110939  0.086971  0  1.013412  0
H  H55  1  0.91806732  0.27961445  0.91415164  1  0.129999  0  0.117478  0.130236  0  0.986094  0
H  H56  1  0.62093127  0.95905387  0.00935839  1  0.143251  0  0.116835  0.128833  0  0.984084  0
H  H57  1  0.45322869  0.85012198  0.00823703  1  0.125838  0  0.110111  0.08953  0  1.004793  0
H  H58  1  0.37251401  0.85702454  0.87902756  1  0.101491  0  0.111827  0.084114  0  1.001413  0
H  H59  1  0.53614418  0.96603090  0.87493839  1  0.104488  0  0.11613  0.125992  0  0.991771  0
H  H60  1  0.73400372  0.30771448  0.56685862  1  0.12654  0  0.109388  0.09632  0  1.009398  0
H  H61  1  0.87180456  0.41095951  0.61939007  1  0.115918  0  0.113231  0.123641  0  0.99922  0
H  H62  1  0.64771676  0.46083500  0.69738123  1  0.139774  0  0.101247  0.11461  0  1.042599  0
H  H63  1  0.51777539  0.35139718  0.64292720  1  0.126787  0  0.107567  0.085089  0  1.020623  0
H  H64  1  0.10177279  0.49128222  0.66939261  1  0.126393  0  0.117898  0.12895  0  0.990395  0
H  H65  1  0.28637804  0.52142302  0.67618311  1  0.12043  0  0.117731  0.090273  0  0.991465  0
H  H66  1  0.34220210  0.72725504  0.76681168  1  0.137064  0  0.105692  0.082151  0  1.033875  0
H  H67  1  0.16048734  0.70582430  0.76376063  1  0.12804  0  0.117514  0.127774  0  0.998044  0
H  H68  1  0.95975888  0.80660704  0.87995451  1  0.124489  0  0.110558  0.086725  0  1.02245  0
H  H69  1  0.00965810  0.72147686  0.82111031  1  0.132827  0  0.105077  0.118744  0  1.031955  0
H  H70  1  0.70024098  0.60664946  0.76953293  1  0.142472  0  0.103017  0.111366  0  1.046126  0
H  H71  1  0.66165719  0.69579831  0.83197332  1  0.136947  0  0.102424  0.087987  0  1.044058  0
H  H72  1  0.98446931  0.96092700  0.92661937  1  0.116266  0  0.110392  0.087498  0  1.00875  0
H  H73  1  0.14044514  0.98304090  0.97396174  1  0.127126  0  0.117345  0.130005  0  0.985024  0
H  H74  1  0.96641133  0.78716284  0.02925588  1  0.111096  0  0.118018  0.128983  0  0.986412  0
H  H75  1  0.81756123  0.77266706  0.97971046  1  0.138115  0  0.110728  0.087235  0  1.011462  0
H  H76  1  0.33701837  0.89730057  0.16689729  1  0.121954  0  0.118164  0.127991  0  0.986491  0
H  H77  1  0.31260118  0.80968700  0.22199497  1  0.128741  0  0.113497  0.083128  0  1.003838  0
H  H78  1  0.07104454  0.63750403  0.14280880  1  0.121436  0  0.11093  0.086916  0  1.013493  0
H  H79  1  0.08193022  0.72038452  0.08584706  1  0.129971  0  0.117465  0.130197  0  0.986056  0
H  H80  1  0.37906833  0.04094510  0.99064228  1  0.143196  0  0.116851  0.128842  0  0.984064  0
H  H81  1  0.54677011  0.14987813  0.99176510  1  0.125878  0  0.110097  0.089519  0  1.004776  0
H  H82  1  0.62748421  0.14297441  0.12097542  1  0.100724  0  0.111805  0.084065  0  1.001441  0
H  H83  1  0.46385278  0.03396690  0.12506247  1  0.104366  0  0.116089  0.126008  0  0.99178  0
H  H84  1  0.57356426  0.30747467  0.06684856  1  0.139588  0  0.109466  0.09626  0  1.009636  0
H  H85  1  0.53902199  0.41075444  0.11933313  1  0.112628  0  0.113055  0.123332  0  0.999583  0
H  H86  1  0.81298065  0.46087318  0.19729421  1  0.134701  0  0.101272  0.114999  0  1.042491  0
H  H87  1  0.83352050  0.35141191  0.14287686  1  0.120582  0  0.107801  0.084704  0  1.020009  0
H  H88  1  0.38939341  0.49113675  0.16931756  1  0.126356  0  0.11804  0.128995  0  0.990116  0
H  H89  1  0.23494784  0.52131442  0.17607243  1  0.138353  0  0.117538  0.089939  0  0.991968  0
H  H90  1  0.38481746  0.72715275  0.26669436  1  0.126127  0  0.105484  0.082185  0  1.034147  0
H  H91  1  0.54513228  0.70575684  0.26364808  1  0.14092  0  0.117693  0.128128  0  0.997075  0
H  H92  1  0.84706086  0.80668182  0.37984653  1  0.11867  0  0.110747  0.086563  0  1.022271  0
H  H93  1  0.71191679  0.72167605  0.32107641  1  0.151433  0  0.10503  0.11867  0  1.031168  0
H  H94  1  0.90612984  0.60653717  0.26934501  1  0.133294  0  0.103029  0.111961  0  1.045782  0
H  H95  1  0.03395141  0.69550214  0.33177843  1  0.14979  0  0.102188  0.088148  0  1.044004  0
H  H96  1  0.97666286  0.96064261  0.42674959  1  0.145208  0  0.110789  0.088228  0  1.008509  0
H  H97  1  0.84271151  0.98287933  0.47399323  1  0.12667  0  0.117307  0.129688  0  0.985054  0
H  H98  1  0.82020415  0.78686571  0.52928976  1  0.111305  0  0.118143  0.128867  0  0.986154  0
H  H99  1  0.95460225  0.77226469  0.47982755  1  0.132524  0  0.11088  0.087017  0  1.010454  0
H  H100  1  0.56014237  0.89731147  0.66705074  1  0.103686  0  0.118301  0.128028  0  0.986379  0
H  H101  1  0.49699706  0.80963025  0.72213757  1  0.098057  0  0.113344  0.08322  0  1.004086  0
H  H102  1  0.56636556  0.63749214  0.64283053  1  0.104287  0  0.111056  0.086644  0  1.013211  0
H  H103  1  0.63823040  0.72044117  0.58586861  1  0.109374  0  0.117613  0.130349  0  0.986473  0
H  H104  1  0.66170774  0.04085559  0.49061667  1  0.11801  0  0.116644  0.128635  0  0.984066  0
H  H105  1  0.60305280  0.14981648  0.49171836  1  0.129549  0  0.109605  0.089036  0  1.005191  0
H  H106  1  0.51506424  0.14289508  0.62087604  1  0.12139  0  0.11191  0.083897  0  1.000825  0
H  H107  1  0.56953138  0.03386677  0.62498075  1  0.101462  0  0.116227  0.126676  0  0.991064  0
C  C108  1  0.37525115  0.65744067  0.90382332  1  0.458274  0  0.052779  0.103953  0  3.898826  0
C  C109  1  0.39410207  0.59967155  0.87471777  1  0.047299  0  -0.06615  -0.122317  0  3.907583  0
C  C110  1  0.32586941  0.55579394  0.83767492  1  -0.029788  0  0.013138  0.044816  0  3.946251  0
C  C111  1  0.24204649  0.57270914  0.83092602  1  0.020543  0  -0.075675  -0.138595  0  3.92661  0
C  C112  1  0.22971402  0.63236468  0.86104323  1  0.422086  0  0.047082  0.094299  0  3.921838  0
C  C113  1  0.34029229  0.49236355  0.80594900  1  1.11793  0  0.266634  0.385304  0  3.985839  0
C  C114  1  0.42906251  0.41944719  0.78255387  1  1.11294  0  0.262597  0.37777  0  4.021984  0
C  C115  1  0.27952910  0.39149146  0.74615234  1  1.140061  0  0.265525  0.383353  0  4.013784  0
C  C116  1  0.52088234  0.40348037  0.78377095  1  -0.02333  0  0.021232  0.061121  0  3.930259  0
C  C117  1  0.60876034  0.45562219  0.80923105  1  0.006339  0  -0.065592  -0.134996  0  3.898819  0
C  C118  1  0.69406800  0.43914793  0.80565094  1  0.467127  0  0.056383  0.100918  0  3.915618  0
C  C119  1  0.60963438  0.32338674  0.75513420  1  0.414664  0  0.045507  0.089445  0  3.940438  0
C  C120  1  0.52183598  0.33566103  0.75668812  1  0.009913  0  -0.069786  -0.136852  0  3.918103  0
C  C121  1  0.14222336  0.23830789  0.64501806  1  0.484182  0  0.04852  0.099355  0  3.916732  0
C  C122  1  0.21758580  0.28553026  0.67804731  1  -0.022341  0  -0.071421  -0.132211  0  3.912329  0
C  C123  1  0.20122961  0.34237452  0.70978337  1  -0.038937  0  0.015048  0.048671  0  3.942957  0
C  C124  1  0.10999076  0.35046690  0.70634212  1  0.015376  0  -0.072105  -0.139631  0  3.905559  0
C  C125  1  0.03873671  0.30114965  0.67181984  1  0.41031  0  0.050979  0.100067  0  3.896767  0
C  C126  1  0.06076486  0.07618256  0.54999593  1  0.397427  0  0.047018  0.082807  0  3.934964  0
C  C127  1  0.13405843  0.06420116  0.52402711  1  0.024701  0  -0.068013  -0.129022  0  3.918913  0
C  C128  1  0.17852775  0.11415153  0.49514476  1  0.007422  0  0.021078  0.060056  0  3.938491  0
C  C129  1  0.14658219  0.17386126  0.49310974  1  -0.025689  0  -0.066736  -0.129405  0  3.901978  0
C  C130  1  0.07312408  0.18216309  0.52022288  1  0.485967  0  0.049031  0.092596  0  3.919883  0
C  C131  1  0.25645978  0.10359762  0.46654811  1  1.111655  0  0.265344  0.379067  0  4.011273  0
C  C132  1  0.35058905  0.03595291  0.44134721  1  1.092176  0  0.264597  0.383244  0  4.010881  0
C  C133  1  0.35449138  0.13450041  0.40979943  1  1.109482  0  0.264252  0.386186  0  4.017871  0
C  C134  1  0.39518255  0.18482504  0.37729445  1  0.0401  0  0.024271  0.069996  0  3.922628  0
C  C135  1  0.43699829  0.15971589  0.33902325  1  0.039857  0  -0.066821  -0.132661  0  3.905256  0
C  C136  1  0.47296901  0.20819911  0.30901852  1  0.449797  0  0.04955  0.093512  0  3.933321  0
C  C137  1  0.43234874  0.30424138  0.35322616  1  0.461528  0  0.052545  0.098003  0  3.914199  0
C  C138  1  0.39275626  0.25848412  0.38429835  1  -1.3e-05  0  -0.064833  -0.123587  0  3.903161  0
C  C139  1  0.38215810  0.97147554  0.44246197  1  -0.041597  0  0.020291  0.054561  0  3.946042  0
C  C140  1  0.37121460  0.93817000  0.48020608  1  0.047797  0  -0.068693  -0.132622  0  3.925377  0
C  C141  1  0.40303161  0.87822907  0.47973656  1  0.480454  0  0.050067  0.09952  0  3.917581  0
C  C142  1  0.45214441  0.88181760  0.40711964  1  0.468328  0  0.050379  0.098357  0  3.929926  0
C  C143  1  0.42287796  0.94209124  0.40509124  1  0.013743  0  -0.067877  -0.131798  0  3.914223  0
C  C144  1  0.28209715  0.65723993  0.40378888  1  0.448473  0  0.052892  0.104891  0  3.898418  0
C  C145  1  0.20552612  0.59949464  0.37466383  1  0.054453  0  -0.066488  -0.123209  0  3.907183  0
C  C146  1  0.23002643  0.55575229  0.33759151  1  -0.077951  0  0.013359  0.044354  0  3.946451  0
C  C147  1  0.33079570  0.57271997  0.33084770  1  -0.023046  0  -0.074848  -0.136691  0  3.925381  0
C  C148  1  0.40273749  0.63235700  0.36099114  1  0.510329  0  0.046482  0.092768  0  3.922719  0
C  C149  1  0.15219262  0.49232366  0.30587343  1  1.111562  0  0.265726  0.384503  0  3.985343  0
C  C150  1  0.99047217  0.41936981  0.28248173  1  1.101269  0  0.263092  0.379238  0  4.019968  0
C  C151  1  0.11210880  0.39147789  0.24607063  1  1.123715  0  0.265933  0.382822  0  4.014738  0
C  C152  1  0.88263486  0.40337039  0.28368047  1  -0.015888  0  0.021633  0.060006  0  3.931812  0
C  C153  1  0.84686176  0.45549881  0.30913463  1  -0.06074  0  -0.065782  -0.13446  0  3.900378  0
C  C154  1  0.74510286  0.43905650  0.30553700  1  0.543378  0  0.055816  0.099973  0  3.91543  0
C  C155  1  0.71382324  0.32330330  0.25501775  1  0.430341  0  0.044585  0.08871  0  3.93952  0
C  C156  1  0.81388562  0.33556065  0.25658639  1  -0.016973  0  -0.068888  -0.135006  0  3.918544  0
C  C157  1  0.09598053  0.23832637  0.14490000  1  0.469212  0  0.04891  0.098468  0  3.917983  0
C  C158  1  0.06800155  0.28562684  0.17796016  1  -0.012102  0  -0.071154  -0.13151  0  3.913484  0
C  C159  1  0.14125925  0.34235148  0.20969673  1  -0.033985  0  0.014742  0.048503  0  3.943245  0
C  C160  1  0.24056213  0.35037394  0.20620218  1  -0.043677  0  -0.072587  -0.13945  0  3.905117  0
C  C161  1  0.26235406  0.30097637  0.17166098  1  0.498055  0  0.050397  0.099458  0  3.896585  0
C  C162  1  0.01515324  0.07584627  0.05006120  1  0.459741  0  0.046989  0.084076  0  3.935373  0
C  C163  1  0.92996999  0.06398109  0.02408383  1  0.017237  0  -0.068111  -0.129806  0  3.919841  0
C  C164  1  0.93573023  0.11393167  0.99517104  1  -0.006423  0  0.021116  0.060031  0  3.939089  0
C  C165  1  0.02747150  0.17353552  0.99312726  1  -0.021143  0  -0.066565  -0.1297  0  3.90227  0
C  C166  1  0.10909524  0.18179627  0.02029070  1  0.461542  0  0.04998  0.094004  0  3.918863  0
C  C167  1  0.84734253  0.10344466  0.96656464  1  1.131493  0  0.265778  0.380642  0  4.009713  0
C  C168  1  0.68562763  0.03577682  0.94132195  1  1.104286  0  0.265201  0.383275  0  4.010462  0
C  C169  1  0.78029236  0.13442175  0.90984260  1  1.123569  0  0.26421  0.386007  0  4.017879  0
C  C170  1  0.78989245  0.18480792  0.87737547  1  0.007276  0  0.02437  0.06988  0  3.922381  0
C  C171  1  0.72286038  0.15971331  0.83915735  1  0.005555  0  -0.06698  -0.132984  0  3.905695  0
C  C172  1  0.73527686  0.20817723  0.80914205  1  0.411089  0  0.049348  0.09338  0  3.934375  0
C  C173  1  0.87198315  0.30421973  0.85327441  1  0.453258  0  0.052394  0.096646  0  3.914968  0
C  C174  1  0.86594757  0.25848746  0.88434694  1  0.037584  0  -0.064706  -0.122546  0  3.902623  0
C  C175  1  0.58957806  0.97129893  0.94239510  1  -0.061306  0  0.019728  0.053431  0  3.946471  0
C  C176  1  0.56711799  0.93804490  0.98016024  1  0.030657  0  -0.069066  -0.13255  0  3.926123  0
C  C177  1  0.47529942  0.87816278  0.97968975  1  0.478715  0  0.050424  0.099379  0  3.918172  0
C  C178  1  0.42998767  0.88166660  0.90701908  1  0.492749  0  0.049534  0.096413  0  3.930358  0
C  C179  1  0.51954439  0.94195368  0.90500587  1  0.00539  0  -0.067494  -0.130105  0  3.914805  0
C  C180  1  0.71790392  0.34275787  0.59621264  1  0.455028  0  0.052909  0.104992  0  3.898371  0
C  C181  1  0.79447308  0.40050490  0.62533659  1  0.047457  0  -0.066545  -0.123323  0  3.907358  0
C  C182  1  0.76997190  0.44424552  0.66240803  1  -0.078139  0  0.01341  0.044429  0  3.946356  0
C  C183  1  0.66920127  0.42727784  0.66915218  1  -0.022715  0  -0.07481  -0.136625  0  3.92516  0
C  C184  1  0.59726016  0.36764081  0.63900807  1  0.510321  0  0.046469  0.092675  0  3.922778  0
C  C185  1  0.84780630  0.50767531  0.69412626  1  1.111005  0  0.265686  0.384535  0  3.985216  0
C  C186  1  0.00952996  0.58063147  0.71751528  1  1.101334  0  0.263072  0.379172  0  4.01983  0
C  C187  1  0.88789344  0.60852224  0.75392689  1  1.123462  0  0.265866  0.382739  0  4.014823  0
C  C188  1  0.11736738  0.59662974  0.71631738  1  -0.01596  0  0.02165  0.060073  0  3.931972  0
C  C189  1  0.15313871  0.54450189  0.69086429  1  -0.060689  0  -0.065728  -0.134414  0  3.900266  0
C  C190  1  0.25490190  0.56094593  0.69446476  1  0.543365  0  0.055687  0.099884  0  3.91522  0
C  C191  1  0.28617707  0.67670260  0.74498312  1  0.430373  0  0.044592  0.08876  0  3.939464  0
C  C192  1  0.18611023  0.66444178  0.74341241  1  -0.017043  0  -0.068955  -0.13518  0  3.918368  0
C  C193  1  0.90402543  0.76167433  0.85509991  1  0.469396  0  0.048879  0.098517  0  3.917996  0
C  C194  1  0.93200275  0.71437328  0.82203769  1  -0.012104  0  -0.071141  -0.13145  0  3.91345  0
C  C195  1  0.85874339  0.65764807  0.79030204  1  -0.034089  0  0.014698  0.048376  0  3.943211  0
C  C196  1  0.75944101  0.64962387  0.79379868  1  -0.043663  0  -0.072459  -0.139125  0  3.90506  0
C  C197  1  0.73765178  0.69902548  0.82834038  1  0.498293  0  0.050325  0.099309  0  3.896484  0
C  C198  1  0.98484734  0.92415327  0.94993856  1  0.45969  0  0.046999  0.084122  0  3.935465  0
C  C199  1  0.07003076  0.93602018  0.97591647  1  0.017289  0  -0.068155  -0.129907  0  3.919901  0
C  C200  1  0.06426955  0.88606903  0.00482952  1  -0.006453  0  0.021141  0.060105  0  3.939102  0
C  C201  1  0.97252896  0.82646518  0.00687264  1  -0.021105  0  -0.0665  -0.129627  0  3.902372  0
C  C202  1  0.89090522  0.81820443  0.97970953  1  0.461562  0  0.049929  0.093928  0  3.918858  0
C  C203  1  0.15265587  0.89655603  0.03343592  1  1.131546  0  0.265778  0.38067  0  4.009747  0
C  C204  1  0.31437157  0.96422272  0.05867880  1  1.104508  0  0.265269  0.383458  0  4.010307  0
C  C205  1  0.21970449  0.86557721  0.09015807  1  1.123489  0  0.264269  0.386098  0  4.017843  0
C  C206  1  0.21010430  0.81519219  0.12262535  1  0.0072  0  0.024383  0.069837  0  3.922442  0
C  C207  1  0.27713590  0.84028450  0.16084220  1  0.006097  0  -0.06691  -0.132896  0  3.905669  0
C  C208  1  0.26471569  0.79182000  0.19085775  1  0.410436  0  0.04934  0.093316  0  3.934265  0
C  C209  1  0.12801432  0.69577635  0.14672361  1  0.453013  0  0.052299  0.096588  0  3.914976  0
C  C210  1  0.13404791  0.74151150  0.11565341  1  0.037667  0  -0.064673  -0.122452  0  3.902474  0
C  C211  1  0.41042125  0.02869946  0.05760485  1  -0.061948  0  0.019697  0.053387  0  3.946514  0
C  C212  1  0.43288179  0.06195579  0.01984098  1  0.031324  0  -0.06908  -0.132558  0  3.926065  0
C  C213  1  0.52470310  0.12183791  0.02031213  1  0.477932  0  0.050452  0.099403  0  3.918175  0
C  C214  1  0.57000986  0.11833236  0.09298324  1  0.493794  0  0.04959  0.096444  0  3.930305  0
C  C215  1  0.48045268  0.05804297  0.09499485  1  0.005408  0  -0.06745  -0.130101  0  3.914729  0
C  C216  1  0.62475119  0.34255829  0.09617703  1  0.458907  0  0.052873  0.104017  0  3.898788  0
C  C217  1  0.60589908  0.40032915  0.12528312  1  0.046884  0  -0.066189  -0.122404  0  3.907614  0
C  C218  1  0.67413088  0.44420503  0.16232543  1  -0.029869  0  0.013151  0.044898  0  3.946211  0
C  C219  1  0.75795553  0.42729329  0.16907443  1  0.020381  0  -0.075709  -0.138636  0  3.926515  0
C  C220  1  0.77028850  0.36763602  0.13895733  1  0.421978  0  0.047054  0.094269  0  3.921814  0
C  C221  1  0.65970759  0.50763599  0.19405142  1  1.118161  0  0.266623  0.385266  0  3.985772  0
C  C222  1  0.57093716  0.58055466  0.21744519  1  1.113367  0  0.262621  0.377752  0  4.022142  0
C  C223  1  0.72047155  0.60851097  0.25384712  1  1.139963  0  0.2655  0.383339  0  4.013601  0
C  C224  1  0.47911578  0.59651975  0.21622822  1  -0.023346  0  0.02126  0.061079  0  3.930292  0
C  C225  1  0.39123865  0.54437966  0.19076833  1  0.006387  0  -0.065631  -0.134906  0  3.898812  0
C  C226  1  0.30593167  0.56085393  0.19434877  1  0.46711  0  0.056391  0.100921  0  3.915585  0
C  C227  1  0.39036511  0.67661338  0.24486596  1  0.414719  0  0.045511  0.089431  0  3.94039  0
C  C228  1  0.47816340  0.66434025  0.24331086  1  0.00983  0  -0.069752  -0.13672  0  3.918085  0
C  C229  1  0.85777475  0.76169223  0.35498177  1  0.483877  0  0.04851  0.099392  0  3.916594  0
C  C230  1  0.78241427  0.71447102  0.32195068  1  -0.022478  0  -0.071449  -0.132332  0  3.912322  0
C  C231  1  0.79877017  0.65762618  0.29021587  1  -0.038873  0  0.015026  0.048696  0  3.942988  0
C  C232  1  0.89000804  0.64953322  0.29365870  1  0.01562  0  -0.072114  -0.139686  0  3.905404  0
C  C233  1  0.96126347  0.69885047  0.32818197  1  0.410491  0  0.05104  0.100177  0  3.896674  0
C  C234  1  0.93923760  0.92381525  0.45000427  1  0.39621  0  0.046952  0.082662  0  3.935033  0
C  C235  1  0.86594587  0.93579895  0.47597371  1  0.025529  0  -0.067947  -0.128894  0  3.918897  0
C  C236  1  0.82147282  0.88584801  0.50485566  1  0.007228  0  0.021025  0.059999  0  3.938572  0
C  C237  1  0.85341672  0.82613770  0.50689028  1  -0.025608  0  -0.066656  -0.129217  0  3.902009  0
C  C238  1  0.92687649  0.81783644  0.47977852  1  0.485905  0  0.048946  0.092497  0  3.920006  0
C  C239  1  0.74354039  0.89640250  0.53345172  1  1.11175  0  0.265315  0.379015  0  4.011334  0
C  C240  1  0.64941171  0.96404837  0.55865211  1  1.092495  0  0.264579  0.383072  0  4.010767  0
C  C241  1  0.64550800  0.86550087  0.59020055  1  1.109497  0  0.264248  0.386112  0  4.017807  0
C  C242  1  0.60481752  0.81517623  0.62270585  1  0.040233  0  0.024293  0.070033  0  3.922645  0
C  C243  1  0.56300069  0.84028597  0.66097647  1  0.039748  0  -0.066813  -0.132691  0  3.90523  0
C  C244  1  0.52703135  0.79180274  0.69098185  1  0.449763  0  0.049504  0.093426  0  3.933285  0
C  C245  1  0.56764996  0.69575990  0.64677381  1  0.46146  0  0.052519  0.097878  0  3.91422  0
C  C246  1  0.60724449  0.74151716  0.61570196  1  -0.000194  0  -0.064744  -0.123377  0  3.90306  0
C  C247  1  0.61784002  0.02852458  0.55753720  1  -0.041571  0  0.020261  0.054617  0  3.946056  0
C  C248  1  0.62878644  0.06183185  0.51979363  1  0.047762  0  -0.068606  -0.132409  0  3.925257  0
C  C249  1  0.59696914  0.12177221  0.52026309  1  0.480563  0  0.050069  0.099528  0  3.917642  0
C  C250  1  0.54785538  0.11818310  0.59287993  1  0.467802  0  0.05042  0.098403  0  3.929864  0
C  C251  1  0.57711958  0.05790773  0.59490779  1  0.013805  0  -0.067903  -0.131936  0  3.914285  0
Br  Br252  1  0.49678187  0.46146734  0.29351739  1  -0.607075  0  -0.296379  -0.457361  0  1.228151  0
Br  Br253  1  0.48032596  0.26153504  0.19783556  1  -0.591754  0  -0.288638  -0.460343  0  1.25591  0
Br  Br254  1  0.86536904  0.23072470  0.56009529  1  -0.610118  0  -0.324548  -0.487173  0  1.183088  0
Br  Br255  1  0.86673647  0.05742526  0.63038448  1  -0.605494  0  -0.344953  -0.477956  0  1.143155  0
Br  Br256  1  0.15486925  0.79191515  0.90445632  1  -0.622956  0  -0.32623  -0.501152  0  1.178794  0
Br  Br257  1  0.26255465  0.72673614  0.01365950  1  -0.605272  0  -0.338672  -0.488269  0  1.157506  0
Br  Br258  1  0.96488803  0.46153296  0.79362938  1  -0.606279  0  -0.296452  -0.457528  0  1.227179  0
Br  Br259  1  0.78141542  0.26186480  0.69787595  1  -0.590979  0  -0.288217  -0.459976  0  1.258759  0
Br  Br260  1  0.36505966  0.23010410  0.06001711  1  -0.611361  0  -0.324597  -0.487509  0  1.181124  0
Br  Br261  1  0.18942060  0.05702866  0.13056474  1  -0.604647  0  -0.344623  -0.477707  0  1.143387  0
Br  Br262  1  0.63706266  0.79088464  0.40463035  1  -0.623675  0  -0.325815  -0.500834  0  1.180644  0
Br  Br263  1  0.46279733  0.72654819  0.51374456  1  -0.605964  0  -0.33869  -0.488119  0  1.154908  0
Br  Br264  1  0.03510984  0.53846254  0.20636922  1  -0.606126  0  -0.296446  -0.457529  0  1.22724  0
Br  Br265  1  0.21856904  0.73812723  0.30212486  1  -0.590932  0  -0.288214  -0.459935  0  1.258813  0
Br  Br266  1  0.63494200  0.76989487  0.93998192  1  -0.611441  0  -0.324591  -0.487502  0  1.181134  0
Br  Br267  1  0.81058193  0.94297204  0.86943582  1  -0.604651  0  -0.344631  -0.477718  0  1.143372  0
Br  Br268  1  0.36293727  0.20911086  0.59536891  1  -0.623672  0  -0.325808  -0.500829  0  1.180627  0
Br  Br269  1  0.53720216  0.27345193  0.48625495  1  -0.605979  0  -0.338705  -0.488142  0  1.15488  0
Br  Br270  1  0.50321719  0.53853740  0.70648301  1  -0.607014  0  -0.296382  -0.457385  0  1.228153  0
Br  Br271  1  0.51969000  0.73847606  0.80216464  1  -0.591718  0  -0.288637  -0.460314  0  1.255846  0
Br  Br272  1  0.13462268  0.76926674  0.43990742  1  -0.610201  0  -0.324596  -0.487236  0  1.18303  0
Br  Br273  1  0.13327545  0.94256677  0.36961600  1  -0.605522  0  -0.344946  -0.477974  0  1.143093  0
Br  Br274  1  0.84513270  0.20808439  0.09554508  1  -0.62299  0  -0.326246  -0.501165  0  1.178811  0
Br  Br275  1  0.73746876  0.27326513  0.98634015  1  -0.605265  0  -0.338638  -0.488222  0  1.157558  0
N  N276  1  0.29489418  0.67370362  0.89701855  1  -1.248467  0  -0.323618  -0.193369  0  3.563855  0
N  N277  1  0.69471879  0.37442028  0.77885951  1  -1.261008  0  -0.323981  -0.196422  0  3.559892  0
N  N278  1  0.05416827  0.24545849  0.64192318  1  -1.244344  0  -0.320083  -0.194878  0  3.548881  0
N  N279  1  0.42317892  0.47909047  0.81229794  1  -1.19239  0  -0.296551  -0.390772  0  3.185749  0
N  N280  1  0.35790219  0.37213239  0.75027597  1  -1.174847  0  -0.298207  -0.388668  0  3.227941  0
N  N281  1  0.26810812  0.45189126  0.77256817  1  -1.220282  0  -0.294605  -0.386807  0  3.211135  0
N  N282  1  0.03138452  0.13446726  0.54837240  1  -1.250639  0  -0.326557  -0.20355  0  3.56964  0
N  N283  1  0.44320917  0.85088449  0.44393115  1  -1.266143  0  -0.32814  -0.199895  0  3.571635  0
N  N284  1  0.47121267  0.27933753  0.31607528  1  -1.243094  0  -0.32764  -0.197279  0  3.577017  0
N  N285  1  0.28782482  0.14892016  0.43654681  1  -1.166516  0  -0.2947  -0.388877  0  3.220294  0
N  N286  1  0.28896522  0.04867659  0.47181452  1  -1.169474  0  -0.294095  -0.388755  0  3.209489  0
N  N287  1  0.38555047  0.07697713  0.40952449  1  -1.173723  0  -0.297792  -0.395881  0  3.2173  0
N  N288  1  0.37875381  0.67360633  0.39698222  1  -1.241174  0  -0.323891  -0.193444  0  3.56367  0
N  N289  1  0.67974200  0.37433723  0.27874081  1  -1.265524  0  -0.323697  -0.196393  0  3.56038  0
N  N290  1  0.19114938  0.24533016  0.14179422  1  -1.266961  0  -0.319655  -0.193709  0  3.548952  0
N  N291  1  0.05599926  0.47905817  0.31219896  1  -1.165823  0  -0.297373  -0.391495  0  3.183828  0
N  N292  1  0.01436073  0.37205806  0.25021686  1  -1.158043  0  -0.298206  -0.388709  0  3.227297  0
N  N293  1  0.18392174  0.45184886  0.27248845  1  -1.203841  0  -0.293917  -0.385759  0  3.210992  0
N  N294  1  0.10287358  0.13407277  0.04845565  1  -1.257659  0  -0.327353  -0.205137  0  3.571477  0
N  N295  1  0.40790151  0.85080176  0.94385941  1  -1.264093  0  -0.328154  -0.198455  0  3.571547  0
N  N296  1  0.80817718  0.27931190  0.81616070  1  -1.252997  0  -0.327374  -0.196517  0  3.57631  0
N  N297  1  0.86131872  0.14886090  0.93661141  1  -1.176744  0  -0.295037  -0.389508  0  3.219208  0
N  N298  1  0.75993011  0.04846119  0.97178353  1  -1.170182  0  -0.29458  -0.389623  0  3.21002  0
N  N299  1  0.69173515  0.07684467  0.90952679  1  -1.185442  0  -0.298227  -0.395648  0  3.218  0
N  N300  1  0.62124481  0.32639206  0.60301740  1  -1.240791  0  -0.323897  -0.193525  0  3.56373  0
N  N301  1  0.32025676  0.62566693  0.72126216  1  -1.265428  0  -0.323553  -0.196244  0  3.560267  0
N  N302  1  0.80885824  0.75467111  0.85820575  1  -1.267425  0  -0.319639  -0.1938  0  3.548955  0
N  N303  1  0.94400161  0.52094196  0.68779956  1  -1.165412  0  -0.297339  -0.391435  0  3.183678  0
N  N304  1  0.98564101  0.62794380  0.74977956  1  -1.157985  0  -0.29819  -0.388628  0  3.227239  0
N  N305  1  0.81607797  0.54814895  0.72751076  1  -1.203594  0  -0.29389  -0.385811  0  3.211068  0
N  N306  1  0.89712700  0.86592677  0.95154411  1  -1.257668  0  -0.327375  -0.205186  0  3.57162  0
N  N307  1  0.59209945  0.14919720  0.05614292  1  -1.263703  0  -0.328159  -0.198449  0  3.571641  0
N  N308  1  0.19181606  0.72068533  0.18383910  1  -1.25292  0  -0.327294  -0.196416  0  3.576185  0
N  N309  1  0.13868008  0.85113922  0.06338908  1  -1.17672  0  -0.295063  -0.389565  0  3.219189  0
N  N310  1  0.24006840  0.95153835  0.02821754  1  -1.1702  0  -0.294603  -0.38971  0  3.21006  0
N  N311  1  0.30826473  0.92315487  0.09047429  1  -1.185369  0  -0.298275  -0.395771  0  3.217888  0
N  N312  1  0.70510863  0.32629766  0.10298208  1  -1.248483  0  -0.323594  -0.193297  0  3.563835  0
N  N313  1  0.30528030  0.62558042  0.22114105  1  -1.261024  0  -0.324041  -0.196492  0  3.559966  0
N  N314  1  0.94582956  0.75454105  0.35807691  1  -1.244133  0  -0.320072  -0.194907  0  3.54894  0
N  N315  1  0.57682213  0.52091138  0.18770310  1  -1.19276  0  -0.296552  -0.390755  0  3.185872  0
N  N316  1  0.64209874  0.62787062  0.24972290  1  -1.174886  0  -0.298214  -0.388654  0  3.227826  0
N  N317  1  0.73189148  0.54810771  0.22743151  1  -1.220366  0  -0.294581  -0.386781  0  3.211048  0
N  N318  1  0.96861559  0.86552997  0.45162774  1  -1.250129  0  -0.326478  -0.203463  0  3.569809  0
N  N319  1  0.55679159  0.14911679  0.55606882  1  -1.26563  0  -0.328143  -0.199918  0  3.571665  0
N  N320  1  0.52878689  0.72066548  0.68392491  1  -1.242918  0  -0.327653  -0.197207  0  3.57707  0
N  N321  1  0.71217399  0.85107996  0.56345303  1  -1.166475  0  -0.294687  -0.38885  0  3.220266  0
N  N322  1  0.71103661  0.95132411  0.52818538  1  -1.169516  0  -0.294038  -0.388634  0  3.20943  0
N  N323  1  0.61444989  0.92302473  0.59047490  1  -1.174084  0  -0.297838  -0.395829  0  3.21713  0
