# generated using pymatgen
data_Mn2H28PtC38S6(N5O2)2
_symmetry_space_group_name_H-M   'P 1'
_cell_length_a   10.19908262
_cell_length_b   10.52630092
_cell_length_c   10.96746045
_cell_angle_alpha   95.07734129
_cell_angle_beta   107.90433808
_cell_angle_gamma   107.85092340
_symmetry_Int_Tables_number   1
_chemical_formula_structural   Mn2H28PtC38S6(N5O2)2
_chemical_formula_sum   'Mn2 H28 Pt1 C38 S6 N10 O4'
_cell_volume   1044.55740621
_cell_formula_units_Z   1
loop_
 _symmetry_equiv_pos_site_id
 _symmetry_equiv_pos_as_xyz
  1  'x, y, z'
loop_
 _atom_site_type_symbol
 _atom_site_label
 _atom_site_symmetry_multiplicity
 _atom_site_fract_x
 _atom_site_fract_y
 _atom_site_fract_z
 _atom_site_occupancy
 _atom_site_hle17_ddec_charge
 _atom_site_hle17_ddec_spin_density
 _atom_site_hle17_ddec_sum_bond_order
 _atom_site_hle17_magmom
 _atom_site_hse06_10hf_ddec_charge
 _atom_site_hse06_10hf_ddec_spin_density
 _atom_site_hse06_10hf_ddec_sum_bond_order
 _atom_site_hse06_10hf_magmom
 _atom_site_hse06_ddec_charge
 _atom_site_hse06_ddec_spin_density
 _atom_site_hse06_ddec_sum_bond_order
 _atom_site_hse06_magmom
 _atom_site_pbe_cm5_charge
 _atom_site_pbe_ddec_charge
 _atom_site_pbe_ddec_spin_density
 _atom_site_pbe_ddec_sum_bond_order
 _atom_site_pbe_magmom
Mn  Mn0  1  0.50261741  0.41487399  0.36581182  1  1.139525  4.096472  2.508396  3.918  1.05158  3.809465  3.028158  3.632  1.160039  3.928986  2.941273  3.76  0.841521  0.972718  3.680292  3.092949  3.494
Mn  Mn1  1  0.49738444  0.58512313  0.63418682  1  1.13951  -4.096417  2.508463  -3.918  1.051597  -3.809417  3.028231  -3.632  1.160064  -3.92895  2.941321  -3.76  0.841517  0.972729  -3.680204  3.093018  -3.494
H  H2  1  0.14884856  0.53829057  0.11785042  1  0.116835  -0.000108  0.942542  0.0  0.128895  4.5e-05  0.997131  0.0  0.132006  2.9e-05  0.996831  0.0  0.102214  0.127039  5.6e-05  0.996665  0.0
H  H3  1  0.85114942  0.46170452  0.88214877  1  0.116841  0.000107  0.942561  0.0  0.128906  -4.5e-05  0.997133  0.0  0.132017  -2.9e-05  0.996832  0.0  0.102224  0.127051  -5.6e-05  0.996668  0.0
H  H4  1  0.15751734  0.68157113  0.94943867  1  0.082756  -0.000493  0.97536  -0.001  0.088773  -0.000187  1.045635  0.0  0.090496  -0.000175  1.044786  0.0  0.09039  0.087609  -0.000187  1.046463  0.0
H  H5  1  0.84248142  0.31842600  0.05056000  1  0.082819  0.00049  0.975365  0.001  0.088849  0.000187  1.045625  0.0  0.090574  0.000175  1.044778  0.0  0.090431  0.087686  0.000187  1.046451  0.0
H  H6  1  0.39208311  0.78778994  0.91169590  1  0.089825  -0.000185  0.960683  0.0  0.099346  6.3e-05  1.024559  0.0  0.101576  6.8e-05  1.025054  0.0  0.094121  0.097872  6.1e-05  1.024376  0.0
H  H7  1  0.60791682  0.21221025  0.08830518  1  0.089813  0.000196  0.960755  0.0  0.099352  -6.3e-05  1.024607  0.0  0.101583  -6.9e-05  1.0251  0.0  0.094135  0.097877  -6.1e-05  1.024421  0.0
H  H8  1  0.61447203  0.73646153  0.03265685  1  0.081136  -0.000229  0.982344  0.0  0.084962  -5.3e-05  1.058611  0.0  0.086758  -6.7e-05  1.057869  0.0  0.091373  0.083259  -5.3e-05  1.060017  0.0
H  H9  1  0.38552492  0.26353356  0.96734022  1  0.08112  0.000224  0.982327  0.0  0.084914  5.3e-05  1.058642  0.0  0.08671  6.6e-05  1.057899  0.0  0.091362  0.08321  5.3e-05  1.060048  0.0
H  H10  1  0.73254074  0.62443657  0.17555645  1  0.081179  -0.005586  0.929728  -0.006  0.093113  -0.002357  0.992393  -0.003  0.094014  -0.002715  0.989426  -0.003  0.122089  0.09225  -0.00196  0.995008  -0.002
H  H11  1  0.26745905  0.37556055  0.82444160  1  0.081159  0.005582  0.929692  0.006  0.093088  0.002358  0.992365  0.003  0.094027  0.002715  0.989359  0.003  0.122075  0.092227  0.00196  0.994981  0.002
H  H12  1  0.88108783  0.55286710  0.33352471  1  0.085043  -0.002622  0.945094  -0.003  0.10088  -0.001292  1.007565  -0.001  0.101515  -0.001442  1.006866  -0.002  0.109693  0.100373  -0.001133  1.008044  -0.001
H  H13  1  0.11891739  0.44713614  0.66647814  1  0.08505  0.002627  0.945156  0.003  0.100878  0.001292  1.007633  0.001  0.101511  0.001441  1.006938  0.002  0.109692  0.10037  0.001133  1.008112  0.001
H  H14  1  0.77343741  0.37686204  0.27995585  1  0.085074  -0.000555  0.948379  0.0  0.099839  -0.000413  1.015392  0.0  0.099537  -0.000602  1.01571  -0.001  0.110134  0.100254  -0.000259  1.014857  0.0
H  H15  1  0.22657129  0.62314220  0.72004534  1  0.085052  0.000557  0.948382  0.0  0.099847  0.000413  1.015358  0.0  0.099545  0.000602  1.015677  0.001  0.110138  0.100263  0.000259  1.014824  0.0
H  H16  1  0.88761520  0.39780174  0.51182923  1  0.086544  -0.003224  0.92124  -0.004  0.103626  -0.001691  0.979688  -0.002  0.103716  -0.001799  0.979803  -0.002  0.116354  0.103689  -0.001587  0.979364  -0.002
H  H17  1  0.11238587  0.60219335  0.48817084  1  0.086559  0.003219  0.921264  0.004  0.103648  0.001691  0.979729  0.002  0.103738  0.001799  0.979846  0.002  0.116366  0.103712  0.001587  0.979406  0.002
H  H18  1  0.85339777  0.55070680  0.54944538  1  0.09428  -0.000972  0.917643  -0.001  0.108937  -0.000997  0.978404  -0.001  0.109465  -0.001032  0.977923  -0.001  0.114791  0.108668  -0.000973  0.978606  -0.001
H  H19  1  0.14661040  0.44929338  0.45055807  1  0.094211  0.000972  0.917683  0.001  0.108901  0.000996  0.978453  0.001  0.109433  0.001032  0.977967  0.001  0.114774  0.10863  0.000973  0.978655  0.001
H  H20  1  0.74860394  0.25975374  0.61049690  1  0.091985  -0.005497  0.94607  -0.007  0.10104  -0.002175  1.012527  -0.003  0.102862  -0.002558  1.007873  -0.003  0.123963  0.099597  -0.001776  1.016189  -0.002
H  H21  1  0.25139805  0.74024647  0.38950842  1  0.091946  0.0055  0.946126  0.007  0.101014  0.002175  1.012581  0.003  0.102838  0.002558  1.007925  0.003  0.123931  0.099572  0.001776  1.016247  0.002
H  H22  1  0.16612268  0.20781744  0.52252032  1  0.114851  0.000297  0.939465  0.0  0.128301  7.3e-05  0.992337  0.0  0.131022  6.4e-05  0.992158  0.0  0.105073  0.126785  9.1e-05  0.99193  0.0
H  H23  1  0.83387418  0.79219090  0.47747689  1  0.114848  -0.00029  0.939611  0.0  0.128316  -7.3e-05  0.99244  0.0  0.13106  -6.5e-05  0.992231  0.0  0.105059  0.126766  -9.1e-05  0.992077  0.0
H  H24  1  0.15629822  0.00848938  0.62977286  1  0.082964  -0.00042  0.976948  -0.001  0.092306  -3.8e-05  1.040331  0.0  0.093946  -4.5e-05  1.039735  0.0  0.094088  0.091346  -1.2e-05  1.04066  0.0
H  H25  1  0.84369840  0.99152102  0.37022718  1  0.082894  0.000419  0.977008  0.001  0.092273  3.8e-05  1.04035  0.0  0.093914  4.4e-05  1.039754  0.0  0.094078  0.091303  1.2e-05  1.04069  0.0
H  H26  1  0.37448305  0.93688891  0.70180238  1  0.094984  0.000164  0.956247  0.0  0.104173  -1e-06  1.018539  0.0  0.106479  7e-06  1.019162  0.0  0.096343  0.102691  -9.5e-05  1.018474  0.0
H  H27  1  0.62551241  0.06311843  0.29819890  1  0.09501  -0.000159  0.956203  0.0  0.104167  1e-06  1.018534  0.0  0.106471  -8e-06  1.019152  0.0  0.096329  0.102685  9.5e-05  1.018464  0.0
H  H28  1  0.60475783  0.06854970  0.66686354  1  0.09339  -0.000263  0.947091  0.0  0.102457  -7e-05  1.011185  0.0  0.104272  -8.8e-05  1.010802  0.0  0.100309  0.10171  -0.000124  1.010711  0.0
H  H29  1  0.39523954  0.93145458  0.33313804  1  0.093429  0.000264  0.947111  0.0  0.10245  6.9e-05  1.011246  0.0  0.104268  8.8e-05  1.010855  0.0  0.100296  0.101704  0.000124  1.010771  0.0
Pt  Pt30  1  0.00000076  0.99999875  0.99999719  1  0.252199  -2.3e-05  3.944689  0.0  0.329417  -1.3e-05  4.478066  0.0  0.325065  -6e-06  4.484241  0.0  0.61579  0.334478  -2e-05  4.472729  0.0
C  C31  1  0.37457541  0.55201554  0.16797234  1  0.342392  -0.000629  3.825895  0.001  0.329229  0.001606  4.083356  0.001  0.350662  0.001025  4.100066  0.001  0.100269  0.313821  0.002294  4.071317  0.001
C  C32  1  0.62542052  0.44797955  0.83202444  1  0.342385  0.000745  3.826033  -0.001  0.32923  -0.001607  4.083517  -0.001  0.350664  -0.001018  4.100228  -0.001  0.100262  0.313818  -0.002292  4.071495  -0.001
C  C33  1  0.24934039  0.58049759  0.09671805  1  -0.205995  0.001161  3.724458  0.0  -0.222832  0.003647  3.975817  0.002  -0.235015  0.001336  3.997809  0.0  -0.109491  -0.212749  0.008308  3.958935  0.005
C  C34  1  0.75065734  0.41949954  0.90328215  1  -0.205944  -0.001231  3.724501  0.0  -0.222756  -0.003652  3.975844  -0.002  -0.234939  -0.001342  3.997838  0.0  -0.109485  -0.212675  -0.008313  3.95897  -0.005
C  C35  1  0.25613570  0.66268678  0.00493078  1  -0.013764  0.003483  3.766172  0.002  -0.031741  0.004676  4.022613  0.003  -0.027059  0.003779  4.044223  0.002  -0.08539  -0.034199  0.005435  4.005595  0.003
C  C36  1  0.74386462  0.33731445  0.99507414  1  -0.013921  -0.003418  3.766341  -0.002  -0.031939  -0.004671  4.022833  -0.003  -0.027262  -0.003776  4.044447  -0.002  -0.085484  -0.034395  -0.005432  4.005813  -0.003
C  C37  1  0.38796871  0.72177719  0.98246288  1  -0.111765  0.007931  3.795448  0.006  -0.130022  0.008034  4.056344  0.006  -0.139913  0.005749  4.082908  0.004  -0.110879  -0.121984  0.009935  4.035323  0.007
C  C38  1  0.61203420  0.27822812  0.01754403  1  -0.111761  -0.008034  3.795484  -0.006  -0.130008  -0.008038  4.05635  -0.006  -0.139901  -0.005751  4.082918  -0.004  -0.110865  -0.121968  -0.009939  4.035323  -0.007
C  C39  1  0.51148122  0.69375911  0.05011887  1  -0.058979  0.004248  3.7478  0.003  -0.080782  0.005391  4.000113  0.003  -0.07687  0.004273  4.023867  0.003  -0.081831  -0.081186  0.006822  3.981163  0.004
C  C40  1  0.48851793  0.30623904  0.94988273  1  -0.058858  -0.004134  3.747719  -0.003  -0.080623  -0.005387  4.000028  -0.003  -0.076711  -0.004267  4.023784  -0.003  -0.081784  -0.081026  -0.006821  3.981079  -0.004
C  C41  1  0.50750454  0.60797821  0.14198588  1  -0.121453  0.003277  3.815034  0.002  -0.101686  0.006204  4.052383  0.004  -0.119761  0.003734  4.08246  0.002  -0.030237  -0.089891  0.007813  4.031734  0.006
C  C42  1  0.49249486  0.39201791  0.85801654  1  -0.121505  -0.003403  3.815177  -0.002  -0.101762  -0.006204  4.05257  -0.004  -0.11984  -0.003742  4.082658  -0.002  -0.030252  -0.089969  -0.007815  4.031931  -0.006
C  C43  1  0.63744345  0.57887621  0.20449484  1  0.189907  0.028315  3.659622  0.025  0.14679  0.027424  3.913376  0.023  0.169524  0.025189  3.924552  0.022  0.095468  0.131465  0.030842  3.905373  0.025
C  C44  1  0.36255673  0.42112193  0.79550159  1  0.189885  -0.028257  3.659552  -0.025  0.146768  -0.027423  3.913326  -0.023  0.169474  -0.025186  3.924495  -0.022  0.09544  0.131445  -0.030839  3.905334  -0.025
C  C45  1  0.78724554  0.47200098  0.34100121  1  -0.009074  -0.001083  3.643477  0.0  -0.069173  -0.000163  3.9062  0.001  -0.064703  -0.000346  3.920205  0.001  -0.06053  -0.071859  0.000105  3.895979  0.001
C  C46  1  0.21275929  0.52800124  0.65900053  1  -0.009142  0.001058  3.643662  0.0  -0.069229  0.000161  3.906392  -0.001  -0.06476  0.000347  3.9204  -0.001  -0.060568  -0.071915  -0.000105  3.896174  -0.001
C  C47  1  0.81047859  0.45209451  0.48107216  1  0.002757  -0.001415  3.626943  0.0  -0.052355  -0.000991  3.886066  0.0  -0.047304  -0.000896  3.89876  0.001  -0.052827  -0.055589  -0.000904  3.876916  0.0
C  C48  1  0.18952404  0.54790466  0.51893052  1  0.002913  0.001415  3.626904  0.0  -0.052326  0.00099  3.886186  0.0  -0.047267  0.000897  3.898859  -0.001  -0.052807  -0.055556  0.000904  3.877036  0.0
C  C49  1  0.65068077  0.28176631  0.55590280  1  0.192895  0.030984  3.627024  0.028  0.147881  0.026978  3.880867  0.023  0.170509  0.026183  3.889851  0.023  0.100429  0.131636  0.027838  3.875413  0.023
C  C50  1  0.34931955  0.71823490  0.44409847  1  0.1929  -0.031009  3.627132  -0.028  0.147865  -0.026972  3.881013  -0.023  0.170489  -0.02618  3.890004  -0.023  0.100436  0.131629  -0.027833  3.875573  -0.023
C  C51  1  0.51379787  0.20795193  0.57014158  1  -0.110342  -0.008145  3.804936  -0.008  -0.092308  -0.000245  4.045589  -0.001  -0.108414  -0.002553  4.074316  -0.003  -0.024353  -0.080944  0.001447  4.025772  0.0
C  C52  1  0.48619886  0.79205335  0.42985535  1  -0.110319  0.008108  3.804754  0.008  -0.092323  0.000246  4.045448  0.001  -0.108427  0.00255  4.074164  0.003  -0.024362  -0.080981  -0.001451  4.025674  0.0
C  C53  1  0.38789881  0.24782504  0.52832462  1  0.329981  0.010716  3.810389  0.011  0.312772  0.008044  4.076502  0.007  0.331331  0.008499  4.095241  0.008  0.097543  0.299032  0.006982  4.063008  0.006
C  C54  1  0.61209856  0.75217924  0.47167515  1  0.329874  -0.010632  3.810179  -0.011  0.312719  -0.008046  4.076238  -0.007  0.331274  -0.008489  4.094991  -0.008  0.097517  0.298979  -0.006977  4.062754  -0.006
C  C55  1  0.26055147  0.17475124  0.55227779  1  -0.197554  -0.012336  3.735015  -0.011  -0.217069  -0.002976  3.99043  -0.003  -0.227262  -0.004789  4.01154  -0.005  -0.107457  -0.209067  -0.000956  3.975024  -0.001
C  C56  1  0.73944565  0.82525506  0.44772025  1  -0.197532  0.012249  3.735111  0.011  -0.217072  0.002978  3.990491  0.003  -0.227287  0.004778  4.011604  0.005  -0.107376  -0.209037  0.00095  3.975093  0.001
C  C57  1  0.25639334  0.06394542  0.61301698  1  -0.011733  0.012003  3.753399  0.01  -0.027022  0.007674  4.003473  0.005  -0.023093  0.007615  4.024137  0.006  -0.081304  -0.029542  0.007479  3.988666  0.005
C  C58  1  0.74360211  0.93606192  0.38698157  1  -0.011698  -0.011976  3.753411  -0.01  -0.02702  -0.007671  4.003486  -0.005  -0.02309  -0.007609  4.024155  -0.006  -0.081368  -0.029527  -0.007477  3.988667  -0.005
C  C59  1  0.37955570  0.02397904  0.65436771  1  -0.101362  -0.008296  3.773779  -0.007  -0.119714  -0.000506  4.033177  -0.001  -0.128336  -0.002092  4.058808  -0.002  -0.104815  -0.113399  0.000841  4.015241  0.0
C  C60  1  0.62043936  0.97602728  0.34563247  1  -0.101489  0.008293  3.773903  0.007  -0.119812  0.000498  4.033291  0.001  -0.128431  0.002094  4.058917  0.002  -0.10487  -0.113494  -0.000847  4.015345  0.0
C  C61  1  0.50708086  0.09677336  0.63428695  1  -0.056261  0.008653  3.737636  0.007  -0.079177  0.004986  3.990186  0.004  -0.075839  0.005391  4.013822  0.004  -0.076871  -0.080496  0.004715  3.972382  0.004
C  C62  1  0.49291406  0.90322988  0.36570930  1  -0.056158  -0.008657  3.737904  -0.007  -0.079019  -0.004984  3.990393  -0.004  -0.075679  -0.005395  4.014032  -0.004  -0.07675  -0.080332  -0.004715  3.972598  -0.004
C  C63  1  0.01838784  0.26076224  0.86108299  1  0.214834  0.000307  3.93541  0.0  0.209447  0.000174  4.25488  0.0  0.222883  0.000179  4.268583  0.0  0.134471  0.200808  0.000242  4.246848  0.0
C  C64  1  0.98160858  0.73922873  0.13890174  1  0.214876  -0.000259  3.935209  0.0  0.209489  -0.000174  4.25469  0.0  0.222929  -0.000182  4.268388  0.0  0.134427  0.200852  -0.000242  4.246656  0.0
C  C65  1  0.98289687  0.16473512  0.25664020  1  0.217998  -0.000218  3.91758  0.0  0.211916  -3.2e-05  4.235555  0.0  0.22617  -7.7e-05  4.247059  0.0  0.135561  0.202543  9e-06  4.228405  0.0
C  C66  1  0.01710910  0.83526200  0.74336145  1  0.217956  0.000218  3.917719  0.0  0.211885  3.2e-05  4.235678  0.0  0.226137  7.8e-05  4.247186  0.0  0.135545  0.202514  -1e-05  4.228529  0.0
C  C67  1  0.34669853  0.11989569  0.15797870  1  0.264699  0.017767  3.893978  0.019  0.261841  0.021991  4.197222  0.023  0.283899  0.018269  4.205882  0.02  0.169122  0.246462  0.026498  4.19558  0.027
C  C68  1  0.65330811  0.88010862  0.84203832  1  0.264781  -0.01786  3.89352  -0.019  0.261926  -0.022  4.196755  -0.023  0.283983  -0.018279  4.205423  -0.02  0.169095  0.246548  -0.02651  4.195126  -0.027
S  S69  1  0.09325057  0.24261794  0.01277215  1  -0.095964  -1e-05  2.473546  0.0  -0.112504  0.000309  2.843799  0.0  -0.11509  5.4e-05  2.841106  0.0  -0.067094  -0.113521  0.000738  2.849063  0.001
S  S70  1  0.90674613  0.75737915  0.98721498  1  -0.09602  1.2e-05  2.473581  0.0  -0.11255  -0.00031  2.843811  0.0  -0.115139  -5.4e-05  2.841115  0.0  -0.067063  -0.113564  -0.00074  2.849067  -0.001
S  S71  1  0.05460819  0.04721519  0.23235175  1  -0.104999  0.001191  2.450119  0.001  -0.115921  0.001211  2.806798  0.001  -0.120555  0.000727  2.80495  0.001  -0.076165  -0.113772  0.000991  2.808062  0.001
S  S72  1  0.94539146  0.95277887  0.76764419  1  -0.104983  -0.001195  2.450162  -0.001  -0.115911  -0.001212  2.806857  -0.001  -0.120548  -0.000726  2.805017  -0.001  -0.076137  -0.113761  -0.000993  2.808123  -0.001
S  S73  1  0.23998444  0.98579810  0.04100480  1  -0.086797  0.000558  2.438554  -0.001  -0.093558  0.003318  2.784794  0.001  -0.098305  0.002486  2.780585  0.001  -0.056987  -0.096071  0.003055  2.794706  0.0
S  S74  1  0.76001677  0.01420006  0.95899831  1  -0.086793  -0.00056  2.438759  0.001  -0.093555  -0.003323  2.785007  -0.001  -0.098301  -0.002492  2.780797  -0.001  -0.056978  -0.096064  -0.003064  2.794924  0.0
N  N75  1  0.65166568  0.50240589  0.29103257  1  -0.337223  -0.052434  3.25169  -0.076  -0.270212  -0.024484  3.547267  -0.048  -0.304856  -0.03429  3.566179  -0.058  -0.37024  -0.246189  -0.017313  3.534533  -0.04
N  N76  1  0.34833695  0.49759327  0.70896738  1  -0.337211  0.052388  3.251804  0.076  -0.270176  0.024483  3.547335  0.048  -0.304823  0.034286  3.566263  0.058  -0.370201  -0.246144  0.017312  3.534589  0.04
N  N77  1  0.66654109  0.37412303  0.48538395  1  -0.315603  -0.062819  3.249818  -0.086  -0.251276  -0.031433  3.543465  -0.053  -0.284956  -0.040891  3.561606  -0.064  -0.361547  -0.2279  -0.024291  3.532345  -0.046
N  N78  1  0.33346104  0.62588021  0.51461709  1  -0.315591  0.062851  3.249797  0.086  -0.251217  0.03143  3.543461  0.053  -0.284897  0.040887  3.561605  0.064  -0.361524  -0.227841  0.024287  3.532345  0.046
N  N79  1  0.97074397  0.28084249  0.75509742  1  -0.411112  -0.000247  2.601845  0.0  -0.39235  -9e-06  2.830922  0.0  -0.402229  -5.7e-05  2.840264  0.0  -0.323869  -0.386499  0.000127  2.82462  0.0
N  N80  1  0.02925398  0.71914440  0.24488925  1  -0.411123  0.000197  2.601688  0.0  -0.392349  8e-06  2.830739  0.0  -0.40223  6e-05  2.840075  0.0  -0.323827  -0.3865  -0.000127  2.824438  0.0
N  N81  1  0.93256373  0.24587966  0.28276986  1  -0.402089  0.000384  2.57312  0.0  -0.377834  0.000293  2.79686  0.0  -0.387094  0.000258  2.806092  0.0  -0.316409  -0.372766  0.000102  2.791008  0.0
N  N82  1  0.06744338  0.75411236  0.71723261  1  -0.402089  -0.000382  2.573294  0.0  -0.377839  -0.000293  2.797033  0.0  -0.387095  -0.00026  2.80626  0.0  -0.316424  -0.372769  -0.000103  2.791181  0.0
N  N83  1  0.42912693  0.21414770  0.24182740  1  -0.431457  0.031939  2.832129  0.018  -0.409075  0.041756  3.116256  0.025  -0.431675  0.037186  3.12087  0.022  -0.325083  -0.395891  0.044866  3.115936  0.026
N  N84  1  0.57086808  0.78584236  0.75818421  1  -0.431589  -0.031846  2.831459  -0.018  -0.409218  -0.04175  3.115602  -0.025  -0.431824  -0.037175  3.120223  -0.022  -0.325097  -0.396034  -0.044862  3.115295  -0.026
O  O85  1  0.36363394  0.47532665  0.25594658  1  -0.542512  0.012083  2.122414  -0.004  -0.494955  0.047807  2.408396  0.034  -0.540037  0.032892  2.405212  0.018  -0.31948  -0.459577  0.061398  2.408827  0.048
O  O86  1  0.63635939  0.52466436  0.74404913  1  -0.542443  -0.012086  2.122492  0.004  -0.494941  -0.047814  2.408549  -0.034  -0.540012  -0.032899  2.405327  -0.018  -0.319444  -0.459558  -0.061413  2.408989  -0.048
O  O87  1  0.38814918  0.35549099  0.47211475  1  -0.575859  -0.013583  2.127587  -0.026  -0.531205  0.015967  2.430864  0.007  -0.576839  0.004889  2.425602  -0.006  -0.310351  -0.495746  0.02553  2.432753  0.018
O  O88  1  0.61185337  0.64452146  0.52789264  1  -0.575794  0.013572  2.127673  0.026  -0.531185  -0.015983  2.430989  -0.007  -0.576785  -0.004905  2.425655  0.006  -0.310357  -0.495725  -0.025551  2.432894  -0.018
