# generated using pymatgen
data_ZnH9C5SNO5
_symmetry_space_group_name_H-M   'P 1'
_cell_length_a   5.30523413
_cell_length_b   8.90766763
_cell_length_c   9.21671117
_cell_angle_alpha   112.87773400
_cell_angle_beta   90.00010958
_cell_angle_gamma   90.00014101
_symmetry_Int_Tables_number   1
_chemical_formula_structural   ZnH9C5SNO5
_chemical_formula_sum   'Zn2 H18 C10 S2 N2 O10'
_cell_volume   401.29415971
_cell_formula_units_Z   2
loop_
 _symmetry_equiv_pos_site_id
 _symmetry_equiv_pos_as_xyz
  1  'x, y, z'
loop_
 _atom_site_type_symbol
 _atom_site_label
 _atom_site_symmetry_multiplicity
 _atom_site_fract_x
 _atom_site_fract_y
 _atom_site_fract_z
 _atom_site_occupancy
 _atom_site_hle17_bader_spin_density
 _atom_site_hle17_ddec_charge
 _atom_site_hle17_ddec_spin_density
 _atom_site_hle17_ddec_sum_bond_order
 _atom_site_hle17_magmom
 _atom_site_hse06_10hf_bader_spin_density
 _atom_site_hse06_10hf_ddec_charge
 _atom_site_hse06_10hf_ddec_spin_density
 _atom_site_hse06_10hf_ddec_sum_bond_order
 _atom_site_hse06_10hf_magmom
 _atom_site_hse06_bader_spin_density
 _atom_site_hse06_ddec_charge
 _atom_site_hse06_ddec_spin_density
 _atom_site_hse06_ddec_sum_bond_order
 _atom_site_hse06_magmom
 _atom_site_pbe_bader_spin_density
 _atom_site_pbe_cm5_charge
 _atom_site_pbe_ddec_charge
 _atom_site_pbe_ddec_spin_density
 _atom_site_pbe_ddec_sum_bond_order
 _atom_site_pbe_magmom
Zn  Zn0  1  0.94435711  0.69563401  0.89701189  1  0  1.133329  0  1.683089  0  0  0.954686  0  2.139026  0  0  1.002204  0  2.081577  0  0  0.683488  0.920767  0  2.179605  0
Zn  Zn1  1  0.44435980  0.30436876  0.10298488  1  0  1.133294  0  1.683008  0  0  0.954638  0  2.138924  0  0  1.002155  0  2.081483  0  0  0.683531  0.920735  0  2.179501  0
H  H2  1  0.69743981  0.54136071  0.65398028  1  0  0.309955  0  0.930664  0  0  0.293773  0  0.996166  0  0  0.301069  0  0.990679  0  0  0.285703  0.288194  0  1.000845  0
H  H3  1  0.19744404  0.45864503  0.34602833  1  0  0.309961  0  0.930661  0  0  0.293749  0  0.996188  0  0  0.301047  0  0.990698  0  0  0.285708  0.288171  0  1.000866  0
H  H4  1  0.99534356  0.48554248  0.60699442  1  0  0.301046  0  0.927067  0  0  0.282202  0  0.99876  0  0  0.289193  0  0.99345  0  0  0.284102  0.276548  0  1.004041  0
H  H5  1  0.49534435  0.51446171  0.39301375  1  0  0.301033  0  0.927056  0  0  0.282205  0  0.998736  0  0  0.289196  0  0.993427  0  0  0.284106  0.276549  0  1.004017  0
H  H6  1  0.50086645  0.80092412  0.01360097  1  0  0.429713  0  0.847645  0  0  0.400243  0  0.921362  0  0  0.409274  0  0.909005  0  0  0.304864  0.393779  0  0.928553  0
H  H7  1  0.00085851  0.19908709  0.98640091  1  0  0.429717  0  0.847632  0  0  0.400246  0  0.921362  0  0  0.409275  0  0.909014  0  0  0.304846  0.39378  0  0.92856  0
H  H8  1  0.65477135  0.96762464  0.06950961  1  0  0.434816  0  0.867947  0  0  0.400898  0  0.934782  0  0  0.412299  0  0.91857  0  0  0.292386  0.392595  0  0.946698  0
H  H9  1  0.15475152  0.03238579  0.93048662  1  0  0.43476  0  0.868036  0  0  0.400829  0  0.934897  0  0  0.412234  0  0.918682  0  0  0.292329  0.392527  0  0.94681  0
H  H10  1  0.65856096  0.28279682  0.63481140  1  0  0.061174  0  0.92781  0  0  0.074125  0  0.989245  0  0  0.074741  0  0.98998  0  0  0.1063  0.073797  0  0.988517  0
H  H11  1  0.15856761  0.71720753  0.36518365  1  0  0.061138  0  0.927723  0  0  0.074114  0  0.989181  0  0  0.07473  0  0.989915  0  0  0.106306  0.073789  0  0.988453  0
H  H12  1  0.99150196  0.12381146  0.68213621  1  0  0.093866  0  0.966107  0  0  0.100819  0  1.043081  0  0  0.102737  0  1.042263  0  0  0.093473  0.099156  0  1.044409  0
H  H13  1  0.49151617  0.87618902  0.31786082  1  0  0.093893  0  0.965873  0  0  0.100822  0  1.042889  0  0  0.102741  0  1.042073  0  0  0.093464  0.099161  0  1.04422  0
H  H14  1  0.19410866  0.29600220  0.76303311  1  0  0.119542  0  0.943572  0  0  0.134435  0  1.002342  0  0  0.13632  0  1.001759  0  0  0.104265  0.133088  0  1.002861  0
H  H15  1  0.69412138  0.70399499  0.23696906  1  0  0.119556  0  0.943603  0  0  0.134443  0  1.002383  0  0  0.136362  0  1.001755  0  0  0.104262  0.133095  0  1.002909  0
H  H16  1  0.03864928  0.00895246  0.24676129  1  0  0.14269  0  0.937115  0  0  0.154502  0  0.998295  0  0  0.158124  0  0.995546  0  0  0.10737  0.151791  0  1.00069  0
H  H17  1  0.53865010  0.99104426  0.75324064  1  0  0.142666  0  0.937184  0  0  0.154477  0  0.998381  0  0  0.158097  0  0.995633  0  0  0.107344  0.151769  0  1.000766  0
H  H18  1  0.81830993  0.04877995  0.39971300  1  0  0.11381  0  0.978868  0  0  0.121754  0  1.054348  0  0  0.123632  0  1.054538  0  0  0.09877  0.119536  0  1.055866  0
H  H19  1  0.31831444  0.95122003  0.60028810  1  0  0.11381  0  0.978888  0  0  0.121758  0  1.05439  0  0  0.123638  0  1.054577  0  0  0.098764  0.119536  0  1.055903  0
C  C20  1  0.72674907  0.38790413  0.88180155  1  0  0.662053  0  3.807814  0  0  0.607646  0  4.109039  0  0  0.641159  0  4.10194  0  0  0.217947  0.584938  0  4.112705  0
C  C21  1  0.22675802  0.61207122  0.11819141  1  0  0.661955  0  3.808083  0  0  0.607554  0  4.109355  0  0  0.641079  0  4.102247  0  0  0.217971  0.584847  0  4.113024  0
C  C22  1  0.81412646  0.35070809  0.71214548  1  0  0.084887  0  3.606277  0  0  0.067995  0  3.843749  0  0  0.067271  0  3.85834  0  0  0.001093  0.068552  0  3.833192  0
C  C23  1  0.31413447  0.64929064  0.28784972  1  0  0.085001  0  3.606084  0  0  0.068002  0  3.843743  0  0  0.067278  0  3.858337  0  0  0.001099  0.068552  0  3.833186  0
C  C24  1  0.04697445  0.23944930  0.67486392  1  0  -0.206978  0  3.642934  0  0  -0.244114  0  3.904432  0  0  -0.244922  0  3.914928  0  0  -0.154915  -0.243801  0  3.897754  0
C  C25  1  0.54698772  0.76054988  0.32513675  1  0  -0.207  0  3.642753  0  0  -0.244115  0  3.904333  0  0  -0.244941  0  3.914815  0  0  -0.154943  -0.243801  0  3.897659  0
C  C26  1  0.95367616  0.10751236  0.34810451  1  0  -0.324191  0  3.643609  0  0  -0.357674  0  3.900983  0  0  -0.362694  0  3.906212  0  0  -0.161417  -0.353519  0  3.896766  0
C  C27  1  0.45368084  0.89248435  0.65189218  1  0  -0.324215  0  3.643717  0  0  -0.357745  0  3.901145  0  0  -0.36276  0  3.906365  0  0  -0.161402  -0.353578  0  3.896887  0
C  C28  1  0.81471334  0.22262953  0.28871077  1  0  0.712466  0  3.842925  0  0  0.658621  0  4.149036  0  0  0.691496  0  4.1425  0  0  0.20689  0.635734  0  4.152805  0
C  C29  1  0.31471813  0.77736799  0.71128616  1  0  0.712426  0  3.842924  0  0  0.658632  0  4.149006  0  0  0.691515  0  4.142466  0  0  0.206872  0.635748  0  4.152766  0
S  S30  1  0.20200384  0.19914880  0.48849429  1  0  0.024623  0  2.361345  0  0  0.032694  0  2.713337  0  0  0.031159  0  2.710852  0  0  -0.011888  0.035331  0  2.71642  0
S  S31  1  0.70201251  0.80085326  0.51150427  1  0  0.024619  0  2.361458  0  0  0.032742  0  2.713456  0  0  0.031207  0  2.710979  0  0  -0.011874  0.035373  0  2.716531  0
N  N32  1  0.86017351  0.50402692  0.69189190  1  0  -0.678634  0  3.161071  0  0  -0.62357  0  3.420053  0  0  -0.643651  0  3.414634  0  0  -0.632042  -0.609251  0  3.424575  0
N  N33  1  0.36017949  0.49597442  0.30811298  1  0  -0.678624  0  3.160995  0  0  -0.623525  0  3.419995  0  0  -0.643615  0  3.414589  0  0  -0.632041  -0.609209  0  3.424519  0
O  O34  1  0.70795668  0.53316409  0.97616080  1  0  -0.615557  0  2.089272  0  0  -0.550272  0  2.339907  0  0  -0.577528  0  2.331421  0  0  -0.296483  -0.530738  0  2.345458  0
O  O35  1  0.20796678  0.46683194  0.02384637  1  0  -0.615163  0  2.08971  0  0  -0.549969  0  2.340478  0  0  -0.577221  0  2.331987  0  0  -0.296362  -0.530438  0  2.346026  0
O  O36  1  0.64664583  0.85290224  0.98636565  1  0  -0.825914  0  1.89957  0  0  -0.751687  0  2.121731  0  0  -0.773779  0  2.088267  0  0  -0.572229  -0.736209  0  2.144537  0
O  O37  1  0.14662894  0.14710451  0.01363137  1  0  -0.82588  0  1.899625  0  0  -0.751663  0  2.121798  0  0  -0.773765  0  2.088342  0  0  -0.572158  -0.736189  0  2.144613  0
O  O38  1  0.67492665  0.26341772  0.91557628  1  0  -0.668444  0  2.044528  0  0  -0.590311  0  2.3104  0  0  -0.617879  0  2.294133  0  0  -0.321778  -0.571201  0  2.321715  0
O  O39  1  0.17491490  0.73658059  0.08441870  1  0  -0.668707  0  2.04425  0  0  -0.590523  0  2.310087  0  0  -0.618127  0  2.293835  0  0  -0.321897  -0.571407  0  2.321402  0
O  O40  1  0.86968570  0.36966905  0.33256537  1  0  -0.613974  0  1.983088  0  0  -0.560519  0  2.213299  0  0  -0.583338  0  2.205586  0  0  -0.308109  -0.54509  0  2.220277  0
O  O41  1  0.36970133  0.63032989  0.66744079  1  0  -0.61383  0  1.98304  0  0  -0.560506  0  2.213361  0  0  -0.583333  0  2.205665  0  0  -0.308115  -0.545082  0  2.220337  0
O  O42  1  0.63427046  0.15314414  0.18901695  1  0  -0.690341  0  2.065294  0  0  -0.606203  0  2.32151  0  0  -0.636827  0  2.30832  0  0  -0.327813  -0.58396  0  2.329942  0
O  O43  1  0.13426459  0.84685524  0.81097191  1  0  -0.690343  0  2.065159  0  0  -0.60621  0  2.321379  0  0  -0.636855  0  2.3082  0  0  -0.327787  -0.583964  0  2.3298  0
