# generated using pymatgen
data_CuH9C8(NO)5
_symmetry_space_group_name_H-M   'P 1'
_cell_length_a   7.80002661
_cell_length_b   8.07572738
_cell_length_c   20.75900000
_cell_angle_alpha   90.00000000
_cell_angle_beta   90.00000000
_cell_angle_gamma   116.09615727
_symmetry_Int_Tables_number   1
_chemical_formula_structural   CuH9C8(NO)5
_chemical_formula_sum   'Cu4 H36 C32 N20 O20'
_cell_volume   1174.32445160
_cell_formula_units_Z   4
loop_
 _symmetry_equiv_pos_site_id
 _symmetry_equiv_pos_as_xyz
  1  'x, y, z'
loop_
 _atom_site_type_symbol
 _atom_site_label
 _atom_site_symmetry_multiplicity
 _atom_site_fract_x
 _atom_site_fract_y
 _atom_site_fract_z
 _atom_site_occupancy
 _atom_site_hle17_ddec_charge
 _atom_site_hle17_ddec_spin_density
 _atom_site_hle17_ddec_sum_bond_order
 _atom_site_hle17_magmom
 _atom_site_hse06_10hf_ddec_charge
 _atom_site_hse06_10hf_ddec_spin_density
 _atom_site_hse06_10hf_ddec_sum_bond_order
 _atom_site_hse06_10hf_magmom
 _atom_site_hse06_ddec_charge
 _atom_site_hse06_ddec_spin_density
 _atom_site_hse06_ddec_sum_bond_order
 _atom_site_hse06_magmom
 _atom_site_pbe_bader_charge
 _atom_site_pbe_bader_spin_density
 _atom_site_pbe_cm5_charge
 _atom_site_pbe_ddec_charge
 _atom_site_pbe_ddec_spin_density
 _atom_site_pbe_ddec_sum_bond_order
 _atom_site_pbe_magmom
Cu  Cu0  1  0.33013497  0.00830201  0.16428441  1  0.907994  0.693795  1.791672  0.508  0.905583  0.81039  2.173335  0.654  1.015991  0.892467  2.075758  0.749  1.112361  0.559437  0.716221  0.840239  0.710643  2.225188  0.557
Cu  Cu1  1  0.66986415  0.49170322  0.66428633  1  0.908057  0.693803  1.791626  0.508  0.905635  0.8104  2.1733  0.654  1.016011  0.892473  2.075751  0.749  1.112361  0.559446  0.716222  0.840275  0.710654  2.225189  0.557
Cu  Cu2  1  0.66984180  0.99169604  0.83571367  1  0.908091  -0.693796  1.791718  -0.508  0.905475  -0.810395  2.173574  -0.654  1.015932  -0.892463  2.075889  -0.749  1.112474  -0.559436  0.716214  0.840146  -0.710663  2.225413  -0.557
Cu  Cu3  1  0.33014528  0.50829896  0.33571318  1  0.90809  -0.693804  1.791663  -0.508  0.905525  -0.810402  2.173508  -0.654  1.015975  -0.892474  2.075836  -0.749  1.112403  -0.559437  0.716211  0.840192  -0.710659  2.22536  -0.557
H  H4  1  0.60361979  0.61889034  0.94303097  1  0.094358  -5e-06  0.937033  0.0  0.101586  0.0  1.00292  0.0  0.104407  -1e-06  0.99826  0.0  0.16348  1.5e-05  0.135163  0.099306  2e-06  1.00643  0.0
H  H5  1  0.39638059  0.88112259  0.44303146  1  0.094339  -3e-06  0.937134  0.0  0.101583  0.0  1.003007  0.0  0.104404  -1e-06  0.998352  0.0  0.163471  1.1e-05  0.13516  0.099311  -1e-06  1.006495  0.0
H  H6  1  0.39637303  0.38110633  0.05696469  1  0.094299  6e-06  0.937054  0.0  0.101487  0.0  1.002982  0.0  0.104302  1e-06  0.998337  0.0  0.163601  -1.2e-05  0.135133  0.099212  -0.0  1.006484  0.0
H  H7  1  0.60362565  0.11887822  0.55697143  1  0.094287  9e-06  0.937125  0.0  0.101555  -0.0  1.002983  0.0  0.10437  1e-06  0.998346  0.0  0.163314  -1.5e-05  0.135142  0.099287  -2e-06  1.006455  0.0
H  H8  1  0.75574654  0.51518490  0.87449444  1  0.119047  0.00011  0.927671  0.0  0.142169  8.1e-05  0.983383  0.0  0.143276  6.4e-05  0.982916  0.0  0.095782  0.000202  0.116661  0.141131  8.9e-05  0.983911  0.0
H  H9  1  0.24425844  0.98481562  0.37449251  1  0.119175  0.000109  0.927596  0.0  0.142285  8e-05  0.983316  0.0  0.143392  6.4e-05  0.982849  0.0  0.09571  0.000197  0.116698  0.141246  8.7e-05  0.983847  0.0
H  H10  1  0.24426419  0.48481453  0.12550364  1  0.119109  -0.000109  0.92766  0.0  0.14223  -8e-05  0.98337  0.0  0.143338  -6.4e-05  0.982904  0.0  0.095702  -0.0002  0.116688  0.14119  -8.8e-05  0.9839  0.0
H  H11  1  0.75575157  0.01519346  0.62550990  1  0.119161  -0.000112  0.927575  0.0  0.142265  -8e-05  0.98331  0.0  0.143371  -6.4e-05  0.982847  0.0  0.095764  -0.000202  0.116692  0.141229  -8.9e-05  0.983835  0.0
H  H12  1  0.95121190  0.48026849  0.90546992  1  0.106457  2.6e-05  0.956455  0.0  0.122085  3.2e-05  1.024679  0.0  0.122344  2.6e-05  1.025817  0.0  0.057744  2.8e-05  0.107495  0.121832  3.9e-05  1.023989  0.0
H  H13  1  0.04879102  0.01974226  0.40546365  1  0.10652  2.4e-05  0.956353  0.0  0.122152  3.2e-05  1.024566  0.0  0.12241  2.6e-05  1.025705  0.0  0.057763  2.3e-05  0.107558  0.121899  3.6e-05  1.023877  0.0
H  H14  1  0.04880127  0.51974473  0.09453201  1  0.10647  -2.7e-05  0.956468  0.0  0.122105  -3.2e-05  1.024668  0.0  0.122362  -2.6e-05  1.025806  0.0  0.058014  -2.5e-05  0.107487  0.12185  -3.7e-05  1.023977  0.0
H  H15  1  0.95120755  0.98025579  0.59453779  1  0.106526  -2.6e-05  0.95635  0.0  0.122191  -3.2e-05  1.02453  0.0  0.122449  -2.6e-05  1.025667  0.0  0.057729  -2.8e-05  0.107588  0.121937  -3.9e-05  1.023841  0.0
H  H16  1  0.99413687  0.68590067  0.86114890  1  0.118601  -6.1e-05  0.937063  0.0  0.137584  -6.4e-05  0.998509  0.0  0.140294  -4.7e-05  0.995421  0.0  0.115424  -4.2e-05  0.111074  0.135221  -7.6e-05  1.00106  0.0
H  H17  1  0.00586495  0.81409572  0.36115034  1  0.118692  -6e-05  0.937023  0.0  0.137671  -6.4e-05  0.998468  0.0  0.140382  -4.7e-05  0.995377  0.0  0.115358  -4.6e-05  0.111075  0.135309  -7.8e-05  1.001019  0.0
H  H18  1  0.00586872  0.31410152  0.13884725  1  0.118701  5.9e-05  0.93702  0.0  0.137661  6.4e-05  0.998493  0.0  0.140369  4.7e-05  0.99541  0.0  0.11552  4.3e-05  0.111103  0.135308  7.7e-05  1.001031  0.0
H  H19  1  0.99414197  0.18590095  0.63885447  1  0.118667  5.8e-05  0.937073  0.0  0.137689  6.4e-05  0.998469  0.0  0.140399  4.7e-05  0.995381  0.0  0.115319  4.2e-05  0.111093  0.135324  7.6e-05  1.001024  0.0
H  H20  1  0.68634800  0.86206010  0.14208584  1  0.345397  0.000223  0.902439  0.0  0.326666  0.000172  0.966314  0.0  0.336215  9.7e-05  0.957457  0.0  0.519291  0.000218  0.304937  0.319839  0.000225  0.972671  0.0
H  H21  1  0.31365253  0.63793628  0.64208584  1  0.345416  0.000224  0.902465  0.0  0.326684  0.000173  0.966332  0.0  0.336233  9.7e-05  0.957474  0.0  0.519278  0.000217  0.30494  0.319857  0.000225  0.97269  0.0
H  H22  1  0.31363597  0.13792278  0.85791175  1  0.345438  -0.000223  0.90237  0.0  0.326688  -0.000173  0.96625  0.0  0.33624  -9.7e-05  0.957391  0.0  0.519634  -0.000217  0.304939  0.319859  -0.000224  0.972609  0.0
H  H23  1  0.68635567  0.36206039  0.35791705  1  0.345321  -0.000223  0.902534  0.0  0.326636  -0.000173  0.966345  0.0  0.336186  -9.6e-05  0.957488  0.0  0.519449  -0.000218  0.304952  0.319808  -0.000226  0.972705  0.0
H  H24  1  0.93338049  0.95611917  0.15982754  1  0.349123  -0.0002  0.908128  0.0  0.332562  -8.5e-05  0.965388  0.0  0.341685  -8.9e-05  0.957546  0.0  0.514464  -0.000136  0.308122  0.325926  -7.4e-05  0.971245  0.0
H  H25  1  0.06661933  0.54388411  0.65982562  1  0.349147  -0.000199  0.908125  0.0  0.332593  -8.6e-05  0.965384  0.0  0.341716  -8.9e-05  0.95754  0.0  0.514497  -0.000136  0.30815  0.325957  -7.4e-05  0.971241  0.0
H  H26  1  0.06659890  0.04387336  0.84017342  1  0.349204  0.000199  0.907926  0.0  0.332579  8.6e-05  0.965305  0.0  0.341704  8.9e-05  0.95746  0.0  0.514394  0.000137  0.308105  0.325944  7.4e-05  0.971161  0.0
H  H27  1  0.93338947  0.45611670  0.34017631  1  0.349164  0.000199  0.9081  0.0  0.332604  8.6e-05  0.965375  0.0  0.34173  8.9e-05  0.957523  0.0  0.514454  0.000135  0.308158  0.325966  7.3e-05  0.971237  0.0
H  H28  1  0.46109689  0.86943139  0.04801532  1  0.08345  9.6e-05  0.960161  0.0  0.08556  0.000126  1.036108  0.0  0.088304  0.000109  1.032491  0.0  0.158306  0.000374  0.125686  0.083321  0.000131  1.038807  0.0
H  H29  1  0.53890053  0.63055534  0.54801725  1  0.083414  9.8e-05  0.960164  0.0  0.085521  0.000126  1.036119  0.0  0.08826  0.000109  1.032512  0.0  0.158343  0.000371  0.125676  0.083289  0.000129  1.038803  0.0
H  H30  1  0.53889781  0.13056941  0.95198372  1  0.083434  -9.3e-05  0.960149  0.0  0.085558  -0.000126  1.036081  0.0  0.088295  -0.000109  1.03248  0.0  0.158285  -0.000372  0.125674  0.083327  -0.000129  1.038759  0.0
H  H31  1  0.46110338  0.36942065  0.45198420  1  0.083417  -9.7e-05  0.960142  0.0  0.085624  -0.000126  1.035964  0.0  0.08835  -0.000109  1.032392  0.0  0.158315  -0.000376  0.12572  0.083393  -0.000132  1.038645  0.0
H  H32  1  0.66615199  0.26765248  0.08104485  1  0.387551  -0.000117  0.935286  0.0  0.349489  -0.000114  1.01275  0.0  0.361225  -6.9e-05  0.996186  0.0  0.630265  -0.00016  0.269551  0.341408  -0.000161  1.024115  0.0
H  H33  1  0.33385365  0.23234172  0.58104581  1  0.387581  -0.000117  0.935232  0.0  0.349523  -0.000114  1.012693  0.0  0.361259  -6.9e-05  0.996129  0.0  0.630317  -0.000161  0.269548  0.34144  -0.000163  1.02406  0.0
H  H34  1  0.33385291  0.73235384  0.91895804  1  0.387561  0.000117  0.935266  0.0  0.349507  0.000114  1.012719  0.0  0.361242  6.9e-05  0.996157  0.0  0.630018  0.000161  0.269565  0.341425  0.000162  1.024085  0.0
H  H35  1  0.66614885  0.76764806  0.41895660  1  0.387571  0.000116  0.935257  0.0  0.349518  0.000114  1.01271  0.0  0.361253  6.9e-05  0.996145  0.0  0.630257  0.00016  0.269569  0.341435  0.000161  1.024077  0.0
H  H36  1  0.67052067  0.32725705  0.15417939  1  0.413467  -2.1e-05  0.839487  0.0  0.403305  -3.4e-05  0.887288  0.0  0.413062  -2e-05  0.875363  0.0  0.61541  -7.5e-05  0.307604  0.396228  -4.2e-05  0.895514  0.0
H  H37  1  0.32948436  0.17273302  0.65417987  1  0.413489  -2.1e-05  0.839444  0.0  0.403329  -3.4e-05  0.887246  0.0  0.413086  -2e-05  0.875326  0.0  0.615483  -7.6e-05  0.307625  0.396251  -4.2e-05  0.895473  0.0
H  H38  1  0.32947204  0.67275065  0.84582302  1  0.413513  2.1e-05  0.839484  0.0  0.403354  3.3e-05  0.887275  0.0  0.41311  2e-05  0.875305  0.0  0.615232  7.6e-05  0.307655  0.396277  4.3e-05  0.895499  0.0
H  H39  1  0.67053608  0.82725676  0.34582205  1  0.413439  2.1e-05  0.839525  0.0  0.403284  3.3e-05  0.887306  0.0  0.41304  2e-05  0.875383  0.0  0.615182  7.3e-05  0.307604  0.396206  4e-05  0.895532  0.0
C  C40  1  0.38668878  0.73382645  0.22990510  1  0.535739  0.003985  3.857918  0.004  0.499742  0.001397  4.156312  0.002  0.534325  0.000992  4.154175  0.001  1.575914  0.002653  0.209888  0.474893  0.001843  4.160012  0.002
C  C41  1  0.61330280  0.76616718  0.72990462  1  0.535677  0.003981  3.858116  0.004  0.49966  0.001397  4.156503  0.002  0.534242  0.000994  4.154367  0.001  1.576033  0.002653  0.20984  0.474809  0.001845  4.160209  0.002
C  C42  1  0.61329835  0.26616057  0.77009249  1  0.53576  -0.003983  3.857897  -0.004  0.499713  -0.001397  4.156323  -0.002  0.534293  -0.000992  4.154191  -0.001  1.576166  -0.002651  0.209871  0.474864  -0.001844  4.160022  -0.002
C  C43  1  0.38670145  0.23384052  0.27009056  1  0.535705  -0.003984  3.857916  -0.004  0.499703  -0.001397  4.156282  -0.002  0.534284  -0.000993  4.15415  -0.001  1.576128  -0.002655  0.209862  0.474855  -0.001846  4.15998  -0.002
C  C44  1  0.20132443  0.71639375  0.26325449  1  0.520244  0.004973  3.940567  0.006  0.48316  0.000254  4.245484  0.001  0.513504  -5.2e-05  4.244992  0.001  1.59187  0.00274  0.198645  0.461552  0.000749  4.246176  0.002
C  C45  1  0.79866072  0.78360263  0.76325449  1  0.520151  0.004976  3.940646  0.006  0.483111  0.000254  4.245457  0.001  0.513454  -5.2e-05  4.24497  0.001  1.591981  0.002743  0.198667  0.461503  0.000749  4.246147  0.002
C  C46  1  0.79867286  0.28360430  0.73674743  1  0.520138  -0.004961  3.940758  -0.006  0.483079  -0.000254  4.245668  -0.001  0.513425  5.1e-05  4.245176  -0.001  1.592072  -0.002741  0.19861  0.461471  -0.00075  4.246359  -0.002
C  C47  1  0.20132760  0.21639542  0.23674647  1  0.520137  -0.004974  3.940675  -0.006  0.4831  -0.000254  4.245538  -0.001  0.513446  5.3e-05  4.245047  -0.001  1.591976  -0.002743  0.198611  0.461493  -0.000751  4.246227  -0.002
C  C48  1  0.72447445  0.67560210  0.97617034  1  0.273893  4e-05  3.6723  0.0  0.208048  -1.2e-05  3.956495  0.0  0.228693  6.7e-05  3.963973  0.0  1.102642  -0.0001  0.189659  0.194532  -6.6e-05  3.951161  0.0
C  C49  1  0.27552786  0.82440945  0.47617130  1  0.273845  2.5e-05  3.67236  0.0  0.207974  -1.1e-05  3.956559  0.0  0.228615  6.4e-05  3.96404  0.0  1.102437  -0.000106  0.189562  0.194459  -7e-05  3.951232  0.0
C  C50  1  0.27552279  0.32440147  0.02382485  1  0.273942  -2.8e-05  3.672369  0.0  0.2081  1.1e-05  3.95661  0.0  0.228745  -6.4e-05  3.964086  0.0  1.101531  0.000104  0.189576  0.194584  6.9e-05  3.951275  0.0
C  C51  1  0.72448408  0.17559825  0.52383352  1  0.274065  -5.7e-05  3.67219  0.0  0.208154  1.1e-05  3.956426  0.0  0.228796  -6.6e-05  3.9639  0.0  1.102618  9.9e-05  0.189686  0.194639  6.5e-05  3.951102  0.0
C  C52  1  0.89885491  0.58306941  0.89520979  1  -0.157744  0.000342  3.592576  0.0  -0.262781  0.000227  3.844722  0.0  -0.258378  0.000173  3.851121  0.0  0.252647  0.000349  -0.129256  -0.265413  0.00028  3.840622  0.0
C  C53  1  0.10115002  0.91693662  0.39520931  1  -0.158087  0.000346  3.592449  0.0  -0.263099  0.000228  3.844594  0.0  -0.258698  0.000173  3.850992  0.0  0.252757  0.000344  -0.12934  -0.265727  0.000277  3.840481  0.0
C  C54  1  0.10115447  0.41693829  0.10478828  1  -0.157925  -0.00034  3.59255  0.0  -0.262942  -0.000228  3.844713  0.0  -0.258538  -0.000174  3.851109  0.0  0.252133  -0.000346  -0.129309  -0.265592  -0.000278  3.840634  0.0
C  C55  1  0.89885941  0.08306556  0.60479455  1  -0.157941  -0.000333  3.592657  0.0  -0.263004  -0.000228  3.844734  0.0  -0.258607  -0.000173  3.851141  0.0  0.252597  -0.000349  -0.129351  -0.26563  -0.00028  3.840626  0.0
C  C56  1  0.04257699  0.75015055  0.99520497  1  0.267595  0.001853  3.837726  0.002  0.227986  0.001498  4.106715  0.002  0.242324  0.000988  4.124225  0.001  0.966692  0.002444  0.209698  0.218607  0.001745  4.094799  0.002
C  C57  1  0.95742470  0.74985962  0.49520786  1  0.267495  0.00183  3.83775  0.002  0.228082  0.001498  4.10657  0.002  0.242417  0.000985  4.124078  0.001  0.966967  0.002439  0.209727  0.218703  0.001741  4.094658  0.002
C  C58  1  0.95742085  0.24985715  0.00479021  1  0.267455  -0.001847  3.837739  -0.002  0.228041  -0.001499  4.106546  -0.002  0.242377  -0.000986  4.124054  -0.001  0.966407  -0.002441  0.209669  0.218665  -0.001742  4.094628  -0.002
C  C59  1  0.04258787  0.25014946  0.50479647  1  0.267685  -0.001846  3.837758  -0.002  0.22811  -0.001499  4.106622  -0.002  0.242439  -0.000986  4.124123  -0.001  0.966655  -0.002445  0.209714  0.21873  -0.001745  4.094711  -0.002
C  C60  1  0.03239205  0.82915680  0.05465148  1  -0.0625  0.002303  3.799106  0.002  -0.05465  0.002104  4.056294  0.002  -0.060082  0.001503  4.08075  0.001  0.405624  0.002428  0.073201  -0.051524  0.002374  4.041173  0.002
C  C61  1  0.96761656  0.67086578  0.55465581  1  -0.062401  0.002323  3.798865  0.002  -0.05467  0.002103  4.056204  0.002  -0.060104  0.001505  4.08066  0.001  0.405939  0.002425  0.073219  -0.051544  0.002373  4.041084  0.002
C  C62  1  0.96760000  0.17085228  0.94534322  1  -0.062407  -0.002315  3.799264  -0.002  -0.054629  -0.002105  4.05658  -0.002  -0.06006  -0.001504  4.081044  -0.001  0.406032  -0.002425  0.07323  -0.051508  -0.002373  4.041453  -0.002
C  C63  1  0.03240045  0.32914744  0.44534901  1  -0.062563  -0.002311  3.799315  -0.002  -0.05457  -0.002104  4.05636  -0.002  -0.05997  -0.001503  4.080776  -0.001  0.405803  -0.002431  0.073245  -0.051451  -0.002376  4.041235  -0.002
C  C64  1  0.85394246  0.82171244  0.07377138  1  0.462765  0.000238  3.85052  0.0  0.423969  0.000255  4.131388  0.0  0.447259  0.000283  4.140611  0.0  1.080094  0.000473  0.246608  0.408445  0.000236  4.124919  0.0
C  C65  1  0.14606937  0.67830876  0.57377475  1  0.462971  0.000239  3.850315  0.0  0.424112  0.000255  4.131358  0.0  0.447404  0.000282  4.140576  0.0  1.079941  0.000469  0.24667  0.408586  0.000233  4.124893  0.0
C  C66  1  0.14605158  0.17828975  0.92622477  1  0.462825  -0.000234  3.850444  0.0  0.423756  -0.000255  4.131744  0.0  0.447048  -0.000283  4.14097  0.0  1.080292  -0.00047  0.24655  0.408244  -0.000233  4.125256  0.0
C  C67  1  0.85394320  0.32170031  0.42623007  1  0.462936  -0.000236  3.850273  0.0  0.423906  -0.000256  4.131447  0.0  0.447186  -0.000283  4.140669  0.0  1.08041  -0.000475  0.246616  0.408401  -0.000237  4.124951  0.0
C  C68  1  0.31427374  0.84465774  0.03968447  1  0.247187  -0.005402  3.694912  -0.005  0.197132  -0.00152  3.982501  -0.002  0.213029  -0.002187  3.997077  -0.002  0.961806  -0.002106  0.13986  0.186872  -0.000987  3.97378  -0.001
C  C69  1  0.68572795  0.65535243  0.53968447  1  0.247255  -0.00542  3.694756  -0.005  0.197208  -0.00152  3.982351  -0.002  0.213105  -0.002188  3.996918  -0.002  0.961606  -0.00211  0.139917  0.186946  -0.00099  3.973638  -0.001
C  C70  1  0.68572345  0.15535134  0.96031504  1  0.247185  0.005384  3.694852  0.005  0.197115  0.00152  3.982431  0.002  0.213006  0.002188  3.997015  0.002  0.961716  0.002109  0.139889  0.186854  0.00099  3.973715  0.001
C  C71  1  0.31427706  0.34464286  0.46031456  1  0.247236  0.005401  3.694861  0.005  0.197071  0.001519  3.982482  0.002  0.21296  0.002189  3.997064  0.002  0.961527  0.002104  0.139839  0.186807  0.000986  3.973768  0.001
N  N72  1  0.70414795  0.74411261  0.03152464  1  -0.445642  -0.000469  3.01574  -0.001  -0.409215  -0.000276  3.303041  0.0  -0.429675  -0.000286  3.312138  0.0  -1.227731  -0.000401  -0.329328  -0.395616  -0.000253  3.296701  0.0
N  N73  1  0.29585302  0.75590446  0.53152705  1  -0.445705  -0.000468  3.015885  -0.001  -0.409223  -0.000275  3.3032  0.0  -0.429682  -0.000285  3.312294  0.0  -1.227588  -0.00041  -0.329262  -0.395629  -0.000257  3.296865  0.0
N  N74  1  0.29584421  0.25588544  0.96847102  1  -0.445605  0.00046  3.015927  0.001  -0.409069  0.000276  3.303329  0.0  -0.429527  0.000285  3.312423  0.0  -1.227076  0.000408  -0.329168  -0.395477  0.000256  3.296986  0.0
N  N75  1  0.70415573  0.24410186  0.46847729  1  -0.445752  0.000478  3.015839  0.001  -0.409244  0.000276  3.30323  0.0  -0.429702  0.000285  3.312333  0.0  -1.227734  0.000397  -0.329343  -0.395656  0.000251  3.296885  0.0
N  N76  1  0.88760919  0.67207916  0.95527675  1  -0.094513  0.000295  3.539877  0.0  -0.000885  0.000215  3.769795  0.0  -0.019368  0.000132  3.79304  0.0  -1.260458  0.000528  -0.230223  0.011175  0.000258  3.753891  0.0
N  N77  1  0.11239435  0.82793791  0.45527964  1  -0.09441  0.00031  3.539692  0.0  -0.000841  0.000214  3.769574  0.0  -0.01932  0.000135  3.792818  0.0  -1.260237  0.000521  -0.230205  0.011217  0.000255  3.753674  0.0
N  N78  1  0.11239307  0.32793544  0.04471795  1  -0.094546  -0.000305  3.539896  0.0  -0.000937  -0.000215  3.769761  0.0  -0.019419  -0.000134  3.793006  0.0  -1.259622  -0.000523  -0.230196  0.011122  -0.000256  3.753855  0.0
N  N79  1  0.88761950  0.17207117  0.54472566  1  -0.094719  -0.000298  3.540004  0.0  -0.001119  -0.000214  3.769962  0.0  -0.019601  -0.000133  3.793207  0.0  -1.260136  -0.000529  -0.230287  0.010941  -0.000258  3.75406  0.0
N  N80  1  0.82163270  0.88331771  0.12957994  1  -0.605468  0.001038  3.088038  0.001  -0.564594  0.000396  3.312361  0.001  -0.585269  0.00031  3.305138  0.0  -1.28697  0.000758  -0.545421  -0.550838  0.000442  3.317654  0.001
N  N81  1  0.17837094  0.61668833  0.62957946  1  -0.605593  0.001031  3.088037  0.001  -0.564716  0.000397  3.312449  0.001  -0.58539  0.000309  3.305221  0.0  -1.287003  0.000753  -0.545515  -0.550963  0.00044  3.317749  0.001
N  N82  1  0.17835378  0.11667069  0.87041861  1  -0.605596  -0.00103  3.087752  -0.001  -0.564568  -0.000397  3.312199  -0.001  -0.585251  -0.000309  3.304978  0.0  -1.287468  -0.000753  -0.545443  -0.550818  -0.00044  3.317486  -0.001
N  N83  1  0.82163783  0.38331524  0.37042391  1  -0.605431  -0.001037  3.088039  -0.001  -0.564568  -0.000396  3.312482  -0.001  -0.585242  -0.00031  3.305263  0.0  -1.287128  -0.000764  -0.545451  -0.550821  -0.000444  3.317767  -0.001
N  N84  1  0.21188619  0.89000371  0.08247796  1  -0.407544  0.06782  3.282124  0.084  -0.3766  0.046819  3.60292  0.062  -0.412549  0.039161  3.622681  0.054  -1.185802  0.072727  -0.384511  -0.357089  0.048508  3.591725  0.061
N  N85  1  0.78811421  0.61000646  0.58247941  1  -0.407625  0.067832  3.281956  0.084  -0.376667  0.046821  3.602815  0.062  -0.412609  0.039162  3.622571  0.054  -1.185434  0.072724  -0.384545  -0.357152  0.048507  3.591623  0.061
N  N86  1  0.78810655  0.11000123  0.91752011  1  -0.407504  -0.067811  3.282458  -0.084  -0.376437  -0.046817  3.603211  -0.062  -0.412398  -0.03916  3.622976  -0.054  -1.185853  -0.072725  -0.384419  -0.356934  -0.048509  3.592028  -0.061
N  N87  1  0.21189137  0.38999572  0.41752252  1  -0.407632  -0.067808  3.282383  -0.084  -0.376621  -0.046812  3.603106  -0.062  -0.412585  -0.039157  3.622861  -0.054  -1.185492  -0.072728  -0.38449  -0.357112  -0.048509  3.591917  -0.061
N  N88  1  0.21817707  0.75941637  0.98570644  1  -0.448627  0.006292  3.037725  0.008  -0.392563  0.003013  3.297492  0.004  -0.411792  0.001889  3.308713  0.003  -1.219143  0.006294  -0.33865  -0.379908  0.003882  3.28977  0.005
N  N89  1  0.78182655  0.74059242  0.48570837  1  -0.448584  0.006302  3.03759  0.008  -0.392576  0.003013  3.29732  0.004  -0.411802  0.001889  3.308537  0.003  -1.219892  0.006283  -0.338675  -0.379923  0.003878  3.289608  0.005
N  N90  1  0.78182393  0.24059547  0.01429067  1  -0.448587  -0.006284  3.03763  -0.008  -0.392599  -0.003012  3.29738  -0.004  -0.411824  -0.001889  3.308601  -0.003  -1.219345  -0.006285  -0.338695  -0.379944  -0.003879  3.289659  -0.005
N  N91  1  0.21818479  0.25941114  0.51429260  1  -0.448661  -0.006291  3.037557  -0.008  -0.392596  -0.003012  3.297337  -0.004  -0.41182  -0.001889  3.30856  -0.003  -1.219442  -0.006294  -0.338694  -0.379944  -0.003882  3.289624  -0.005
O  O92  1  0.44950200  0.83384349  0.18001493  1  -0.548318  0.042272  2.117079  0.056  -0.516568  0.033793  2.376987  0.049  -0.558763  0.028393  2.366809  0.044  -1.129642  0.051405  -0.294821  -0.488245  0.033514  2.383071  0.047
O  O93  1  0.55048961  0.66614738  0.68001445  1  -0.548325  0.042284  2.116987  0.056  -0.516564  0.033798  2.376882  0.049  -0.558751  0.028396  2.366702  0.044  -1.129783  0.051409  -0.294856  -0.488241  0.033517  2.382975  0.047
O  O94  1  0.55046800  0.16612561  0.81997880  1  -0.548419  -0.042281  2.116948  -0.056  -0.516573  -0.033798  2.376834  -0.049  -0.558774  -0.028397  2.366649  -0.044  -1.129717  -0.05141  -0.29492  -0.488255  -0.033518  2.382923  -0.047
O  O95  1  0.44952097  0.33386859  0.31997880  1  -0.548273  -0.04228  2.116896  -0.056  -0.516502  -0.033796  2.376802  -0.049  -0.558703  -0.028396  2.366622  -0.044  -1.129681  -0.051417  -0.294867  -0.488183  -0.033521  2.382891  -0.047
O  O96  1  0.46524127  0.64042371  0.25438220  1  -0.523378  -0.078862  2.048163  -0.104  -0.502382  -0.050107  2.298709  -0.073  -0.546109  -0.037742  2.291499  -0.058  -1.099777  -0.086824  -0.303427  -0.473952  -0.05648  2.30321  -0.079
O  O97  1  0.53473697  0.85955751  0.75438171  1  -0.523332  -0.078852  2.048237  -0.104  -0.502338  -0.0501  2.298779  -0.073  -0.546064  -0.037738  2.291569  -0.058  -1.099801  -0.086807  -0.30341  -0.473914  -0.05647  2.303284  -0.079
O  O98  1  0.53474464  0.35955779  0.74561443  1  -0.523358  0.07884  2.048335  0.104  -0.502373  0.050096  2.298894  0.073  -0.54608  0.037733  2.29169  0.058  -1.100008  0.086797  -0.303359  -0.473944  0.056463  2.3034  0.078
O  O99  1  0.46525833  0.14044744  0.24561251  1  -0.523343  0.078844  2.048262  0.104  -0.502366  0.050098  2.298791  0.073  -0.546077  0.037734  2.29158  0.058  -1.100005  0.086796  -0.303374  -0.473941  0.056463  2.303295  0.078
O  O100  1  0.16965886  0.63610242  0.31872007  1  -0.575539  -0.074614  2.154445  -0.102  -0.548655  -0.049751  2.427696  -0.074  -0.594953  -0.037396  2.422469  -0.058  -1.117797  -0.085105  -0.316348  -0.518074  -0.054831  2.429992  -0.078
O  O101  1  0.83033147  0.86388845  0.81872248  1  -0.57557  -0.074619  2.154575  -0.102  -0.548626  -0.049754  2.427745  -0.074  -0.594927  -0.037399  2.422521  -0.058  -1.117946  -0.085101  -0.31634  -0.518044  -0.054831  2.430038  -0.078
O  O102  1  0.83035761  0.36390114  0.68128137  1  -0.575467  0.07461  2.154382  0.102  -0.548647  0.049751  2.42765  0.074  -0.594932  0.037395  2.422429  0.058  -1.117743  0.085097  -0.316331  -0.518061  0.054824  2.429949  0.078
O  O103  1  0.16964410  0.13610133  0.18127993  1  -0.575466  0.074624  2.154452  0.102  -0.548656  0.049756  2.427704  0.074  -0.59495  0.0374  2.422485  0.058  -1.117751  0.085109  -0.316347  -0.518072  0.054832  2.430001  0.078
O  O104  1  0.09693011  0.77565085  0.23667277  1  -0.529692  -0.032538  1.965375  -0.041  -0.516686  -0.013343  2.192408  -0.018  -0.54535  -0.006394  2.18478  -0.009  -1.133345  -0.035902  -0.303567  -0.494229  -0.023057  2.195167  -0.031
O  O105  1  0.90305185  0.72434415  0.73667132  1  -0.529606  -0.032537  1.965202  -0.041  -0.516617  -0.013342  2.192216  -0.018  -0.545278  -0.006394  2.184594  -0.009  -1.133227  -0.035898  -0.303533  -0.494158  -0.023055  2.194971  -0.031
O  O106  1  0.90305128  0.22433479  0.76333205  1  -0.529643  0.032533  1.965596  0.041  -0.516619  0.013343  2.192631  0.018  -0.545289  0.006395  2.185001  0.009  -1.133509  0.0359  -0.303519  -0.494163  0.023057  2.195386  0.031
O  O107  1  0.09694413  0.27565665  0.26333205  1  -0.529645  0.032544  1.96541  0.041  -0.516624  0.013345  2.192421  0.018  -0.5453  0.006395  2.1848  0.009  -1.133408  0.035901  -0.303523  -0.494167  0.023058  2.195176  0.031
O  O108  1  0.58505797  0.27503480  0.11779373  1  -0.833956  -0.001361  1.853748  -0.001  -0.80105  -0.000599  2.038955  0.0  -0.823659  -0.000668  2.003455  0.0  -1.259238  -0.00165  -0.594544  -0.785641  -0.001004  2.061853  0.0
O  O109  1  0.41494957  0.22496078  0.61779469  1  -0.834001  -0.001362  1.853712  -0.001  -0.801109  -0.0006  2.038902  0.0  -0.823711  -0.000668  2.003407  0.0  -1.259396  -0.00166  -0.594559  -0.785698  -0.001009  2.061803  0.0
O  O110  1  0.41494062  0.72496049  0.88220820  1  -0.834023  0.001362  1.853786  0.001  -0.801118  0.000602  2.03899  0.0  -0.823733  0.000669  2.003442  0.0  -1.25884  0.001661  -0.594598  -0.785708  0.00101  2.061889  0.0
O  O111  1  0.58506059  0.77503175  0.38220483  1  -0.833962  0.001364  1.853782  0.001  -0.801073  0.000601  2.039004  0.0  -0.823687  0.000669  2.003502  0.0  -1.259008  0.001646  -0.594566  -0.785666  0.001003  2.061902  0.0
