# generated using pymatgen
data_ZnH10C14N3O4
_symmetry_space_group_name_H-M   'P 1'
_cell_length_a   6.77038956
_cell_length_b   7.74646820
_cell_length_c   13.22688668
_cell_angle_alpha   73.45348949
_cell_angle_beta   86.21082048
_cell_angle_gamma   87.37314627
_symmetry_Int_Tables_number   1
_chemical_formula_structural   ZnH10C14N3O4
_chemical_formula_sum   'Zn2 H20 C28 N6 O8'
_cell_volume   663.25993008
_cell_formula_units_Z   2
loop_
 _symmetry_equiv_pos_site_id
 _symmetry_equiv_pos_as_xyz
  1  'x, y, z'
loop_
 _atom_site_type_symbol
 _atom_site_label
 _atom_site_symmetry_multiplicity
 _atom_site_fract_x
 _atom_site_fract_y
 _atom_site_fract_z
 _atom_site_occupancy
 _atom_site_hle17_bader_spin_density
 _atom_site_hle17_ddec_charge
 _atom_site_hle17_ddec_spin_density
 _atom_site_hle17_ddec_sum_bond_order
 _atom_site_hle17_magmom
 _atom_site_hse06_10hf_bader_spin_density
 _atom_site_hse06_10hf_ddec_charge
 _atom_site_hse06_10hf_ddec_spin_density
 _atom_site_hse06_10hf_ddec_sum_bond_order
 _atom_site_hse06_10hf_magmom
 _atom_site_hse06_bader_spin_density
 _atom_site_hse06_ddec_charge
 _atom_site_hse06_ddec_spin_density
 _atom_site_hse06_ddec_sum_bond_order
 _atom_site_hse06_magmom
 _atom_site_pbe_bader_spin_density
 _atom_site_pbe_cm5_charge
 _atom_site_pbe_ddec_charge
 _atom_site_pbe_ddec_spin_density
 _atom_site_pbe_ddec_sum_bond_order
 _atom_site_pbe_magmom
Zn  Zn0  1  0.39515690  0.39011202  0.13833351  1  0  1.075256  0  1.816517  0  0  0.894365  0  2.297106  0  0  0.942537  0  2.237039  0  0  0.701963  0.860602  0  2.33844  0
Zn  Zn1  1  0.60484626  0.60988469  0.86166383  1  0  1.07531  0  1.816436  0  0  0.894448  0  2.296948  0  0  0.94262  0  2.236882  0  0  0.702007  0.860685  0  2.33829  0
H  H2  1  0.86158581  0.45897079  0.20032740  1  0  0.132314  0  0.916314  0  0  0.142022  0  0.974525  0  0  0.145413  0  0.970522  0  0  0.151949  0.139411  0  0.977591  0
H  H3  1  0.13841437  0.54102990  0.79967320  1  0  0.132316  0  0.91637  0  0  0.142082  0  0.974508  0  0  0.145476  0  0.970499  0  0  0.151953  0.139467  0  0.977578  0
H  H4  1  0.57267462  0.91749070  0.26391642  1  0  0.131382  0  0.939296  0  0  0.138342  0  1.001947  0  0  0.141598  0  0.998461  0  0  0.144035  0.135893  0  1.004544  0
H  H5  1  0.42731065  0.08250999  0.73608103  1  0  0.131365  0  0.939519  0  0  0.138404  0  1.002059  0  0  0.141661  0  0.998576  0  0  0.144068  0.135955  0  1.004659  0
H  H6  1  0.94902637  0.88057895  0.28670747  1  0  0.09795  0  0.916162  0  0  0.114941  0  0.97179  0  0  0.115205  0  0.972681  0  0  0.11974  0.114666  0  0.971242  0
H  H7  1  0.05096768  0.11942446  0.71328916  1  0  0.097968  0  0.916154  0  0  0.114953  0  0.971778  0  0  0.115217  0  0.972666  0  0  0.119753  0.114675  0  0.971229  0
H  H8  1  0.08560434  0.72198236  0.23415811  1  0  0.101019  0  0.936546  0  0  0.107434  0  1.010902  0  0  0.109003  0  1.009543  0  0  0.116773  0.106177  0  1.012028  0
H  H9  1  0.91438709  0.27801559  0.76584406  1  0  0.100951  0  0.936566  0  0  0.107381  0  1.010911  0  0  0.108951  0  1.009551  0  0  0.116745  0.106124  0  1.012039  0
H  H10  1  0.28038227  0.53200011  0.36588454  1  0  0.091441  0  0.979107  0  0  0.099605  0  1.04348  0  0  0.102135  0  1.043074  0  0  0.098354  0.097808  0  1.043826  0
H  H11  1  0.71959996  0.46800724  0.63411724  1  0  0.091456  0  0.97912  0  0  0.099636  0  1.04349  0  0  0.102168  0  1.043082  0  0  0.098351  0.097839  0  1.043841  0
H  H12  1  0.68384902  0.67144546  0.45410587  1  0  0.089607  0  0.947908  0  0  0.104252  0  1.004064  0  0  0.10665  0  1.003389  0  0  0.101172  0.102469  0  1.004697  0
H  H13  1  0.31613928  0.32855919  0.54589761  1  0  0.089601  0  0.947844  0  0  0.104265  0  1.003981  0  0  0.106663  0  1.003309  0  0  0.101172  0.102505  0  1.004585  0
H  H14  1  0.36153566  0.93060274  0.49417172  1  0  0.100315  0  0.961755  0  0  0.107871  0  1.027567  0  0  0.11166  0  1.024668  0  0  0.101885  0.105042  0  1.029906  0
H  H15  1  0.63847634  0.06940330  0.50583280  1  0  0.100351  0  0.961787  0  0  0.107915  0  1.027584  0  0  0.111703  0  1.024687  0  0  0.101915  0.105086  0  1.029925  0
H  H16  1  0.15295547  0.78636872  0.65428205  1  0  0.093909  0  0.962327  0  0  0.101792  0  1.029856  0  0  0.10497  0  1.02762  0  0  0.100088  0.0995  0  1.031505  0
H  H17  1  0.84705506  0.21363732  0.34572253  1  0  0.093803  0  0.962467  0  0  0.101698  0  1.02999  0  0  0.104933  0  1.027686  0  0  0.100037  0.099404  0  1.031634  0
H  H18  1  0.89066073  0.70555087  0.98624980  1  0  0.10806  0  0.974786  0  0  0.115757  0  1.042312  0  0  0.119175  0  1.039773  0  0  0.101688  0.113221  0  1.044304  0
H  H19  1  0.10934423  0.29444173  0.01375343  1  0  0.108083  0  0.974761  0  0  0.115794  0  1.042268  0  0  0.119204  0  1.039741  0  0  0.101703  0.113259  0  1.044257  0
H  H20  1  0.64083585  0.94530902  0.00094451  1  0  0.102712  0  0.981059  0  0  0.109244  0  1.049587  0  0  0.112252  0  1.048238  0  0  0.101408  0.107031  0  1.050702  0
H  H21  1  0.35916450  0.05468629  0.99905620  1  0  0.102669  0  0.981161  0  0  0.109205  0  1.049678  0  0  0.112212  0  1.048329  0  0  0.101409  0.106993  0  1.050792  0
C  C22  1  0.74640850  0.55799898  0.20796728  1  0  0.18394  0  3.590537  0  0  0.119743  0  3.856514  0  0  0.133769  0  3.868095  0  0  0.174551  0.110659  0  3.848551  0
C  C23  1  0.25358417  0.44200439  0.79203244  1  0  0.183885  0  3.590355  0  0  0.119639  0  3.856345  0  0  0.133667  0  3.867917  0  0  0.174519  0.110554  0  3.848386  0
C  C24  1  0.59848491  0.79413166  0.24021461  1  0  0.150292  0  3.615505  0  0  0.092794  0  3.891521  0  0  0.104341  0  3.902254  0  0  0.163558  0.085333  0  3.884191  0
C  C25  1  0.40150493  0.20586367  0.75978200  1  0  0.150153  0  3.615748  0  0  0.092588  0  3.891758  0  0  0.104132  0  3.902498  0  0  0.163513  0.085123  0  3.884439  0
C  C26  1  0.95888975  0.73844610  0.28712594  1  0  -0.039185  0  3.617553  0  0  -0.104639  0  3.863704  0  0  -0.099915  0  3.873966  0  0  -0.039576  -0.107643  0  3.856707  0
C  C27  1  0.04109996  0.26155726  0.71287391  1  0  -0.039135  0  3.617604  0  0  -0.104571  0  3.863731  0  0  -0.099842  0  3.87399  0  0  -0.039566  -0.10757  0  3.856731  0
C  C28  1  0.98044232  0.61539521  0.39757258  1  0  0.064792  0  3.748891  0  0  0.083669  0  3.991279  0  0  0.082196  0  4.016881  0  0  -0.01295  0.084646  0  3.973914  0
C  C29  1  0.01954444  0.38461079  0.60242999  1  0  0.064622  0  3.748775  0  0  0.083444  0  3.991259  0  0  0.081967  0  4.016863  0  0  -0.01303  0.084421  0  3.973894  0
C  C30  1  0.15789863  0.51890122  0.42496405  1  0  -0.103973  0  3.751272  0  0  -0.121754  0  3.997968  0  0  -0.124833  0  4.020733  0  0  -0.090217  -0.119625  0  3.982526  0
C  C31  1  0.84209103  0.48110482  0.57503688  1  0  -0.103937  0  3.751084  0  0  -0.121715  0  3.997796  0  0  -0.124794  0  4.020563  0  0  -0.090169  -0.119586  0  3.982352  0
C  C32  1  0.82272157  0.59541874  0.47350565  1  0  -0.108532  0  3.754479  0  0  -0.131319  0  4.003792  0  0  -0.133904  0  4.026678  0  0  -0.092649  -0.129467  0  3.988268  0
C  C33  1  0.17726788  0.40459137  0.52649236  1  0  -0.108545  0  3.754409  0  0  -0.131335  0  4.003767  0  0  -0.13392  0  4.026653  0  0  -0.092656  -0.1295  0  3.98823  0
C  C34  1  0.25072286  0.17347838  0.31567755  1  0  0.625964  0  3.91924  0  0  0.581441  0  4.204037  0  0  0.615461  0  4.197481  0  0  0.197457  0.558412  0  4.207532  0
C  C35  1  0.74928636  0.82651696  0.68432278  1  0  0.625967  0  3.918916  0  0  0.581418  0  4.203748  0  0  0.615437  0  4.19719  0  0  0.197581  0.558381  0  4.207255  0
C  C36  1  0.11884957  0.08166940  0.40923683  1  0  -0.063338  0  3.759492  0  0  -0.039889  0  3.988779  0  0  -0.047022  0  4.011929  0  0  -0.017273  -0.035149  0  3.97307  0
C  C37  1  0.88116401  0.91833262  0.59076677  1  0  -0.063357  0  3.7596  0  0  -0.03984  0  3.988797  0  0  -0.046968  0  4.011925  0  0  -0.017301  -0.035101  0  3.973088  0
C  C38  1  0.20291079  0.96017164  0.49681687  1  0  -0.071029  0  3.726404  0  0  -0.094345  0  3.977232  0  0  -0.095411  0  3.997303  0  0  -0.083053  -0.093516  0  3.963671  0
C  C39  1  0.79709986  0.03983169  0.50318891  1  0  -0.071022  0  3.726365  0  0  -0.094359  0  3.977184  0  0  -0.095427  0  3.997275  0  0  -0.082999  -0.093526  0  3.96362  0
C  C40  1  0.08563746  0.87986113  0.58684006  1  0  -0.068029  0  3.729847  0  0  -0.093204  0  3.983548  0  0  -0.093526  0  4.0037  0  0  -0.084473  -0.092828  0  3.969819  0
C  C41  1  0.91437456  0.12014358  0.41316392  1  0  -0.067976  0  3.729793  0  0  -0.093149  0  3.983535  0  0  -0.093516  0  4.00365  0  0  -0.084477  -0.092777  0  3.969823  0
C  C42  1  0.28456068  0.72332557  0.98009365  1  0  0.677558  0  3.869702  0  0  0.620575  0  4.163444  0  0  0.656838  0  4.153161  0  0  0.22392  0.595814  0  4.169823  0
C  C43  1  0.71544239  0.27667383  0.01990326  1  0  0.67759  0  3.869836  0  0  0.620615  0  4.163561  0  0  0.656871  0  4.15329  0  0  0.223964  0.595851  0  4.16994  0
C  C44  1  0.13848757  0.86681359  0.99066456  1  0  -0.064741  0  3.773047  0  0  -0.039761  0  4.004793  0  0  -0.046984  0  4.026347  0  0  -0.017657  -0.035015  0  3.990309  0
C  C45  1  0.86151560  0.13318577  0.00933538  1  0  -0.064668  0  3.77287  0  0  -0.039696  0  4.004631  0  0  -0.046917  0  4.026185  0  0  -0.017667  -0.034963  0  3.990163  0
C  C46  1  0.93626590  0.83500768  0.99233255  1  0  -0.079251  0  3.72728  0  0  -0.102984  0  3.97582  0  0  -0.10357  0  3.995302  0  0  -0.089909  -0.10253  0  3.962771  0
C  C47  1  0.06374043  0.16498629  0.00766888  1  0  -0.079308  0  3.72713  0  0  -0.103058  0  3.975705  0  0  -0.103641  0  3.995188  0  0  -0.089906  -0.102611  0  3.962673  0
C  C48  1  0.79774021  0.96830004  0.00158768  1  0  -0.07048  0  3.732294  0  0  -0.099212  0  3.988781  0  0  -0.099266  0  4.008151  0  0  -0.089384  -0.099122  0  3.975792  0
C  C49  1  0.20226606  0.03169662  0.99841408  1  0  -0.070346  0  3.732295  0  0  -0.099073  0  3.988753  0  0  -0.099124  0  4.008122  0  0  -0.089349  -0.098985  0  3.975757  0
N  N50  1  0.55886541  0.56297915  0.18395478  1  0  -0.294624  0  3.268688  0  0  -0.223119  0  3.582561  0  0  -0.241574  0  3.595369  0  0  -0.245904  -0.210738  0  3.573838  0
N  N51  1  0.44113475  0.43702022  0.81604376  1  0  -0.29465  0  3.268442  0  0  -0.223154  0  3.582335  0  0  -0.241604  0  3.595137  0  0  -0.245933  -0.210769  0  3.573609  0
N  N52  1  0.46401938  0.71236133  0.20401914  1  0  -0.226022  0  2.92898  0  0  -0.204544  0  3.211199  0  0  -0.213156  0  3.226506  0  0  -0.221866  -0.198757  0  3.200892  0
N  N53  1  0.53597483  0.28763671  0.79597761  1  0  -0.225965  0  2.928845  0  0  -0.204484  0  3.211088  0  0  -0.213095  0  3.226394  0  0  -0.221849  -0.198696  0  3.200783  0
N  N54  1  0.77643183  0.70170212  0.24391724  1  0  -0.083582  0  3.551337  0  0  0.010268  0  3.773875  0  0  -0.006769  0  3.798998  0  0  -0.22664  0.021484  0  3.756634  0
N  N55  1  0.22355943  0.29829856  0.75608222  1  0  -0.083366  0  3.551323  0  0  0.010465  0  3.773918  0  0  -0.006572  0  3.799047  0  0  -0.226582  0.021677  0  3.756676  0
O  O56  1  0.16718174  0.28732987  0.23638090  1  0  -0.653913  0  1.988944  0  0  -0.581984  0  2.251905  0  0  -0.611952  0  2.238069  0  0  -0.334755  -0.56085  0  2.26051  0
O  O57  1  0.83282897  0.71266680  0.76362066  1  0  -0.653893  0  1.988752  0  0  -0.581951  0  2.251691  0  0  -0.611935  0  2.23789  0  0  -0.334761  -0.560814  0  2.260301  0
O  O58  1  0.43487467  0.14345044  0.31585590  1  0  -0.621089  0  1.915364  0  0  -0.571606  0  2.137468  0  0  -0.595726  0  2.128685  0  0  -0.322101  -0.554671  0  2.142904  0
O  O59  1  0.56513484  0.85653548  0.68414444  1  0  -0.621133  0  1.915309  0  0  -0.571691  0  2.137464  0  0  -0.595809  0  2.128683  0  0  -0.322227  -0.554753  0  2.142904  0
O  O60  1  0.23942360  0.55967638  0.02337775  1  0  -0.651561  0  2.075835  0  0  -0.584134  0  2.357238  0  0  -0.610266  0  2.339012  0  0  -0.322568  -0.56587  0  2.369207  0
O  O61  1  0.76058400  0.44032167  0.97662070  1  0  -0.651576  0  2.075771  0  0  -0.584144  0  2.357154  0  0  -0.610272  0  2.338929  0  0  -0.322571  -0.56587  0  2.369104  0
O  O62  1  0.44567340  0.77472468  0.92581745  1  0  -0.627209  0  2.088982  0  0  -0.551693  0  2.36468  0  0  -0.579409  0  2.347736  0  0  -0.307612  -0.532441  0  2.37576  0
O  O63  1  0.55432950  0.22527744  0.07417675  1  0  -0.62716  0  2.08906  0  0  -0.551657  0  2.364755  0  0  -0.579369  0  2.347816  0  0  -0.3076  -0.532421  0  2.375884  0
