# generated using pymatgen
data_CuH12C15NO4F
_symmetry_space_group_name_H-M   'P 1'
_cell_length_a   10.37822289
_cell_length_b   10.53055564
_cell_length_c   15.23305782
_cell_angle_alpha   107.23502494
_cell_angle_beta   89.99984404
_cell_angle_gamma   90.00006279
_symmetry_Int_Tables_number   1
_chemical_formula_structural   CuH12C15NO4F
_chemical_formula_sum   'Cu4 H48 C60 N4 O16 F4'
_cell_volume   1590.04363222
_cell_formula_units_Z   4
loop_
 _symmetry_equiv_pos_site_id
 _symmetry_equiv_pos_as_xyz
  1  'x, y, z'
loop_
 _atom_site_type_symbol
 _atom_site_label
 _atom_site_symmetry_multiplicity
 _atom_site_fract_x
 _atom_site_fract_y
 _atom_site_fract_z
 _atom_site_occupancy
 _atom_site_pbe_bader_charge
 _atom_site_pbe_bader_spin_density
 _atom_site_pbe_cm5_charge
 _atom_site_pbe_ddec_charge
 _atom_site_pbe_ddec_spin_density
 _atom_site_pbe_ddec_sum_bond_order
 _atom_site_pbe_magmom
Cu  Cu0  1  0.08928843  0.91184547  0.48968342  1  1.079085  0.58004  0.693213  0.768601  0.735515  2.398192  0.581
Cu  Cu1  1  0.58928782  0.08815251  0.01031850  1  1.077959  0.57997  0.693154  0.768444  0.735484  2.398352  0.581
Cu  Cu2  1  0.91071082  0.08814310  0.51031639  1  1.07792  0.579966  0.693211  0.768606  0.735493  2.398391  0.581
Cu  Cu3  1  0.41071047  0.91185198  0.98968388  1  1.079075  0.580037  0.693291  0.768756  0.735518  2.397919  0.581
H  H4  1  0.81303347  0.59335370  0.52469278  1  0.110371  0.000268  0.107733  0.111322  0.000172  1.012756  0.0
H  H5  1  0.31301333  0.40664930  0.97530862  1  0.110512  0.000268  0.107816  0.111454  0.000173  1.012706  0.0
H  H6  1  0.18698505  0.40665183  0.47532097  1  0.110542  0.000269  0.107731  0.111295  0.000173  1.012783  0.0
H  H7  1  0.68698110  0.59336009  0.02468294  1  0.110592  0.000268  0.107747  0.111287  0.000172  1.012796  0.0
H  H8  1  0.73416331  0.96314212  0.73143740  1  0.135204  0.000457  0.113819  0.124236  0.000334  1.006532  0.0
H  H9  1  0.23415899  0.03685293  0.76856713  1  0.135124  0.000457  0.113811  0.124234  0.000334  1.006571  0.0
H  H10  1  0.26584846  0.03686238  0.26856826  1  0.13524  0.000456  0.113848  0.124281  0.000334  1.00654  0.0
H  H11  1  0.76584315  0.96314461  0.23143713  1  0.135203  0.000457  0.113824  0.124262  0.000334  1.006474  0.0
H  H12  1  0.85611194  0.38609418  0.56445926  1  0.105383  -9.7e-05  0.122602  0.10093  -0.000113  0.981537  0.0
H  H13  1  0.35609797  0.61389000  0.93555006  1  0.104988  -9.7e-05  0.122554  0.100805  -0.000113  0.981725  0.0
H  H14  1  0.14389791  0.61390640  0.43555743  1  0.10523  -9.7e-05  0.122558  0.100805  -0.000113  0.981661  0.0
H  H15  1  0.64389357  0.38609855  0.06444383  1  0.105442  -9.7e-05  0.122581  0.100837  -0.000113  0.981641  0.0
H  H16  1  0.55025201  0.60539656  0.74772302  1  0.104171  0.000382  0.108354  0.111743  0.000301  1.01502  0.0
H  H17  1  0.05024527  0.39459341  0.75227097  1  0.104132  0.000383  0.108364  0.111772  0.000301  1.015055  0.0
H  H18  1  0.44974724  0.39461091  0.25228062  1  0.104125  0.000383  0.108349  0.111734  0.000301  1.015036  0.0
H  H19  1  0.94974626  0.60539312  0.24771792  1  0.104231  0.000382  0.108381  0.111759  0.000301  1.015053  0.0
H  H20  1  0.44532864  0.44445347  0.61107343  1  0.114516  2e-06  0.118238  0.140084  -2.1e-05  1.002461  0.0
H  H21  1  0.94531355  0.55554660  0.88893041  1  0.114889  2e-06  0.118198  0.140015  -2.1e-05  1.002382  0.0
H  H22  1  0.55467928  0.55554009  0.38893067  1  0.114882  2e-06  0.118216  0.140048  -2.1e-05  1.002386  0.0
H  H23  1  0.05467606  0.44444991  0.11106707  1  0.114891  2e-06  0.118219  0.140065  -2.1e-05  1.00246  0.0
H  H24  1  0.61548207  0.05718868  0.49129819  1  0.100554  -9.5e-05  0.122454  0.116637  -8.6e-05  1.005254  0.0
H  H25  1  0.11548079  0.94280334  0.00870116  1  0.10064  -9.5e-05  0.122483  0.116667  -8.6e-05  1.005179  0.0
H  H26  1  0.38452778  0.94280979  0.50869246  1  0.100527  -9.5e-05  0.122462  0.116656  -8.6e-05  1.005273  0.0
H  H27  1  0.88451942  0.05718726  0.99130431  1  0.100526  -9.5e-05  0.122434  0.116639  -8.6e-05  1.005186  0.0
H  H28  1  0.94403688  0.26857062  0.30796111  1  0.043066  5.2e-05  0.076835  0.106035  5.6e-05  1.020499  0.0
H  H29  1  0.44404523  0.73142636  0.19201763  1  0.042939  5.2e-05  0.07681  0.105984  5.6e-05  1.020558  0.0
H  H30  1  0.05594888  0.73143181  0.69202772  1  0.042904  5.2e-05  0.076843  0.106027  5.6e-05  1.020522  0.0
H  H31  1  0.55595402  0.26857408  0.80796883  1  0.043002  5.2e-05  0.076813  0.106033  5.6e-05  1.020549  0.0
H  H32  1  0.83966080  0.21757082  0.21100738  1  -0.006377  -1.3e-05  0.075459  0.099153  -1.2e-05  1.041898  0.0
H  H33  1  0.33967748  0.78243610  0.28897882  1  -0.006111  -1.3e-05  0.075494  0.099199  -1.2e-05  1.04194  0.0
H  H34  1  0.16031918  0.78243959  0.78898766  1  -0.005953  -1.3e-05  0.075442  0.099114  -1.2e-05  1.041999  0.0
H  H35  1  0.66032658  0.21756535  0.71101244  1  -0.006317  -1.3e-05  0.075463  0.099182  -1.2e-05  1.041911  0.0
H  H36  1  0.80403019  0.17655187  0.31327233  1  0.054476  -2.1e-05  0.082359  0.11577  -2.3e-05  1.017247  0.0
H  H37  1  0.30403770  0.82344708  0.18671363  1  0.054606  -2.1e-05  0.082348  0.115676  -2.3e-05  1.01729  0.0
H  H38  1  0.19595364  0.82345555  0.68672211  1  0.054772  -2.1e-05  0.082381  0.115734  -2.3e-05  1.017269  0.0
H  H39  1  0.69596059  0.17655437  0.81327894  1  0.054784  -2.1e-05  0.082385  0.115779  -2.3e-05  1.017188  0.0
H  H40  1  0.66657039  0.36913030  0.29516776  1  0.016386  6.6e-05  0.076979  0.09881  6.9e-05  1.038738  0.0
H  H41  1  0.16657664  0.63088158  0.20482895  1  0.016428  6.6e-05  0.076974  0.098744  6.9e-05  1.03882  0.0
H  H42  1  0.33341923  0.63088409  0.70482940  1  0.016513  6.6e-05  0.076975  0.098779  6.9e-05  1.038822  0.0
H  H43  1  0.83342261  0.36912188  0.79516665  1  0.016443  6.6e-05  0.076968  0.098777  6.9e-05  1.038831  0.0
H  H44  1  0.80829990  0.46555139  0.30159500  1  0.000569  1.4e-05  0.073939  0.09338  -1.1e-05  1.04123  0.0
H  H45  1  0.30830028  0.53445256  0.19839591  1  0.00104  1.4e-05  0.073977  0.093429  -1.1e-05  1.041125  0.0
H  H46  1  0.19169550  0.53445702  0.69839833  1  0.001038  1.4e-05  0.073982  0.093417  -1.1e-05  1.041154  0.0
H  H47  1  0.69169993  0.46555088  0.80159641  1  0.000887  1.4e-05  0.073958  0.093405  -1.1e-05  1.041235  0.0
H  H48  1  0.75989447  0.41428558  0.39753711  1  -0.024644  6e-06  0.072928  0.087357  -9e-06  1.055679  0.0
H  H49  1  0.25989144  0.58571936  0.10245540  1  -0.024815  6e-06  0.072961  0.087385  -9e-06  1.055714  0.0
H  H50  1  0.24009996  0.58572881  0.60245940  1  -0.024726  6e-06  0.07296  0.087345  -9e-06  1.055674  0.0
H  H51  1  0.74010299  0.41428309  0.89753737  1  -0.02466  6e-06  0.072908  0.087328  -9e-06  1.055724  0.0
C  C52  1  0.86318373  0.85825454  0.57392197  1  1.562864  -0.001529  0.217179  0.578022  -0.002003  4.164251  -0.004
C  C53  1  0.36317023  0.14174055  0.92608364  1  1.562947  -0.001531  0.217089  0.578025  -0.002004  4.163774  -0.004
C  C54  1  0.13682901  0.14173806  0.42608850  1  1.56312  -0.00153  0.217055  0.578007  -0.002003  4.163844  -0.004
C  C55  1  0.63681457  0.85825597  0.07391713  1  1.563092  -0.00153  0.217207  0.578037  -0.002003  4.163949  -0.004
C  C56  1  0.58211388  0.86520365  0.84046792  1  1.56696  -0.001809  0.215701  0.577863  -0.00219  4.159003  -0.004
C  C57  1  0.08212264  0.13477246  0.65953107  1  1.567276  -0.001809  0.21558  0.577746  -0.002192  4.159148  -0.004
C  C58  1  0.41788055  0.13478893  0.15953598  1  1.566396  -0.001811  0.215662  0.577843  -0.002191  4.159103  -0.004
C  C59  1  0.91788528  0.86520418  0.34046566  1  1.566918  -0.001809  0.215657  0.577727  -0.002191  4.159043  -0.004
C  C60  1  0.76280127  0.64745927  0.58752257  1  -0.0675  0.002344  -0.07615  -0.144783  0.001484  3.925347  0.001
C  C61  1  0.26277843  0.35253876  0.91247988  1  -0.067583  0.002343  -0.076172  -0.14491  0.001483  3.925627  0.001
C  C62  1  0.23721436  0.35254029  0.41248865  1  -0.067515  0.002342  -0.076076  -0.144658  0.001483  3.925512  0.001
C  C63  1  0.73721215  0.64746270  0.08751269  1  -0.067322  0.002343  -0.076077  -0.144587  0.001483  3.925326  0.001
C  C64  1  0.63900334  0.79040056  0.74962515  1  -0.019008  0.017005  -0.011742  -0.010219  0.011848  3.97126  0.013
C  C65  1  0.13899447  0.20959247  0.75037783  1  -0.019038  0.017005  -0.011843  -0.010447  0.011848  3.971392  0.013
C  C66  1  0.36100651  0.20960593  0.25038223  1  -0.019111  0.017004  -0.011689  -0.010202  0.011847  3.971226  0.013
C  C67  1  0.86100478  0.79040106  0.24961905  1  -0.019095  0.017005  -0.011709  -0.01016  0.011848  3.971078  0.013
C  C68  1  0.78017997  0.78481981  0.62260981  1  -0.016016  0.016652  -0.009767  -0.008409  0.011676  3.989541  0.013
C  C69  1  0.28017157  0.21518123  0.87739650  1  -0.016349  0.016652  -0.00972  -0.008393  0.011674  3.989532  0.013
C  C70  1  0.21982602  0.21518473  0.37740308  1  -0.016092  0.016652  -0.009758  -0.008429  0.011674  3.989495  0.013
C  C71  1  0.71982382  0.78482424  0.12260279  1  -0.016494  0.016654  -0.009836  -0.008552  0.011676  3.989478  0.013
C  C72  1  0.65403011  0.43736493  0.59177925  1  0.035032  0.000694  0.005451  0.056414  0.000429  4.006569  0.001
C  C73  1  0.15401234  0.56262709  0.90821890  1  0.035604  0.000694  0.005546  0.056592  0.000429  4.005966  0.001
C  C74  1  0.34598263  0.56263263  0.40822895  1  0.035405  0.000694  0.005482  0.056404  0.000429  4.006333  0.001
C  C75  1  0.84597727  0.43736839  0.09176983  1  0.035794  0.000694  0.005558  0.056489  0.000429  4.006204  0.001
C  C76  1  0.71900849  0.85644134  0.70374452  1  -0.001016  0.004155  -0.06897  -0.098196  0.002844  3.892772  0.003
C  C77  1  0.21900033  0.14355173  0.79626291  1  -0.000994  0.004155  -0.068905  -0.098118  0.002844  3.892662  0.003
C  C78  1  0.28100232  0.14356020  0.29626645  1  -0.001168  0.004154  -0.068991  -0.09825  0.002844  3.892597  0.003
C  C79  1  0.78099699  0.85644082  0.20373705  1  -0.001026  0.004154  -0.068936  -0.098158  0.002844  3.892658  0.003
C  C80  1  0.75717206  0.34960853  0.55981253  1  0.47897  -0.000788  0.050377  0.029728  -0.000927  3.914687  0.0
C  C81  1  0.25716101  0.65038254  0.94018918  1  0.479238  -0.000788  0.050444  0.029817  -0.000926  3.914523  0.0
C  C82  1  0.24284068  0.65039004  0.44019849  1  0.478659  -0.000788  0.050384  0.02984  -0.000927  3.914598  0.0
C  C83  1  0.74283535  0.34961594  0.05980411  1  0.478167  -0.000788  0.050355  0.029772  -0.000927  3.914518  0.0
C  C84  1  0.61488553  0.65448572  0.71161291  1  0.024814  0.003152  -0.076144  -0.141148  0.002184  3.927339  0.002
C  C85  1  0.11487185  0.34550430  0.78838556  1  0.024809  0.003151  -0.076039  -0.141062  0.002184  3.927407  0.002
C  C86  1  0.38512047  0.34551680  0.28839432  1  0.025157  0.00315  -0.076144  -0.141121  0.002183  3.927537  0.002
C  C87  1  0.88512355  0.65448324  0.21160419  1  0.025435  0.003151  -0.076161  -0.141168  0.002183  3.927409  0.002
C  C88  1  0.67701285  0.58164960  0.63051365  1  -0.098141  0.00148  -0.008524  0.059098  0.000849  4.031562  0.001
C  C89  1  0.17699797  0.41834343  0.86948729  1  -0.09809  0.001481  -0.008677  0.059044  0.00085  4.031701  0.001
C  C90  1  0.32299699  0.41835194  0.36949600  1  -0.098554  0.001481  -0.008564  0.059039  0.00085  4.03171  0.001
C  C91  1  0.82299935  0.58165304  0.13050231  1  -0.099034  0.00148  -0.008643  0.05896  0.000849  4.031736  0.001
C  C92  1  0.53009750  0.38264239  0.58742769  1  -0.02464  -0.000794  -0.075378  -0.214074  -0.000898  3.925477  0.0
C  C93  1  0.03008556  0.61735953  0.91257270  1  -0.025163  -0.000794  -0.075352  -0.214071  -0.000897  3.925542  0.0
C  C94  1  0.46991524  0.61735714  0.41257762  1  -0.025009  -0.000794  -0.07539  -0.214105  -0.000898  3.925201  0.0
C  C95  1  0.96990983  0.38264095  0.08742362  1  -0.025199  -0.000794  -0.075435  -0.214115  -0.000898  3.92518  0.0
C  C96  1  0.62399317  0.16487332  0.51930208  1  0.59217  -0.000928  0.042082  -0.034764  -0.00106  3.94027  -0.001
C  C97  1  0.12399180  0.83512465  0.98069733  1  0.591779  -0.000928  0.042063  -0.034811  -0.00106  3.940069  -0.001
C  C98  1  0.37601668  0.83512716  0.48069555  1  0.591957  -0.000928  0.042078  -0.034764  -0.00106  3.940045  -0.001
C  C99  1  0.87600745  0.16487288  0.01930561  1  0.592013  -0.000929  0.042077  -0.034822  -0.00106  3.940266  -0.001
C  C100  1  0.51773025  0.24595355  0.55097852  1  0.470922  0.000295  0.107382  0.253714  0.000194  4.081936  0.0
C  C101  1  0.01772314  0.75404140  0.94901982  1  0.471337  0.000295  0.107371  0.253788  0.000194  4.081886  0.0
C  C102  1  0.48227959  0.75404595  0.44902022  1  0.470885  0.000295  0.107431  0.253832  0.000194  4.081648  0.0
C  C103  1  0.98227225  0.24595116  0.05098211  1  0.470901  0.000295  0.107416  0.25376  0.000194  4.081783  0.0
C  C104  1  0.84274019  0.25470158  0.28636208  1  -0.073878  6.4e-05  -0.254499  -0.298515  1.9e-05  3.961185  0.0
C  C105  1  0.34274654  0.74530235  0.21362351  1  -0.074209  6.4e-05  -0.254471  -0.298398  1.9e-05  3.961228  0.0
C  C106  1  0.15724749  0.74530683  0.71363124  1  -0.074375  6.4e-05  -0.254498  -0.298414  1.9e-05  3.961214  0.0
C  C107  1  0.65725175  0.25470107  0.78636618  1  -0.074264  6.4e-05  -0.254531  -0.298552  1.9e-05  3.961177  0.0
C  C108  1  0.76552273  0.38306216  0.32206149  1  -0.011046  6.3e-05  -0.253643  -0.295327  4.7e-05  3.991135  0.0
C  C109  1  0.26552522  0.61694078  0.17792996  1  -0.011347  6.3e-05  -0.253737  -0.295352  4.6e-05  3.991115  0.0
C  C110  1  0.23446977  0.61694725  0.67793401  1  -0.011643  6.3e-05  -0.253744  -0.295349  4.6e-05  3.991113  0.0
C  C111  1  0.73447306  0.38305968  0.82206242  1  -0.011343  6.3e-05  -0.25362  -0.295285  4.6e-05  3.991201  0.0
N  N112  1  0.74240556  0.21790610  0.52502259  1  -1.205927  -0.00163  -0.326626  -0.196653  -0.000974  3.540287  0.0
N  N113  1  0.24240222  0.78208097  0.97497571  1  -1.206272  -0.001631  -0.326652  -0.196704  -0.000974  3.540349  0.0
N  N114  1  0.25760429  0.78209342  0.47498009  1  -1.205756  -0.001631  -0.326615  -0.196671  -0.000974  3.540129  0.0
N  N115  1  0.75759606  0.21790858  0.02502036  1  -1.205784  -0.00163  -0.326582  -0.196533  -0.000974  3.540111  0.0
O  O116  1  0.63798084  0.97338208  0.88403239  1  -1.112825  0.084416  -0.310526  -0.528741  0.053256  2.367179  0.077
O  O117  1  0.13798387  0.02660600  0.61597484  1  -1.11325  0.084409  -0.310418  -0.52857  0.05325  2.367684  0.077
O  O118  1  0.36202515  0.02662541  0.11597651  1  -1.113015  0.084389  -0.310513  -0.528676  0.053237  2.367731  0.077
O  O119  1  0.86201731  0.97338160  0.38402739  1  -1.112813  0.084406  -0.310521  -0.528712  0.05325  2.367192  0.077
O  O120  1  0.48378579  0.81394375  0.86700462  1  -1.09825  0.105405  -0.30914  -0.503817  0.066672  2.337245  0.096
O  O121  1  0.98378383  0.18604140  0.63299021  1  -1.098169  0.105428  -0.309148  -0.503821  0.06669  2.336872  0.096
O  O122  1  0.51622117  0.18606172  0.13299664  1  -1.097492  0.105434  -0.309154  -0.503858  0.06669  2.336788  0.096
O  O123  1  0.01621060  0.81393921  0.36700470  1  -1.09819  0.1054  -0.309137  -0.503771  0.066668  2.337254  0.096
O  O124  1  0.96992940  0.80471572  0.54167116  1  -1.104523  0.099184  -0.306791  -0.505691  0.062661  2.343702  0.09
O  O125  1  0.46993124  0.19529730  0.95833591  1  -1.104339  0.099207  -0.306807  -0.505689  0.062676  2.342834  0.09
O  O126  1  0.03007081  0.19529479  0.45834360  1  -1.104499  0.099219  -0.30681  -0.505753  0.062683  2.343088  0.09
O  O127  1  0.53007571  0.80471213  0.04166156  1  -1.1046  0.09918  -0.306812  -0.505708  0.062657  2.343565  0.09
O  O128  1  0.81932562  0.96955088  0.57029326  1  -1.099936  0.091561  -0.308377  -0.521081  0.057743  2.385144  0.083
O  O129  1  0.31933124  0.03045613  0.92971616  1  -1.099922  0.091526  -0.308312  -0.521065  0.057723  2.385371  0.083
O  O130  1  0.18066592  0.03044866  0.42971402  1  -1.100086  0.091518  -0.308316  -0.521043  0.057718  2.385322  0.083
O  O131  1  0.68066704  0.96956031  0.07029390  1  -1.099938  0.091568  -0.308391  -0.521035  0.05775  2.385008  0.083
F  F132  1  0.39924366  0.18925612  0.54697244  1  -0.631067  -9e-06  -0.08678  -0.127466  -8e-06  1.368914  0.0
F  F133  1  0.89923728  0.81074992  0.95303532  1  -0.63109  -9e-06  -0.086803  -0.127556  -8e-06  1.36888  0.0
F  F134  1  0.60076715  0.81074335  0.45302170  1  -0.630972  -9e-06  -0.086832  -0.12756  -8e-06  1.368885  0.0
F  F135  1  0.10075715  0.18925167  0.04698420  1  -0.630851  -9e-06  -0.086813  -0.127515  -8e-06  1.36887  0.0
