# generated using pymatgen
data_Al3H13C54Br6(Cl3O7)2
_symmetry_space_group_name_H-M   'P 1'
_cell_length_a   12.06564786
_cell_length_b   13.31805853
_cell_length_c   26.46692520
_cell_angle_alpha   90.10127806
_cell_angle_beta   89.74345246
_cell_angle_gamma   115.08048519
_symmetry_Int_Tables_number   1
_chemical_formula_structural   Al3H13C54Br6(Cl3O7)2
_chemical_formula_sum   'Al6 H26 C108 Br12 Cl12 O28'
_cell_volume   3851.95680121
_cell_formula_units_Z   2
loop_
 _symmetry_equiv_pos_site_id
 _symmetry_equiv_pos_as_xyz
  1  'x, y, z'
loop_
 _atom_site_type_symbol
 _atom_site_label
 _atom_site_symmetry_multiplicity
 _atom_site_fract_x
 _atom_site_fract_y
 _atom_site_fract_z
 _atom_site_occupancy
 _atom_site_pbe_bader_charge
 _atom_site_pbe_bader_spin_density
 _atom_site_pbe_cm5_charge
 _atom_site_pbe_ddec_charge
 _atom_site_pbe_ddec_spin_density
 _atom_site_pbe_ddec_sum_bond_order
 _atom_site_pbe_magmom
Al  Al0  1  0.44905677  0.27804066  0.75119679  1  2.489316  0  0.398666  1.687165  0  2.550419  0
Al  Al1  1  0.72667448  0.46085735  0.74999196  1  2.481334  0  0.493777  1.660157  0  2.545362  0
Al  Al2  1  0.68574898  0.22368434  0.74995551  1  2.472394  0  0.517824  1.653566  0  2.475789  0
Al  Al3  1  0.31362390  0.52684971  0.24957532  1  2.497014  0  0.392155  1.698633  0  2.563349  0
Al  Al4  1  0.46308768  0.79362611  0.25002464  1  2.480715  0  0.502867  1.656034  0  2.511448  0
Al  Al5  1  0.19102948  0.70159606  0.24961876  1  2.463654  0  0.517168  1.657139  0  2.484392  0
H  H6  1  0.11291760  0.67967729  0.10805913  1  0.111183  0  0.109862  0.121109  0  1.019685  0
H  H7  1  0.65888836  0.17375131  0.89938400  1  0.099413  0  0.100953  0.110144  0  1.032933  0
H  H8  1  0.92435598  0.56979721  0.63298423  1  0.126819  0  0.118026  0.134141  0  0.984933  0
H  H9  1  0.43373863  0.35031057  0.89300927  1  0.106381  0  0.108267  0.12123  0  1.02617  0
H  H10  1  0.10333566  0.35426070  0.12132238  1  0.144236  0  0.104734  0.117612  0  1.02459  0
H  H11  1  0.15662502  0.86350525  0.38783139  1  0.139188  0  0.099512  0.108392  0  1.042246  0
H  H12  1  0.64081681  0.82282354  0.10612798  1  0.109971  0  0.09856  0.110021  0  1.039752  0
H  H13  1  0.09863264  0.35040606  0.37686727  1  0.150162  0  0.101817  0.112214  0  1.031495  0
H  H14  1  0.15735127  0.86473920  0.11356104  1  0.090487  0  0.099386  0.10792  0  1.043175  0
H  H15  1  0.63872925  0.82458706  0.39550111  1  0.084521  0  0.099013  0.110423  0  1.038245  0
H  H16  1  0.27666913  0.00643093  0.63594891  1  0.119896  0  0.101708  0.115089  0  1.024763  0
H  H17  1  0.54208705  0.02928590  0.35603864  1  0.151249  0  0.104907  0.116246  0  1.024344  0
H  H18  1  0.95618011  0.26007858  0.87180572  1  0.12086  0  0.10366  0.116604  0  1.024646  0
H  H19  1  0.66821843  0.68900068  0.64289949  1  0.110685  0  0.098657  0.108661  0  1.035874  0
H  H20  1  0.27539141  0.00852220  0.86520203  1  0.093518  0  0.103597  0.118151  0  1.02085  0
H  H21  1  0.95410567  0.25917669  0.62694007  1  0.129589  0  0.101904  0.114318  0  1.028073  0
H  H22  1  0.67210095  0.68880791  0.85864146  1  0.11316  0  0.098294  0.108  0  1.037209  0
H  H23  1  0.45604223  0.47557005  0.14021777  1  0.168834  0  0.114723  0.131705  0  1.021233  0
H  H24  1  0.11322274  0.67759714  0.39031992  1  0.117056  0  0.110639  0.121919  0  1.019174  0
H  H25  1  0.54324643  0.02836069  0.14351049  1  0.145226  0  0.104772  0.116091  0  1.026296  0
H  H26  1  0.46242171  0.47736003  0.36102216  1  0.160811  0  0.111295  0.123662  0  1.032916  0
H  H27  1  0.65953516  0.17500367  0.59976430  1  0.094729  0  0.100674  0.109699  0  1.032141  0
H  H28  1  0.92239564  0.56896679  0.86612308  1  0.098001  0  0.117311  0.133197  0  0.985772  0
H  H29  1  0.43505462  0.34987629  0.60745590  1  0.099259  0  0.105094  0.116389  0  1.033293  0
H  H30  1  0.25564472  0.24986768  0.72134966  1  0.570703  0  0.288987  0.378788  0  0.930302  0
H  H31  1  0.25710010  0.33937238  0.27086157  1  0.556023  0  0.286163  0.375441  0  0.935776  0
C  C32  1  0.56905489  0.47597225  0.82110560  1  1.569833  0  0.274325  0.639678  0  4.091711  0
C  C33  1  0.51613139  0.66870747  0.18014173  1  1.571319  0  0.276873  0.639805  0  4.088208  0
C  C34  1  0.06091186  0.29604019  0.47834979  1  -0.033329  0  -0.024759  0.006395  0  3.93393  0
C  C35  1  0.17258632  0.92978598  0.01410630  1  -0.054561  0  -0.024804  0.00041  0  3.961767  0
C  C36  1  0.66699065  0.79923855  0.49751122  1  0.000287  0  -0.025773  0.004708  0  3.948281  0
C  C37  1  0.19682221  0.94850365  0.53804795  1  -0.043707  0  -0.026427  0.001667  0  3.941151  0
C  C38  1  0.04249272  0.28324620  0.96881502  1  0.001026  0  -0.029093  0.000236  0  3.943944  0
C  C39  1  0.66713846  0.77251824  0.54768537  1  -0.048594  0  -0.024315  0.005063  0  3.946442  0
C  C40  1  0.19651765  0.94884634  0.96324054  1  -0.083041  0  -0.026132  0.001604  0  3.94227  0
C  C41  1  0.04194965  0.28189870  0.52978364  1  -0.065787  0  -0.029041  0.000535  0  3.941748  0
C  C42  1  0.66851118  0.77174276  0.95382171  1  -0.046107  0  -0.024684  0.005855  0  3.948526  0
C  C43  1  0.33517736  0.87558780  0.31886127  1  1.549458  0  0.276472  0.648215  0  4.060489  0
C  C44  1  0.13456070  0.53824253  0.17487929  1  1.549423  0  0.276207  0.64705  0  4.071601  0
C  C45  1  0.03728964  0.46550581  0.96156782  1  0.001822  0  0.004068  0.014294  0  3.856979  0
C  C46  1  0.41709194  0.04101931  0.51994435  1  -0.015561  0  -0.002851  0.003499  0  3.946513  0
C  C47  1  0.55072920  0.57364646  0.97325097  1  -0.00517  0  0.001767  0.008939  0  3.937272  0
C  C48  1  0.03811274  0.46469842  0.53714111  1  0.008429  0  0.003138  0.013592  0  3.855286  0
C  C49  1  0.41706769  0.04065023  0.98030900  1  -0.019589  0  -0.001734  0.003878  0  3.946774  0
C  C50  1  0.55158215  0.57450299  0.52793207  1  0.019461  0  0.001692  0.008909  0  3.939342  0
C  C51  1  0.39202312  0.01498455  0.46792699  1  -0.000504  0  0.004365  0.017125  0  3.926327  0
C  C52  1  0.86034491  0.38222196  0.68258747  1  1.55357  0  0.277284  0.648146  0  4.067158  0
C  C53  1  0.06754824  0.48422721  0.01493214  1  0.049514  0  0.001629  0.005599  0  3.862032  0
C  C54  1  0.55663421  0.60161507  0.47597545  1  -0.080652  0  0.003127  0.014369  0  3.932322  0
C  C55  1  0.39246692  0.01461893  0.03240322  1  0.01072  0  0.004526  0.01584  0  3.926809  0
C  C56  1  0.06813879  0.48290006  0.48364541  1  -0.0177  0  0.001768  0.006658  0  3.861289  0
C  C57  1  0.55442403  0.60028956  0.02525192  1  -0.011032  0  0.003513  0.015333  0  3.93017  0
C  C58  1  0.00433814  0.62960957  0.96614265  1  0.09798  0  -0.007757  0.005985  0  3.954211  0
C  C59  1  0.63113579  0.15876622  0.49754677  1  0.086978  0  0.003148  0.025224  0  4.064428  0
C  C60  1  0.42784544  0.37572423  0.99444358  1  0.08961  0  0.005938  0.027353  0  4.059947  0
C  C61  1  0.00605587  0.62920941  0.53270432  1  0.114821  0  -0.007326  0.006967  0  3.951895  0
C  C62  1  0.63163159  0.15728692  0.00174100  1  0.02934  0  0.004312  0.026586  0  4.063151  0
C  C63  1  0.50053789  0.13039868  0.82340354  1  1.569579  0  0.279145  0.647297  0  4.058467  0
C  C64  1  0.43042216  0.37652118  0.50634070  1  0.109327  0  0.005477  0.026923  0  4.060151  0
C  C65  1  0.60858427  0.12975694  0.44757331  1  0.127923  0  0.003078  0.02522  0  4.067409  0
C  C66  1  0.10252211  0.66917285  0.99845131  1  0.091638  0  -0.013645  -0.008178  0  3.907275  0
C  C67  1  0.44697709  0.40105023  0.45585978  1  0.044243  0  0.00881  0.036281  0  4.050011  0
C  C68  1  0.60946988  0.12835853  0.05177414  1  0.145027  0  0.002838  0.025056  0  4.066657  0
C  C69  1  0.10413697  0.66828137  0.50002290  1  0.054298  0  -0.013482  -0.007398  0  3.90726  0
C  C70  1  0.44226979  0.39979447  0.04501588  1  0.139616  0  0.009007  0.03439  0  4.052718  0
C  C71  1  0.95358184  0.51390350  0.88562134  1  -0.053489  0  -0.072935  -0.110659  0  3.932914  0
C  C72  1  0.56567058  0.12684671  0.58755470  1  -0.006035  0  -0.083692  -0.137453  0  3.930937  0
C  C73  1  0.48386108  0.43503252  0.90617662  1  -0.027602  0  -0.078142  -0.128526  0  3.92878  0
C  C74  1  0.56655615  0.47541983  0.67992795  1  1.557797  0  0.272838  0.645385  0  4.086984  0
C  C75  1  0.95514719  0.51429642  0.61340137  1  0.03859  0  -0.07272  -0.109898  0  3.93367  0
C  C76  1  0.56508582  0.12615962  0.91207555  1  0.024402  0  -0.083269  -0.138104  0  3.931967  0
C  C77  1  0.48402593  0.43507530  0.59467294  1  0.010152  0  -0.082205  -0.134272  0  3.938142  0
C  C78  1  0.46668308  0.00828557  0.38265226  1  -0.023252  0  -0.07869  -0.119674  0  3.917702  0
C  C79  1  0.10068525  0.60187466  0.09041588  1  0.024045  0  -0.076256  -0.123688  0  3.938906  0
C  C80  1  0.50485308  0.54207473  0.38899580  1  -0.028103  0  -0.076332  -0.118706  0  3.929191  0
C  C81  1  0.46768314  0.00774213  0.11728516  1  -0.022827  0  -0.078557  -0.119336  0  3.918394  0
C  C82  1  0.10068703  0.59984872  0.40803217  1  -0.010494  0  -0.075568  -0.120753  0  3.934893  0
C  C83  1  0.50004228  0.54027670  0.11226703  1  -0.035807  0  -0.07405  -0.119111  0  3.919668  0
C  C84  1  0.10289172  0.51503298  0.12021572  1  -0.001181  0  -0.005657  -0.01673  0  3.950876  0
C  C85  1  0.86046667  0.38129398  0.81657373  1  1.54124  0  0.278205  0.64912  0  4.063796  0
C  C86  1  0.34835132  0.93578792  0.36779804  1  -0.003114  0  -0.01387  -0.031118  0  3.973791  0
C  C87  1  0.54717792  0.65098496  0.12753836  1  0.03194  0  -0.013159  -0.033204  0  4.005973  0
C  C88  1  0.10046152  0.51210898  0.37797129  1  0.012174  0  -0.004669  -0.016334  0  3.943088  0
C  C89  1  0.34920045  0.93612784  0.13267385  1  -0.011446  0  -0.013374  -0.033271  0  3.977948  0
C  C90  1  0.54805826  0.65269397  0.37392221  1  -0.016642  0  -0.012608  -0.027173  0  3.991982  0
C  C91  1  0.47140796  0.08912113  0.62330724  1  -0.041398  0  -0.00596  -0.010023  0  3.955253  0
C  C92  1  0.93480092  0.41124664  0.86361930  1  -0.000916  0  -0.012727  -0.037538  0  3.970036  0
C  C93  1  0.55280442  0.51630270  0.62926867  1  -0.037936  0  -0.011236  -0.018216  0  4.00227  0
C  C94  1  0.47030810  0.08934545  0.87686216  1  -0.08348  0  -0.005993  -0.011572  0  3.961322  0
C  C95  1  0.93526912  0.41151295  0.63540712  1  -0.009728  0  -0.010814  -0.034798  0  3.96847  0
C  C96  1  0.50202825  0.13003288  0.67678491  1  1.575248  0  0.275686  0.650676  0  4.058484  0
C  C97  1  0.55460106  0.51639156  0.87186763  1  0.035611  0  -0.010381  -0.018732  0  4.005735  0
C  C98  1  0.00470634  0.54120664  0.93272081  1  0.108816  0  -0.011424  0.027383  0  4.038148  0
C  C99  1  0.53932733  0.10798188  0.53589558  1  0.081833  0  -0.010028  0.034001  0  4.031296  0
C  C100  1  0.48535327  0.46109388  0.95728866  1  -0.017229  0  -0.009119  0.03638  0  4.033144  0
C  C101  1  0.00632190  0.54105058  0.56614178  1  0.038995  0  -0.01094  0.02741  0  4.039212  0
C  C102  1  0.53926927  0.10711723  0.96382664  1  0.096641  0  -0.010197  0.034849  0  4.029739  0
C  C103  1  0.48654456  0.46167257  0.54364248  1  0.057447  0  -0.009718  0.036974  0  4.034695  0
C  C104  1  0.48949541  0.05094291  0.43168145  1  0.038803  0  -0.010993  0.029573  0  4.037437  0
C  C105  1  0.08872570  0.58842451  0.03895874  1  -0.051529  0  -0.006309  0.044745  0  4.023807  0
C  C106  1  0.50568136  0.51475740  0.43951734  1  0.075549  0  -0.010747  0.031162  0  4.042368  0
C  C107  1  0.50971576  0.66806299  0.32220113  1  1.568632  0  0.274393  0.643845  0  4.079105  0
C  C108  1  0.49026184  0.05011687  0.06818117  1  0.026943  0  -0.009559  0.031954  0  4.033694  0
C  C109  1  0.08979709  0.58707630  0.45956342  1  0.049828  0  -0.005548  0.043506  0  4.022861  0
C  C110  1  0.50109301  0.51331458  0.06157174  1  -0.002285  0  -0.008939  0.033057  0  4.037519  0
C  C111  1  0.97222925  0.33952060  0.88885979  1  0.007054  0  -0.06875  -0.101982  0  3.871283  0
C  C112  1  0.34971374  0.03008233  0.60793754  1  0.029201  0  -0.082521  -0.132581  0  3.901265  0
C  C113  1  0.61794444  0.62701499  0.88633794  1  -0.028785  0  -0.084104  -0.134381  0  3.929902  0
C  C114  1  0.97162871  0.33897365  0.60998460  1  -0.097052  0  -0.072141  -0.107301  0  3.879184  0
C  C115  1  0.34869352  0.03096339  0.89277748  1  0.114786  0  -0.080207  -0.130554  0  3.898331  0
C  C116  1  0.61549996  0.62721822  0.61503294  1  0.01347  0  -0.082707  -0.133771  0  3.927281  0
C  C117  1  0.24940534  0.91411608  0.40060241  1  -0.053165  0  -0.08154  -0.129553  0  3.911452  0
C  C118  1  0.33534045  0.87650662  0.18167676  1  1.539308  0  0.276754  0.650153  0  4.058313  0
C  C119  1  0.09393819  0.41726589  0.09781668  1  -0.037843  0  -0.072131  -0.113312  0  3.873242  0
C  C120  1  0.60463176  0.73893804  0.40818174  1  0.021886  0  -0.082302  -0.130093  0  3.92041  0
C  C121  1  0.25013162  0.91473089  0.10033285  1  0.00723  0  -0.081581  -0.128298  0  3.908839  0
C  C122  1  0.09149049  0.41450193  0.40043789  1  -0.070225  0  -0.072527  -0.112588  0  3.876554  0
C  C123  1  0.60456168  0.73724244  0.09321846  1  -0.02163  0  -0.082654  -0.128937  0  3.921921  0
C  C124  1  0.02255755  0.36412682  0.93826172  1  -0.032238  0  -0.010771  0.046354  0  3.971067  0
C  C125  1  0.32061297  0.00348775  0.55676322  1  -0.007736  0  -0.014576  0.039583  0  4.019518  0
C  C126  1  0.61215098  0.65833999  0.93656554  1  0.04203  0  -0.010978  0.041145  0  4.027706  0
C  C127  1  0.02230336  0.36311415  0.56044978  1  0.076923  0  -0.011111  0.04539  0  3.972899  0
C  C128  1  0.32019135  0.00378042  0.94399976  1  -0.010699  0  -0.014328  0.04025  0  4.019403  0
C  C129  1  0.12793953  0.53418907  0.32281147  1  1.571188  0  0.276284  0.65013  0  4.069344  0
C  C130  1  0.61112265  0.65896152  0.56481328  1  -0.013487  0  -0.01133  0.042336  0  4.026385  0
C  C131  1  0.26951672  0.95287488  0.45075248  1  0.008034  0  -0.011617  0.040588  0  4.011612  0
C  C132  1  0.07416825  0.39875170  0.04513689  1  0.050372  0  -0.006737  0.050633  0  3.988726  0
C  C133  1  0.61163085  0.71481658  0.45952852  1  0.044197  0  -0.012494  0.039228  0  4.01135  0
C  C134  1  0.27001276  0.95303079  0.05011893  1  0.045134  0  -0.010611  0.042917  0  4.008773  0
C  C135  1  0.07372644  0.39690644  0.45330998  1  0.023877  0  -0.007155  0.049915  0  3.986322  0
C  C136  1  0.61082350  0.71339688  0.04181423  1  0.014326  0  -0.012038  0.040251  0  4.011166  0
C  C137  1  0.06104562  0.29761453  0.02020459  1  -0.081688  0  -0.024341  0.005833  0  3.937093  0
C  C138  1  0.17238677  0.92964605  0.48727214  1  -0.063599  0  -0.02581  2e-06  0  3.963017  0
C  C139  1  0.66776605  0.79816969  0.00401843  1  -0.057662  0  -0.025944  0.004301  0  3.947485  0
Br  Br140  1  0.06000227  0.18017833  0.06072641  1  -0.008196  0  0.049789  -0.02994  0  1.68454  0
Br  Br141  1  0.06581489  0.90344292  0.91641753  1  -0.013191  0  0.055724  -0.011727  0  1.65598  0
Br  Br142  1  0.02545957  0.14857659  0.56112666  1  -0.006657  0  0.042286  -0.045233  0  1.768163  0
Br  Br143  1  0.74046771  0.88495349  0.90472075  1  -0.030047  0  0.044374  -0.024183  0  1.567235  0
Br  Br144  1  0.01058914  0.87586878  0.46243591  1  -0.010533  0  0.053816  -0.024301  0  1.727195  0
Br  Br145  1  0.74398105  0.94755664  0.02577526  1  -0.014964  0  0.052748  -0.029384  0  1.750787  0
Br  Br146  1  0.06152998  0.17864864  0.43804885  1  -0.009864  0  0.048001  -0.031313  0  1.677514  0
Br  Br147  1  0.01093041  0.87541503  0.03972558  1  -0.008258  0  0.053888  -0.024476  0  1.723451  0
Br  Br148  1  0.74221873  0.94893339  0.47601623  1  -0.016807  0  0.051894  -0.029465  0  1.743427  0
Br  Br149  1  0.06624361  0.90282953  0.58546103  1  -0.019297  0  0.053125  -0.014439  0  1.643216  0
Br  Br150  1  0.02624216  0.14986626  0.93753568  1  -0.000998  0  0.046258  -0.038488  0  1.762414  0
Br  Br151  1  0.73792916  0.88546821  0.59689786  1  -0.032045  0  0.044331  -0.0239  0  1.561856  0
Cl  Cl152  1  0.24729358  0.71964468  0.96918861  1  -0.204953  0  -0.005791  -0.055214  0  1.519518  0
Cl  Cl153  1  0.77015134  0.25701387  0.98298114  1  -0.1843  0  0.028881  -0.034036  0  1.828938  0
Cl  Cl154  1  0.86186855  0.60014664  0.50807372  1  -0.188739  0  0.004442  -0.048504  0  1.596442  0
Cl  Cl155  1  0.34395990  0.24291916  0.97414439  1  -0.173329  0  0.035279  -0.024022  0  1.827123  0
Cl  Cl156  1  0.72205379  0.18810221  0.40297308  1  -0.184341  0  0.009022  -0.042708  0  1.586373  0
Cl  Cl157  1  0.38837864  0.29621230  0.08942823  1  -0.159286  0  0.026181  -0.02487  0  1.619874  0
Cl  Cl158  1  0.24892223  0.71894837  0.52869802  1  -0.207023  0  -0.004503  -0.053454  0  1.519729  0
Cl  Cl159  1  0.72349032  0.18620747  0.09582210  1  -0.181177  0  0.009569  -0.042083  0  1.591953  0
Cl  Cl160  1  0.39466332  0.29760692  0.41131027  1  -0.183557  0  0.021453  -0.032429  0  1.61856  0
Cl  Cl161  1  0.76948915  0.25927136  0.51572416  1  -0.182425  0  0.027898  -0.033948  0  1.823267  0
Cl  Cl162  1  0.86024116  0.60095030  0.99130575  1  -0.184992  0  0.00426  -0.04881  0  1.598208  0
Cl  Cl163  1  0.34521200  0.24360669  0.52636532  1  -0.186096  0  0.033383  -0.02555  0  1.826661  0
O  O164  1  0.43287163  0.17048677  0.80403100  1  -1.226723  0  -0.204795  -0.53216  0  2.312868  0
O  O165  1  0.19865624  0.49400704  0.19387160  1  -1.231461  0  -0.211539  -0.560425  0  2.347422  0
O  O166  1  0.55282891  0.76462526  0.30116205  1  -1.26324  0  -0.247565  -0.603326  0  2.239323  0
O  O167  1  0.22835692  0.81544279  0.19917220  1  -1.261477  0  -0.236253  -0.593223  0  2.265224  0
O  O168  1  0.48281555  0.38952506  0.80449613  1  -1.24192  0  -0.209818  -0.554248  0  2.350928  0
O  O169  1  0.83915852  0.46116570  0.70115562  1  -1.264271  0  -0.231455  -0.600373  0  2.358102  0
O  O170  1  0.59647681  0.12835045  0.80229924  1  -1.274986  0  -0.247947  -0.61242  0  2.250684  0
O  O171  1  0.47997798  0.38884230  0.69664573  1  -1.249266  0  -0.217849  -0.576619  0  2.351287  0
O  O172  1  0.84084266  0.46028785  0.79727030  1  -1.269737  0  -0.232235  -0.603357  0  2.358463  0
O  O173  1  0.59871403  0.12874772  0.69718001  1  -1.269923  0  -0.249719  -0.611194  0  2.243419  0
O  O174  1  0.42826078  0.58094621  0.30377362  1  -1.256833  0  -0.211929  -0.57064  0  2.4411  0
O  O175  1  0.67129664  0.52828649  0.70133820  1  -1.269915  0  -0.245232  -0.603165  0  2.274184  0
O  O176  1  0.43498138  0.88558431  0.20216123  1  -1.265566  0  -0.231514  -0.593379  0  2.334344  0
O  O177  1  0.10018585  0.60836048  0.30218155  1  -1.265937  0  -0.246407  -0.607407  0  2.259338  0
O  O178  1  0.44731692  0.58205926  0.20345485  1  -1.254379  0  -0.208319  -0.550305  0  2.3987  0
O  O179  1  0.43556401  0.88341345  0.29912090  1  -1.255008  0  -0.231961  -0.594315  0  2.337722  0
O  O180  1  0.10085696  0.60680613  0.19768041  1  -1.262632  0  -0.249394  -0.612435  0  2.253775  0
O  O181  1  0.62174485  0.32015868  0.74995451  1  -1.619352  0  -0.391447  -1.266223  0  2.289128  0
O  O182  1  0.32166607  0.67595547  0.24945890  1  -1.618089  0  -0.393604  -1.266092  0  2.283289  0
O  O183  1  0.81419394  0.28162926  0.79984059  1  -1.255525  0  -0.232656  -0.582487  0  2.255986  0
O  O184  1  0.43404064  0.16941400  0.69676044  1  -1.233255  0  -0.213677  -0.558906  0  2.327631  0
O  O185  1  0.67400905  0.52918595  0.79937165  1  -1.268915  0  -0.24724  -0.607217  0  2.273416  0
O  O186  1  0.81547108  0.28321651  0.69995962  1  -1.247387  0  -0.232303  -0.581394  0  2.259895  0
O  O187  1  0.18297039  0.48408173  0.30092264  1  -1.247324  0  -0.218854  -0.575744  0  2.335081  0
O  O188  1  0.55298782  0.76808716  0.19780629  1  -1.26178  0  -0.245624  -0.601188  0  2.245509  0
O  O189  1  0.22894939  0.81573608  0.30088307  1  -1.258631  0  -0.235173  -0.588978  0  2.263303  0
O  O190  1  0.29120978  0.24093435  0.75270615  1  -1.3602  0  -0.580191  -0.996692  0  1.796792  0
O  O191  1  0.31320315  0.39438916  0.24816096  1  -1.354891  0  -0.582032  -0.999365  0  1.795165  0
