# generated using pymatgen
data_Cd2H12C17N18
_symmetry_space_group_name_H-M   'P 1'
_cell_length_a   9.62044940
_cell_length_b   11.04472024
_cell_length_c   12.50770035
_cell_angle_alpha   86.13862052
_cell_angle_beta   80.95307554
_cell_angle_gamma   79.43344977
_symmetry_Int_Tables_number   1
_chemical_formula_structural   Cd2H12C17N18
_chemical_formula_sum   'Cd4 H24 C34 N36'
_cell_volume   1289.20326824
_cell_formula_units_Z   2
loop_
 _symmetry_equiv_pos_site_id
 _symmetry_equiv_pos_as_xyz
  1  'x, y, z'
loop_
 _atom_site_type_symbol
 _atom_site_label
 _atom_site_symmetry_multiplicity
 _atom_site_fract_x
 _atom_site_fract_y
 _atom_site_fract_z
 _atom_site_occupancy
 _atom_site_hle17_bader_spin_density
 _atom_site_hle17_ddec_charge
 _atom_site_hle17_ddec_spin_density
 _atom_site_hle17_ddec_sum_bond_order
 _atom_site_hle17_magmom
 _atom_site_hse06_10hf_bader_spin_density
 _atom_site_hse06_10hf_ddec_charge
 _atom_site_hse06_10hf_ddec_spin_density
 _atom_site_hse06_10hf_ddec_sum_bond_order
 _atom_site_hse06_10hf_magmom
 _atom_site_hse06_bader_spin_density
 _atom_site_hse06_ddec_charge
 _atom_site_hse06_ddec_spin_density
 _atom_site_hse06_ddec_sum_bond_order
 _atom_site_hse06_magmom
 _atom_site_pbe_bader_spin_density
 _atom_site_pbe_cm5_charge
 _atom_site_pbe_ddec_charge
 _atom_site_pbe_ddec_spin_density
 _atom_site_pbe_ddec_sum_bond_order
 _atom_site_pbe_magmom
Cd  Cd0  1  0.17388403  0.50910699  0.01992747  1  0  1.020589  0  1.962379  0  0  0.842268  0  2.440116  0  0  0.88506  0  2.402901  0  0  0.81507  0.813202  0  2.465043  0
Cd  Cd1  1  0.82611667  0.49089206  0.98007134  1  0  1.020531  0  1.96244  0  0  0.842204  0  2.440182  0  0  0.884999  0  2.402966  0  0  0.815058  0.81314  0  2.465103  0
Cd  Cd2  1  0.31869777  0.35090955  0.28859869  1  0  0.988183  0  1.922659  0  0  0.79079  0  2.402825  0  0  0.83721  0  2.364241  0  0  0.798528  0.758789  0  2.428175  0
Cd  Cd3  1  0.68130290  0.64908949  0.71140253  1  0  0.988128  0  1.922723  0  0  0.790748  0  2.402891  0  0  0.837164  0  2.36431  0  0  0.798523  0.758754  0  2.428255  0
H  H4  1  0.05587296  0.73074545  0.84066208  1  0  0.086805  0  0.952596  0  0  0.087871  0  1.028518  0  0  0.09062  0  1.026162  0  0  0.113321  0.085594  0  1.030765  0
H  H5  1  0.94413089  0.26925359  0.15933717  1  0  0.0868  0  0.952577  0  0  0.087876  0  1.02848  0  0  0.090624  0  1.026125  0  0  0.113335  0.085605  0  1.030727  0
H  H6  1  0.07185535  0.95035120  0.78155420  1  0  0.095429  0  0.95099  0  0  0.106436  0  1.008468  0  0  0.109282  0  1.007888  0  0  0.105306  0.104293  0  1.009116  0
H  H7  1  0.92814553  0.04964693  0.21844465  1  0  0.09546  0  0.950953  0  0  0.106464  0  1.008434  0  0  0.109311  0  1.007853  0  0  0.105309  0.104318  0  1.009077  0
H  H8  1  0.18725705  0.07374399  0.89178732  1  0  0.100348  0  0.967257  0  0  0.105553  0  1.03498  0  0  0.10822  0  1.033272  0  0  0.10434  0.103862  0  1.035784  0
H  H9  1  0.81274470  0.92625506  0.10821137  1  0  0.100322  0  0.967316  0  0  0.105528  0  1.03504  0  0  0.1082  0  1.03333  0  0  0.104332  0.103839  0  1.03584  0
H  H10  1  0.28644165  0.97394823  0.05410744  1  0  0.10504  0  0.995244  0  0  0.10985  0  1.064883  0  0  0.112394  0  1.065402  0  0  0.102918  0.107808  0  1.064878  0
H  H11  1  0.71356114  0.02605081  0.94589193  1  0  0.105064  0  0.995244  0  0  0.109876  0  1.064877  0  0  0.112421  0  1.065397  0  0  0.102921  0.107838  0  1.064866  0
H  H12  1  0.63912650  0.57551296  0.29437836  1  0  0.128046  0  0.948103  0  0  0.132607  0  1.014324  0  0  0.135545  0  1.013961  0  0  0.114101  0.130459  0  1.014937  0
H  H13  1  0.36087276  0.42448794  0.70562291  1  0  0.128021  0  0.94811  0  0  0.13258  0  1.014336  0  0  0.135518  0  1.013973  0  0  0.114085  0.130435  0  1.014947  0
H  H14  1  0.75368342  0.57588881  0.46124307  1  0  0.096727  0  0.939808  0  0  0.099925  0  1.008361  0  0  0.102752  0  1.005892  0  0  0.119086  0.098451  0  1.008963  0
H  H15  1  0.24631480  0.42411209  0.53875672  1  0  0.096797  0  0.939711  0  0  0.099949  0  1.008319  0  0  0.102779  0  1.005847  0  0  0.119088  0.098471  0  1.008919  0
H  H16  1  0.36957453  0.73098271  0.64042278  1  0  0.085627  0  0.955626  0  0  0.090456  0  1.02408  0  0  0.093198  0  1.021662  0  0  0.115638  0.088214  0  1.026259  0
H  H17  1  0.63042511  0.26901634  0.35957695  1  0  0.085638  0  0.955625  0  0  0.090451  0  1.02409  0  0  0.093193  0  1.021673  0  0  0.115645  0.088212  0  1.026269  0
H  H18  1  0.24017924  0.74446302  0.48126746  1  0  0.114606  0  0.940941  0  0  0.123922  0  0.998528  0  0  0.127061  0  0.997639  0  0  0.11025  0.121749  0  0.999095  0
H  H19  1  0.75981971  0.25553419  0.51873326  1  0  0.114561  0  0.940877  0  0  0.123867  0  0.998479  0  0  0.127005  0  0.997592  0  0  0.110226  0.121696  0  0.999048  0
H  H20  1  0.11191145  0.92906334  0.31340488  1  0  0.127428  0  0.9252  0  0  0.140797  0  0.976787  0  0  0.144251  0  0.975312  0  0  0.121226  0.138295  0  0.977934  0
H  H21  1  0.88808502  0.07093572  0.68659602  1  0  0.127438  0  0.925247  0  0  0.140809  0  0.976824  0  0  0.144261  0  0.975351  0  0  0.121227  0.138303  0  0.977972  0
H  H22  1  0.13164505  0.14470776  0.35903993  1  0  0.084267  0  0.941092  0  0  0.091348  0  1.002786  0  0  0.093447  0  1.001551  0  0  0.120337  0.089756  0  1.00377  0
H  H23  1  0.86835123  0.85529222  0.64096094  1  0  0.084301  0  0.941094  0  0  0.091378  0  1.002785  0  0  0.093486  0  1.00154  0  0  0.120368  0.089788  0  1.003772  0
H  H24  1  0.55800406  0.09654176  0.22369042  1  0  0.086331  0  0.94676  0  0  0.092338  0  1.013979  0  0  0.094368  0  1.012905  0  0  0.119528  0.091013  0  1.014504  0
H  H25  1  0.44199309  0.90345914  0.77631109  1  0  0.086332  0  0.946736  0  0  0.092345  0  1.013954  0  0  0.09437  0  1.012889  0  0  0.11952  0.091019  0  1.014486  0
H  H26  1  0.55819736  0.87827765  0.17464931  1  0  0.138693  0  0.949036  0  0  0.143701  0  1.014756  0  0  0.147254  0  1.012886  0  0  0.11993  0.141014  0  1.016601  0
H  H27  1  0.44179979  0.12172324  0.82535221  1  0  0.138695  0  0.949126  0  0  0.143708  0  1.014839  0  0  0.14727  0  1.012961  0  0  0.119955  0.14102  0  1.016679  0
C  C28  1  0.10182397  0.78870754  0.88802566  1  0  0.149647  0  3.683969  0  0  0.119031  0  3.941806  0  0  0.126014  0  3.958449  0  0  0.057504  0.114093  0  3.93145  0
C  C29  1  0.89817798  0.21129058  0.11197226  1  0  0.149678  0  3.683981  0  0  0.119061  0  3.941824  0  0  0.126046  0  3.958464  0  0  0.057492  0.11411  0  3.93148  0
C  C30  1  0.11239333  0.91059141  0.85502097  1  0  -0.109855  0  3.716484  0  0  -0.1239  0  3.967221  0  0  -0.130012  0  3.988322  0  0  -0.07898  -0.119988  0  3.953332  0
C  C31  1  0.88760824  0.08940856  0.14497769  1  0  -0.109911  0  3.716522  0  0  -0.123949  0  3.967261  0  0  -0.130059  0  3.988361  0  0  -0.078986  -0.120033  0  3.953371  0
C  C32  1  0.17729213  0.97852260  0.91615662  1  0  -0.0012  0  3.708575  0  0  -0.015346  0  3.955237  0  0  -0.013378  0  3.975037  0  0  -0.063597  -0.016498  0  3.941487  0
C  C33  1  0.82271067  0.02147644  0.08384195  1  0  -0.001202  0  3.708642  0  0  -0.015372  0  3.95533  0  0  -0.013411  0  3.975128  0  0  -0.063611  -0.016526  0  3.941579  0
C  C34  1  0.23028905  0.92301671  0.00862424  1  0  -0.125622  0  3.692001  0  0  -0.151133  0  3.946279  0  0  -0.156883  0  3.967952  0  0  -0.078331  -0.147342  0  3.932406  0
C  C35  1  0.76971357  0.07698325  0.99137429  1  0  -0.125591  0  3.692007  0  0  -0.15112  0  3.946241  0  0  -0.156872  0  3.967917  0  0  -0.078326  -0.147337  0  3.932371  0
C  C36  1  0.21323367  0.80157928  0.03736742  1  0  0.156395  0  3.781828  0  0  0.154616  0  4.033246  0  0  0.158688  0  4.053566  0  0  0.121797  0.151432  0  4.020178  0
C  C37  1  0.78676789  0.19842069  0.96263204  1  0  0.156318  0  3.782018  0  0  0.154633  0  4.033313  0  0  0.158706  0  4.053633  0  0  0.121811  0.151453  0  4.020241  0
C  C38  1  0.26465527  0.73115743  0.13145968  1  0  0.268552  0  3.676532  0  0  0.227058  0  3.949881  0  0  0.241352  0  3.961651  0  0  0.245988  0.217522  0  3.941885  0
C  C39  1  0.73534561  0.26884069  0.86853916  1  0  0.268535  0  3.676554  0  0  0.227015  0  3.949869  0  0  0.241313  0  3.961639  0  0  0.245943  0.217486  0  3.941861  0
C  C40  1  0.35900873  0.66472781  0.27870744  1  0  0.302219  0  3.667834  0  0  0.264995  0  3.93854  0  0  0.279604  0  3.950238  0  0  0.250448  0.255035  0  3.930769  0
C  C41  1  0.64099072  0.33527217  0.72129307  1  0  0.302423  0  3.667647  0  0  0.265131  0  3.93844  0  0  0.279756  0  3.950114  0  0  0.250495  0.255165  0  3.930675  0
C  C42  1  0.43086707  0.66270074  0.37452352  1  0  0.037795  0  3.787923  0  0  0.050499  0  4.030844  0  0  0.051424  0  4.053012  0  0  0.009911  0.049963  0  4.016218  0
C  C43  1  0.56913238  0.33729923  0.62547618  1  0  0.037693  0  3.787956  0  0  0.05042  0  4.030879  0  0  0.051342  0  4.053044  0  0  0.009905  0.049887  0  4.016254  0
C  C44  1  0.57647781  0.61304020  0.36887020  1  0  -0.12003  0  3.655807  0  0  -0.142307  0  3.906339  0  0  -0.148529  0  3.927577  0  0  -0.069673  -0.138825  0  3.892729  0
C  C45  1  0.42352146  0.38696070  0.63113027  1  0  -0.120021  0  3.655818  0  0  -0.142279  0  3.906345  0  0  -0.148504  0  3.927585  0  0  -0.069682  -0.138804  0  3.892739  0
C  C46  1  0.64025439  0.61231444  0.46155114  1  0  0.141012  0  3.669555  0  0  0.11131  0  3.921587  0  0  0.117894  0  3.939086  0  0  0.055804  0.107527  0  3.908634  0
C  C47  1  0.35974487  0.38768645  0.53845013  1  0  0.141008  0  3.66949  0  0  0.11131  0  3.921576  0  0  0.117893  0  3.939074  0  0  0.055824  0.107523  0  3.908618  0
C  C48  1  0.42614261  0.70224446  0.56115635  1  0  0.131204  0  3.711839  0  0  0.101966  0  3.96157  0  0  0.107962  0  3.980099  0  0  0.047667  0.098224  0  3.948814  0
C  C49  1  0.57385807  0.29775459  0.43884406  1  0  0.131215  0  3.711809  0  0  0.101974  0  3.961546  0  0  0.107973  0  3.980071  0  0  0.047671  0.098225  0  3.948796  0
C  C50  1  0.35449726  0.70896840  0.47211759  1  0  -0.141359  0  3.721127  0  0  -0.163129  0  3.970194  0  0  -0.169571  0  3.991514  0  0  -0.079199  -0.158975  0  3.955521  0
C  C51  1  0.64549989  0.29103249  0.52788393  1  0  -0.141319  0  3.721155  0  0  -0.163062  0  3.970199  0  0  -0.169504  0  3.991518  0  0  -0.079199  -0.158919  0  3.955537  0
C  C52  1  0.33436689  0.89059585  0.24067476  1  0  0.226191  0  3.771955  0  0  0.214163  0  4.026524  0  0  0.222394  0  4.047495  0  0  0.110203  0.209455  0  4.011345  0
C  C53  1  0.66563026  0.10940505  0.75932675  1  0  0.226176  0  3.771902  0  0  0.214111  0  4.026548  0  0  0.222336  0  4.047522  0  0  0.110181  0.209412  0  4.011353  0
C  C54  1  0.21217863  0.96385217  0.29335349  1  0  -0.198597  0  3.717123  0  0  -0.222271  0  3.97342  0  0  -0.229407  0  3.993151  0  0  -0.081115  -0.216905  0  3.959051  0
C  C55  1  0.78781977  0.03614780  0.70664713  1  0  -0.198598  0  3.717072  0  0  -0.222256  0  3.973389  0  0  -0.229388  0  3.99312  0  0  -0.081112  -0.216888  0  3.959021  0
C  C56  1  0.22309210  0.08203032  0.31860786  1  0  0.138785  0  3.716231  0  0  0.112673  0  3.965014  0  0  0.118876  0  3.983551  0  0  0.051704  0.108954  0  3.951514  0
C  C57  1  0.77690543  0.91796874  0.68139211  1  0  0.13877  0  3.716155  0  0  0.112653  0  3.964948  0  0  0.118848  0  3.983481  0  0  0.0517  0.108928  0  3.951463  0
C  C58  1  0.46242130  0.05471686  0.24428371  1  0  0.157482  0  3.670646  0  0  0.128308  0  3.92034  0  0  0.135444  0  3.937004  0  0  0.06235  0.124098  0  3.907945  0
C  C59  1  0.53757672  0.94528496  0.75571684  1  0  0.157493  0  3.67062  0  0  0.12832  0  3.920327  0  0  0.135456  0  3.936992  0  0  0.06237  0.124107  0  3.907941  0
C  C60  1  0.46287807  0.93404091  0.21699898  1  0  -0.162364  0  3.652159  0  0  -0.183414  0  3.902528  0  0  -0.190045  0  3.920649  0  0  -0.065561  -0.179305  0  3.890154  0
C  C61  1  0.53711822  0.06595907  0.78300188  1  0  -0.162317  0  3.65221  0  0  -0.183385  0  3.902649  0  0  -0.190021  0  3.920763  0  0  -0.065563  -0.179273  0  3.890256  0
N  N62  1  0.14994139  0.73589722  0.97755916  1  0  -0.340424  0  3.197054  0  0  -0.279497  0  3.451235  0  0  -0.295947  0  3.470739  0  0  -0.312562  -0.268629  0  3.438604  0
N  N63  1  0.85006141  0.26410182  0.02244021  1  0  -0.340376  0  3.19716  0  0  -0.279489  0  3.451317  0  0  -0.295941  0  3.47082  0  0  -0.312536  -0.268614  0  3.438678  0
N  N64  1  0.26238891  0.61180056  0.14794012  1  0  -0.251903  0  3.151943  0  0  -0.205117  0  3.43783  0  0  -0.218649  0  3.453981  0  0  -0.221918  -0.196297  0  3.426831  0
N  N65  1  0.73761390  0.38819848  0.85205845  1  0  -0.251889  0  3.151859  0  0  -0.205106  0  3.437763  0  0  -0.218641  0  3.45392  0  0  -0.221909  -0.196287  0  3.426759  0
N  N66  1  0.31935332  0.57056540  0.23905728  1  0  -0.247957  0  3.098447  0  0  -0.202791  0  3.380974  0  0  -0.216072  0  3.396334  0  0  -0.208019  -0.193691  0  3.37012  0
N  N67  1  0.68064825  0.42943457  0.76094138  1  0  -0.248016  0  3.098393  0  0  -0.202849  0  3.380987  0  0  -0.216134  0  3.396344  0  0  -0.208073  -0.193752  0  3.370142  0
N  N68  1  0.32467619  0.76849948  0.21392785  1  0  -0.188005  0  3.463416  0  0  -0.106029  0  3.683026  0  0  -0.12274  0  3.701687  0  0  -0.198373  -0.094773  0  3.669664  0
N  N69  1  0.67532097  0.23150142  0.78607287  1  0  -0.188073  0  3.463421  0  0  -0.106042  0  3.683036  0  0  -0.122754  0  3.70169  0  0  -0.198363  -0.094786  0  3.669665  0
N  N70  1  0.56611519  0.65538641  0.55574299  1  0  -0.321241  0  3.24836  0  0  -0.243979  0  3.508154  0  0  -0.261891  0  3.527373  0  0  -0.323453  -0.231617  0  3.494506  0
N  N71  1  0.43388530  0.34461356  0.44425739  1  0  -0.321257  0  3.24832  0  0  -0.243968  0  3.508102  0  0  -0.261882  0  3.527323  0  0  -0.323445  -0.231599  0  3.494443  0
N  N72  1  0.34561055  0.12681058  0.29388745  1  0  -0.312644  0  3.217135  0  0  -0.243288  0  3.476038  0  0  -0.259472  0  3.49349  0  0  -0.317341  -0.231396  0  3.462943  0
N  N73  1  0.65438556  0.87319032  0.70611259  1  0  -0.312697  0  3.217081  0  0  -0.243316  0  3.475965  0  0  -0.259501  0  3.493426  0  0  -0.317366  -0.231424  0  3.462882  0
N  N74  1  0.94034527  0.55664050  0.10965102  1  0  -0.616575  0  2.781601  0  0  -0.570417  0  3.091047  0  0  -0.597351  0  3.098672  0  0  -0.340225  -0.551068  0  3.08474  0
N  N75  1  0.05965649  0.44335855  0.89034687  1  0  -0.616594  0  2.781847  0  0  -0.570429  0  3.091272  0  0  -0.597358  0  3.098893  0  0  -0.340215  -0.551087  0  3.084971  0
N  N76  1  0.90128850  0.64912198  0.16020406  1  0  0.419732  0  4.227591  0  0  0.450699  0  4.510945  0  0  0.467037  0  4.540655  0  0  0.082573  0.43969  0  4.490361  0
N  N77  1  0.09871287  0.35087891  0.83979616  1  0  0.419707  0  4.227559  0  0  0.45068  0  4.510921  0  0  0.467018  0  4.540633  0  0  0.082531  0.439674  0  4.490336  0
N  N78  1  0.86517873  0.73749020  0.21075514  1  0  -0.408215  0  2.344833  0  0  -0.414166  0  2.556229  0  0  -0.419793  0  2.565245  0  0  -0.217306  -0.409761  0  2.549952  0
N  N79  1  0.13482320  0.26250792  0.78924439  1  0  -0.408187  0  2.344565  0  0  -0.414144  0  2.555965  0  0  -0.419771  0  2.564978  0  0  -0.217291  -0.409744  0  2.549687  0
N  N80  1  0.23933022  0.32636199  0.11763688  1  0  -0.606224  0  2.71366  0  0  -0.561354  0  3.015522  0  0  -0.588007  0  3.023862  0  0  -0.330123  -0.544574  0  3.010874  0
N  N81  1  0.76067010  0.67363890  0.88236267  1  0  -0.606249  0  2.713437  0  0  -0.561354  0  3.015296  0  0  -0.588011  0  3.023636  0  0  -0.330132  -0.544571  0  3.010648  0
N  N82  1  0.31420978  0.24497399  0.06443617  1  0  0.400392  0  4.23827  0  0  0.434145  0  4.516932  0  0  0.450132  0  4.547239  0  0  0.076678  0.423459  0  4.497443  0
N  N83  1  0.68578805  0.75502875  0.93556516  1  0  0.400484  0  4.23816  0  0  0.434217  0  4.51683  0  0  0.450206  0  4.547134  0  0  0.076731  0.423532  0  4.497344  0
N  N84  1  0.38574844  0.16446118  0.01516794  1  0  -0.386817  0  2.412899  0  0  -0.384491  0  2.639837  0  0  -0.392036  0  2.651158  0  0  -0.191974  -0.380511  0  2.633073  0
N  N85  1  0.61424976  0.83553972  0.98483345  1  0  -0.386869  0  2.413056  0  0  -0.384531  0  2.639994  0  0  -0.392074  0  2.651313  0  0  -0.191989  -0.380549  0  2.633236  0
N  N86  1  0.10638977  0.37999630  0.39333540  1  0  -0.594378  0  2.643817  0  0  -0.570853  0  2.926655  0  0  -0.59318  0  2.933041  0  0  -0.338577  -0.555831  0  2.921978  0
N  N87  1  0.89361017  0.62000644  0.60666568  1  0  -0.594283  0  2.643773  0  0  -0.570785  0  2.926623  0  0  -0.59311  0  2.933009  0  0  -0.338525  -0.555769  0  2.921949  0
N  N88  1  0.99487018  0.37332927  0.36432942  1  0  0.391879  0  4.295071  0  0  0.43448  0  4.572587  0  0  0.450425  0  4.602485  0  0  0.069452  0.423821  0  4.552776  0
N  N89  1  0.00513224  0.62667162  0.63567149  1  0  0.391868  0  4.294923  0  0  0.434466  0  4.572453  0  0  0.450411  0  4.602349  0  0  0.069444  0.423816  0  4.552631  0
N  N90  1  0.88346972  0.36626784  0.34041170  1  0  -0.453984  0  2.405609  0  0  -0.454343  0  2.629304  0  0  -0.464011  0  2.640029  0  0  -0.235131  -0.447976  0  2.622397  0
N  N91  1  0.11653374  0.63373304  0.65958908  1  0  -0.454057  0  2.405519  0  0  -0.454387  0  2.629222  0  0  -0.464055  0  2.639944  0  0  -0.235157  -0.448022  0  2.622309  0
N  N92  1  0.45064590  0.67403170  0.81233359  1  0  -0.504853  0  2.608617  0  0  -0.481001  0  2.885335  0  0  -0.499166  0  2.895212  0  0  -0.267511  -0.468421  0  2.878384  0
N  N93  1  0.54935390  0.32596643  0.18766778  1  0  -0.504866  0  2.608579  0  0  -0.480973  0  2.885238  0  0  -0.499145  0  2.895116  0  0  -0.267486  -0.468391  0  2.878278  0
N  N94  1  0.41544075  0.58322175  0.85509441  1  0  0.40764  0  4.253003  0  0  0.438946  0  4.535868  0  0  0.455916  0  4.565833  0  0  0.076886  0.42774  0  4.515439  0
N  N95  1  0.58456114  0.41678190  0.14490400  1  0  0.407446  0  4.253284  0  0  0.438739  0  4.536157  0  0  0.455711  0  4.566121  0  0  0.076769  0.427535  0  4.515725  0
N  N96  1  0.38177686  0.49117773  0.89650363  1  0  -0.494757  0  2.579761  0  0  -0.481919  0  2.860356  0  0  -0.497686  0  2.867869  0  0  -0.279573  -0.471118  0  2.855048  0
N  N97  1  0.61822277  0.50882132  0.10349690  1  0  -0.494564  0  2.580088  0  0  -0.481722  0  2.860675  0  0  -0.497481  0  2.868182  0  0  -0.279488  -0.470928  0  2.855371  0
