# generated using pymatgen
data_AlH6C13BrO5F
_symmetry_space_group_name_H-M   'P 1'
_cell_length_a   6.63283749
_cell_length_b   11.13797399
_cell_length_c   15.22459573
_cell_angle_alpha   85.51979070
_cell_angle_beta   79.21206515
_cell_angle_gamma   72.50865014
_symmetry_Int_Tables_number   1
_chemical_formula_structural   AlH6C13BrO5F
_chemical_formula_sum   'Al2 H12 C26 Br2 O10 F2'
_cell_volume   1053.48710261
_cell_formula_units_Z   2
loop_
 _symmetry_equiv_pos_site_id
 _symmetry_equiv_pos_as_xyz
  1  'x, y, z'
loop_
 _atom_site_type_symbol
 _atom_site_label
 _atom_site_symmetry_multiplicity
 _atom_site_fract_x
 _atom_site_fract_y
 _atom_site_fract_z
 _atom_site_occupancy
 _atom_site_pbe_bader_charge
 _atom_site_pbe_bader_spin_density
 _atom_site_pbe_cm5_charge
 _atom_site_pbe_ddec_charge
 _atom_site_pbe_ddec_spin_density
 _atom_site_pbe_ddec_sum_bond_order
 _atom_site_pbe_magmom
Al  Al0  1  0.49535024  0.49525338  0.50282966  1  2.502197  0  0.395532  1.640463  0  2.580406  0
Al  Al1  1  0.99333361  0.49907822  0.50256653  1  2.501861  0  0.394315  1.642201  0  2.578335  0
H  H2  1  0.29134189  0.34922076  0.55538627  1  0.62913  0  0.354622  0.433912  0  0.848548  0
H  H3  1  0.76177719  0.55825107  0.39513425  1  0.639272  0  0.343621  0.416918  0  0.88168  0
H  H4  1  0.85163501  0.46605833  0.95004240  1  0.085493  0  0.108577  0.128461  0  1.00885  0
H  H5  1  0.19976613  0.42846734  0.05398690  1  0.084004  0  0.110599  0.133475  0  0.993973  0
H  H6  1  0.60388583  0.58972894  0.23647177  1  0.098615  0  0.106049  0.107639  0  1.012329  0
H  H7  1  0.68801230  0.60609949  0.07131007  1  0.072871  0  0.103522  0.108298  0  0.999492  0
H  H8  1  0.28588534  0.55815898  0.76178462  1  0.113619  0  0.114174  0.124292  0  0.992296  0
H  H9  1  0.18045133  0.57049640  0.92707740  1  0.088039  0  0.101328  0.103557  0  1.012213  0
H  H10  1  0.23939553  0.22901783  0.38318428  1  0.1066  0  0.11004  0.134098  0  1.020327  0
H  H11  1  0.48485059  0.76177315  0.40547077  1  0.142902  0  0.112164  0.132336  0  1.037368  0
H  H12  1  0.75763324  0.87734819  0.56204246  1  0.092952  0  0.115409  0.124964  0  0.974131  0
H  H13  1  0.63845634  0.11291610  0.55576130  1  0.050492  0  0.109797  0.114467  0  0.985987  0
C  C14  1  0.86083002  0.26836656  0.49168336  1  1.544163  0  0.267528  0.64953  0  4.084569  0
C  C15  1  0.67640522  0.50657394  0.66284341  1  1.573042  0  0.271753  0.661772  0  4.097202  0
C  C16  1  0.13890938  0.72297513  0.50465276  1  1.588982  0  0.270213  0.642911  0  4.095031  0
C  C17  1  0.30902740  0.49766296  0.33890243  1  1.609678  0  0.260421  0.649492  0  4.114866  0
C  C18  1  0.62336162  0.51222038  0.76222467  1  0.073852  0  -0.020514  -0.159051  0  3.96345  0
C  C19  1  0.35272729  0.50438053  0.23933138  1  0.064235  0  -0.028146  -0.171329  0  3.983088  0
C  C20  1  0.77787693  0.48813010  0.81791630  1  0.403341  0  0.109637  0.289094  0  4.045099  0
C  C21  1  0.72358853  0.49129917  0.91040869  1  0.023513  0  -0.101586  -0.269436  0  3.984326  0
C  C22  1  0.24007799  0.46210836  0.18490515  1  0.445406  0  0.106457  0.288393  0  4.048881  0
C  C23  1  0.28705718  0.46795470  0.09223613  1  0.034062  0  -0.10043  -0.266922  0  3.97265  0
C  C24  1  0.51569688  0.55542413  0.19549050  1  -0.089999  0  -0.07661  -0.050591  0  3.97938  0
C  C25  1  0.56411831  0.56310245  0.10293048  1  0.001576  0  -0.095189  -0.151668  0  3.977803  0
C  C26  1  0.40744510  0.54050733  0.80423699  1  -0.038439  0  -0.071755  -0.052562  0  3.967108  0
C  C27  1  0.34959070  0.54531700  0.89667494  1  -0.033139  0  -0.094896  -0.152663  0  3.985437  0
C  C28  1  0.50744970  0.51986302  0.95127565  1  -0.021977  0  0.001548  0.104891  0  4.004697  0
C  C29  1  0.45135895  0.51827144  0.04971209  1  -0.020404  0  0.003169  0.110571  0  3.996072  0
C  C30  1  0.93946007  0.12847989  0.48471773  1  0.014743  0  -0.007327  -0.079676  0  3.934191  0
C  C31  1  0.15114992  0.06339798  0.44114231  1  0.013033  0  0.001958  0.070002  0  3.950417  0
C  C32  1  0.80062686  0.06133015  0.52541015  1  0.031375  0  -0.079611  -0.087994  0  3.996049  0
C  C33  1  0.29069319  0.12687849  0.38902035  1  0.106081  0  -0.094126  -0.174825  0  3.943402  0
C  C34  1  0.48945483  0.06135432  0.34381654  1  -0.097055  0  -0.021537  0.063508  0  3.988267  0
C  C35  1  0.07574757  0.86294578  0.49379521  1  0.003002  0  -0.004388  -0.076013  0  3.932743  0
C  C36  1  0.86761464  0.92932729  0.52949082  1  -0.0449  0  -0.078352  -0.088845  0  3.988599  0
C  C37  1  0.22111809  0.92808421  0.44655255  1  0.000794  0  0.00284  0.070573  0  3.946977  0
C  C38  1  0.42774813  0.86371286  0.40036683  1  0.030462  0  -0.092503  -0.170281  0  3.943521  0
C  C39  1  0.55856568  0.92791911  0.34955588  1  -0.152481  0  -0.020695  0.064263  0  3.983424  0
Br  Br40  1  0.66380912  0.15363449  0.27437745  1  -0.035964  0  0.035724  -0.040339  0  1.457448  0
Br  Br41  1  0.82799492  0.83265989  0.28670605  1  -0.051243  0  0.032317  -0.049638  0  1.457548  0
O  O42  1  0.66316235  0.32085122  0.48811061  1  -1.260368  0  -0.237286  -0.603674  0  2.355525  0
O  O43  1  0.85571857  0.51985306  0.62418031  1  -1.249375  0  -0.231211  -0.581289  0  2.344607  0
O  O44  1  0.99764794  0.66962426  0.49839898  1  -1.25348  0  -0.229401  -0.584094  0  2.363529  0
O  O45  1  0.45503170  0.50985530  0.37843904  1  -1.262528  0  -0.238372  -0.599558  0  2.356914  0
O  O46  1  0.32773598  0.66697231  0.51910749  1  -1.259886  0  -0.231547  -0.57513  0  2.348483  0
O  O47  1  0.12979519  0.48313839  0.37725887  1  -1.248517  0  -0.239986  -0.60374  0  2.378799  0
O  O48  1  0.99470282  0.32413733  0.50456648  1  -1.260074  0  -0.236519  -0.600786  0  2.353013  0
O  O49  1  0.53488234  0.48835203  0.62373400  1  -1.253922  0  -0.23089  -0.582907  0  2.34324  0
O  O50  1  0.25755403  0.43793872  0.53886305  1  -1.431814  0  -0.447457  -0.986886  0  2.198669  0
O  O51  1  0.73549642  0.54994263  0.45994132  1  -1.444801  0  -0.449071  -0.983846  0  2.204683  0
F  F52  1  0.99055909  0.45457868  0.78300349  1  -0.6276  0  -0.087544  -0.130598  0  1.365818  0
F  F53  1  0.08384261  0.40830774  0.22127856  1  -0.631422  0  -0.096364  -0.135739  0  1.353822  0
