# generated using pymatgen
data_NiH16(C3O4)2
_symmetry_space_group_name_H-M   'P 1'
_cell_length_a   4.69042880
_cell_length_b   9.63086662
_cell_length_c   11.69069651
_cell_angle_alpha   89.99993465
_cell_angle_beta   98.67340951
_cell_angle_gamma   89.99995749
_symmetry_Int_Tables_number   1
_chemical_formula_structural   NiH16(C3O4)2
_chemical_formula_sum   'Ni2 H32 C12 O16'
_cell_volume   522.06320390
_cell_formula_units_Z   2
loop_
 _symmetry_equiv_pos_site_id
 _symmetry_equiv_pos_as_xyz
  1  'x, y, z'
loop_
 _atom_site_type_symbol
 _atom_site_label
 _atom_site_symmetry_multiplicity
 _atom_site_fract_x
 _atom_site_fract_y
 _atom_site_fract_z
 _atom_site_occupancy
 _atom_site_pbe_bader_charge
 _atom_site_pbe_bader_spin_density
 _atom_site_pbe_cm5_charge
 _atom_site_pbe_ddec_charge
 _atom_site_pbe_ddec_spin_density
 _atom_site_pbe_ddec_sum_bond_order
 _atom_site_pbe_magmom
Ni  Ni0  1  0.00000253  0.49999881  0.50000056  1  1.229691  1.620814  0.609696  0.984112  1.797906  2.21614  1.611
Ni  Ni1  1  0.00000120  0.99999827  0.99999973  1  1.229681  1.620812  0.609676  0.98406  1.797904  2.216171  1.611
H  H2  1  0.11620954  0.30466642  0.37617505  1  0.655456  4.9e-05  0.290169  0.374827  6.4e-05  0.970622  0.0
H  H3  1  0.11620966  0.19533273  0.87617619  1  0.655449  5e-05  0.290174  0.374819  6.5e-05  0.970633  0.0
H  H4  1  0.88378773  0.69534183  0.62382299  1  0.655452  5e-05  0.290186  0.37483  6.5e-05  0.970618  0.0
H  H5  1  0.88378977  0.80466514  0.12382369  1  0.655465  4.9e-05  0.290176  0.374825  6.4e-05  0.970628  0.0
H  H6  1  0.40605652  0.32414141  0.47467753  1  0.643644  0.000188  0.302618  0.394699  0.000251  0.928046  0.0
H  H7  1  0.40606107  0.17586834  0.97467813  1  0.643639  0.000188  0.302618  0.394702  0.000252  0.928058  0.0
H  H8  1  0.59394076  0.67585853  0.52532137  1  0.643635  0.000188  0.302634  0.394714  0.000251  0.928049  0.0
H  H9  1  0.59393621  0.82414095  0.02532248  1  0.643623  0.000188  0.302596  0.394681  0.000251  0.92808  0.0
H  H10  1  0.58374085  0.43265823  0.62358491  1  0.634928  0.000251  0.293677  0.377491  0.00018  0.972466  0.0
H  H11  1  0.58374221  0.06734201  0.12358357  1  0.634941  0.000251  0.293685  0.377516  0.00018  0.972428  0.0
H  H12  1  0.41625643  0.56734172  0.37640544  1  0.634921  0.000251  0.29365  0.37748  0.000181  0.972478  0.0
H  H13  1  0.41625722  0.93265794  0.87640605  1  0.63492  0.000251  0.293645  0.377481  0.000181  0.972481  0.0
H  H14  1  0.81317389  0.30760517  0.64425819  1  0.661283  0.000286  0.29477  0.390426  0.000332  0.944346  0.001
H  H15  1  0.81317663  0.19239520  0.14425834  1  0.661278  0.000286  0.294775  0.390438  0.000332  0.944328  0.001
H  H16  1  0.18682339  0.69239789  0.35573900  1  0.661234  0.000286  0.294761  0.390402  0.000332  0.944364  0.001
H  H17  1  0.18682280  0.80760267  0.85573983  1  0.661201  0.000286  0.294762  0.390406  0.000332  0.944357  0.001
H  H18  1  0.34045300  0.34438763  0.13673699  1  0.074602  0.000574  0.103242  0.130237  0.000252  0.996101  0.0
H  H19  1  0.34044690  0.15561145  0.63673699  1  0.074602  0.000574  0.103251  0.130249  0.000252  0.996048  0.0
H  H20  1  0.65955075  0.65561128  0.86326230  1  0.07469  0.000574  0.103258  0.130252  0.000252  0.996057  0.0
H  H21  1  0.65955038  0.84438953  0.36326276  1  0.07461  0.000574  0.103246  0.130217  0.000252  0.996096  0.0
H  H22  1  0.33780729  0.52088163  0.17865034  1  0.038659  0.000222  0.097214  0.112807  7.3e-05  0.993322  0.0
H  H23  1  0.33780564  0.97911784  0.67864813  1  0.038662  0.000223  0.097195  0.112786  7.3e-05  0.993336  0.0
H  H24  1  0.66219861  0.47911832  0.82135165  1  0.038634  0.000222  0.097194  0.112773  7.3e-05  0.993329  0.0
H  H25  1  0.66219164  0.02088107  0.32134991  1  0.03868  0.000222  0.097214  0.112802  7.3e-05  0.993316  0.0
H  H26  1  0.73647558  0.38852286  0.02295061  1  0.040443  0.000203  0.091215  0.087548  5.8e-05  1.000418  0.0
H  H27  1  0.73647622  0.11147737  0.52295113  1  0.040446  0.000203  0.091216  0.087559  5.8e-05  1.000419  0.0
H  H28  1  0.26352386  0.61147916  0.97704841  1  0.040431  0.000203  0.091229  0.087555  5.8e-05  1.000404  0.0
H  H29  1  0.26351459  0.88852361  0.47704823  1  0.040419  0.000203  0.091205  0.08753  5.8e-05  1.000413  0.0
H  H30  1  0.76987651  0.56166930  0.07207270  1  0.022569  0.000734  0.088064  0.085605  0.00043  1.005646  0.0
H  H31  1  0.76987727  0.93832926  0.57207330  1  0.022523  0.000735  0.088065  0.085629  0.00043  1.005665  0.0
H  H32  1  0.23012293  0.43833064  0.92792719  1  0.02254  0.000735  0.088062  0.085613  0.00043  1.005651  0.0
H  H33  1  0.23012433  0.06166965  0.42792757  1  0.022566  0.000735  0.088061  0.085605  0.00043  1.005631  0.0
C  C34  1  0.70348678  0.40597517  0.25953767  1  1.504893  -0.000114  0.226496  0.65058  -0.001144  4.081671  0.0
C  C35  1  0.70348537  0.09402108  0.75953811  1  1.504863  -0.000114  0.226418  0.65048  -0.001144  4.081852  0.0
C  C36  1  0.29651697  0.59401855  0.74046076  1  1.504873  -0.000115  0.226403  0.650408  -0.001145  4.082023  0.0
C  C37  1  0.29651191  0.90597471  0.24046250  1  1.504733  -0.000113  0.226481  0.650582  -0.001144  4.081704  0.0
C  C38  1  0.47730849  0.43664624  0.15632896  1  -0.011498  0.006107  -0.171283  -0.317207  0.003783  3.933325  0.005
C  C39  1  0.47730943  0.06335396  0.65632961  1  -0.011511  0.006107  -0.171235  -0.317138  0.003782  3.933258  0.005
C  C40  1  0.52269311  0.56335266  0.84367020  1  -0.011593  0.006107  -0.171251  -0.317105  0.003783  3.933284  0.005
C  C41  1  0.52268785  0.93664598  0.34367100  1  -0.011495  0.006107  -0.171271  -0.317175  0.003783  3.933269  0.005
C  C42  1  0.61392154  0.47696348  0.04991554  1  0.002362  0.002327  -0.165275  -0.121139  0.001466  3.928368  0.002
C  C43  1  0.61392273  0.02303671  0.54991631  1  0.00238  0.002327  -0.165278  -0.121221  0.001466  3.928445  0.002
C  C44  1  0.38607790  0.52303750  0.95008434  1  -0.022226  0.002341  -0.165293  -0.121219  0.001465  3.928365  0.002
C  C45  1  0.38607671  0.97696323  0.45008529  1  -0.022239  0.002341  -0.165283  -0.121138  0.001466  3.928278  0.002
O  O46  1  0.19408224  0.31623968  0.46077289  1  -1.254056  0.061282  -0.571515  -0.752443  0.032837  2.186618  0.054
O  O47  1  0.19408458  0.18375231  0.96077248  1  -1.254014  0.061279  -0.571539  -0.75245  0.032837  2.186745  0.054
O  O48  1  0.80591504  0.68375300  0.53922687  1  -1.253997  0.061276  -0.57156  -0.752482  0.032835  2.186721  0.054
O  O49  1  0.80591054  0.81624037  0.03922629  1  -1.25404  0.06128  -0.571503  -0.752429  0.032836  2.186661  0.054
O  O50  1  0.72733274  0.37826647  0.58589086  1  -1.259506  0.05569  -0.568974  -0.78369  0.029809  2.225526  0.05
O  O51  1  0.72733161  0.12173381  0.08589010  1  -1.25952  0.055688  -0.568976  -0.783702  0.029808  2.225456  0.05
O  O52  1  0.27266885  0.62173036  0.41410316  1  -1.259465  0.055686  -0.568949  -0.783664  0.029805  2.225466  0.05
O  O53  1  0.27266782  0.87826925  0.91410294  1  -1.259476  0.055689  -0.568942  -0.783652  0.029807  2.225473  0.05
O  O54  1  0.70059244  0.48200159  0.34995502  1  -1.173188  0.060454  -0.313449  -0.579017  0.032611  2.375122  0.057
O  O55  1  0.70059151  0.01799680  0.84995738  1  -1.173209  0.060454  -0.31337  -0.578932  0.032611  2.375292  0.057
O  O56  1  0.29940915  0.51799109  0.65004585  1  -1.173253  0.060453  -0.313396  -0.578923  0.03261  2.375342  0.057
O  O57  1  0.29940793  0.98200003  0.15004421  1  -1.173018  0.060452  -0.313453  -0.579047  0.032611  2.375122  0.057
O  O58  1  0.88811225  0.31048744  0.25342966  1  -1.183126  0.001337  -0.301809  -0.54276  4.7e-05  2.17999  0.001
O  O59  1  0.88811887  0.18950890  0.75343036  1  -1.183067  0.001337  -0.301823  -0.542766  4.7e-05  2.179957  0.001
O  O60  1  0.11188934  0.68950732  0.74656864  1  -1.182984  0.001337  -0.301782  -0.542715  4.7e-05  2.18008  0.001
O  O61  1  0.11188488  0.81048793  0.24656979  1  -1.183147  0.001336  -0.301785  -0.542714  4.7e-05  2.180076  0.001
