# generated using pymatgen
data_Zn3H44C66(NO3)4
_symmetry_space_group_name_H-M   'P 1'
_cell_length_a   10.66010118
_cell_length_b   10.75531105
_cell_length_c   12.77444751
_cell_angle_alpha   83.28051596
_cell_angle_beta   75.81475656
_cell_angle_gamma   76.15005476
_symmetry_Int_Tables_number   1
_chemical_formula_structural   Zn3H44C66(NO3)4
_chemical_formula_sum   'Zn3 H44 C66 N4 O12'
_cell_volume   1376.03121730
_cell_formula_units_Z   1
loop_
 _symmetry_equiv_pos_site_id
 _symmetry_equiv_pos_as_xyz
  1  'x, y, z'
loop_
 _atom_site_type_symbol
 _atom_site_label
 _atom_site_symmetry_multiplicity
 _atom_site_fract_x
 _atom_site_fract_y
 _atom_site_fract_z
 _atom_site_occupancy
 _atom_site_hle17_bader_spin_density
 _atom_site_hle17_ddec_charge
 _atom_site_hle17_ddec_spin_density
 _atom_site_hle17_ddec_sum_bond_order
 _atom_site_hle17_magmom
 _atom_site_hse06_10hf_bader_spin_density
 _atom_site_hse06_10hf_ddec_charge
 _atom_site_hse06_10hf_ddec_spin_density
 _atom_site_hse06_10hf_ddec_sum_bond_order
 _atom_site_hse06_10hf_magmom
 _atom_site_hse06_bader_spin_density
 _atom_site_hse06_ddec_charge
 _atom_site_hse06_ddec_spin_density
 _atom_site_hse06_ddec_sum_bond_order
 _atom_site_hse06_magmom
 _atom_site_pbe_bader_spin_density
 _atom_site_pbe_cm5_charge
 _atom_site_pbe_ddec_charge
 _atom_site_pbe_ddec_spin_density
 _atom_site_pbe_ddec_sum_bond_order
 _atom_site_pbe_magmom
Zn  Zn0  1  0.49999957  0.50000067  0.00000009  1  0  1.085832  0  1.78521  0  0  0.905044  0  2.240424  0  0  0.952508  0  2.185304  0  0  0.709721  0.872119  0  2.278078  0
Zn  Zn1  1  0.64845079  0.73058760  0.14796016  1  0  1.072412  0  1.787806  0  0  0.888388  0  2.269643  0  0  0.937886  0  2.208395  0  0  0.689252  0.853788  0  2.311817  0
Zn  Zn2  1  0.35154860  0.26941252  0.85203842  1  0  1.072388  0  1.787819  0  0  0.888368  0  2.26966  0  0  0.937867  0  2.208418  0  0  0.68926  0.85377  0  2.311827  0
H  H3  1  0.77258650  0.10272841  0.55176250  1  0  0.089786  0  0.974897  0  0  0.102481  0  1.034505  0  0  0.104676  0  1.034733  0  0  0.09913  0.100913  0  1.0343  0
H  H4  1  0.22741412  0.89727858  0.44822976  1  0  0.089862  0  0.974883  0  0  0.102563  0  1.034466  0  0  0.104757  0  1.034697  0  0  0.099174  0.101001  0  1.03426  0
H  H5  1  0.11413832  0.84723083  0.37092037  1  0  0.083269  0  0.991728  0  0  0.09324  0  1.056545  0  0  0.095548  0  1.056536  0  0  0.095597  0.091694  0  1.056489  0
H  H6  1  0.88586302  0.15277318  0.62907748  1  0  0.083294  0  0.991782  0  0  0.093298  0  1.05655  0  0  0.095603  0  1.056532  0  0  0.095579  0.091719  0  1.056527  0
H  H7  1  0.77276662  0.38908551  0.89140791  1  0  0.082178  0  0.97376  0  0  0.090449  0  1.038979  0  0  0.092727  0  1.036768  0  0  0.117443  0.088795  0  1.040536  0
H  H8  1  0.22723347  0.61091170  0.10859234  1  0  0.082172  0  0.973735  0  0  0.090446  0  1.03896  0  0  0.092727  0  1.036744  0  0  0.117436  0.088792  0  1.040518  0
H  H9  1  0.31653788  0.63290671  0.61632138  1  0  0.093785  0  0.956056  0  0  0.103657  0  1.019364  0  0  0.106449  0  1.018818  0  0  0.100053  0.101631  0  1.019907  0
H  H10  1  0.68346049  0.36708564  0.38368042  1  0  0.093791  0  0.956028  0  0  0.103682  0  1.019318  0  0  0.106473  0  1.018773  0  0  0.100064  0.101655  0  1.019862  0
H  H11  1  0.99008551  0.09559999  0.21791725  1  0  0.097607  0  0.952599  0  0  0.108394  0  1.014739  0  0  0.110369  0  1.015596  0  0  0.104914  0.107065  0  1.014075  0
H  H12  1  0.00990901  0.90439227  0.78208612  1  0  0.097618  0  0.952642  0  0  0.108405  0  1.014782  0  0  0.110381  0  1.015636  0  0  0.104877  0.107076  0  1.014122  0
H  H13  1  0.32049987  0.96104471  0.91549216  1  0  0.109529  0  0.949691  0  0  0.119654  0  1.010275  0  0  0.122377  0  1.010551  0  0  0.108925  0.117603  0  1.010481  0
H  H14  1  0.67949423  0.03895718  0.08451048  1  0  0.109541  0  0.949652  0  0  0.119665  0  1.010235  0  0  0.122387  0  1.01051  0  0  0.108911  0.117614  0  1.010441  0
H  H15  1  0.72618877  0.72990461  0.73570426  1  0  0.098717  0  0.934192  0  0  0.111527  0  0.988327  0  0  0.114941  0  0.98638  0  0  0.103969  0.109077  0  0.989705  0
H  H16  1  0.27381617  0.27009649  0.26429702  1  0  0.098689  0  0.934184  0  0  0.111521  0  0.988301  0  0  0.114933  0  0.986356  0  0  0.10397  0.109073  0  0.989677  0
H  H17  1  0.01601091  0.52158840  0.91201744  1  0  0.098384  0  0.961991  0  0  0.106732  0  1.028926  0  0  0.110062  0  1.026901  0  0  0.100876  0.104326  0  1.030425  0
H  H18  1  0.98399063  0.47840684  0.08798660  1  0  0.09841  0  0.961966  0  0  0.106744  0  1.028915  0  0  0.110072  0  1.026893  0  0  0.10088  0.104338  0  1.030414  0
H  H19  1  0.97928082  0.25200823  0.93393965  1  0  0.121505  0  0.945367  0  0  0.1317  0  1.004187  0  0  0.135377  0  1.002296  0  0  0.114407  0.129158  0  1.005463  0
H  H20  1  0.02071877  0.74798705  0.06606087  1  0  0.121491  0  0.945409  0  0  0.131671  0  1.004243  0  0  0.135349  0  1.002349  0  0  0.114391  0.129129  0  1.005518  0
H  H21  1  0.97055190  0.78499192  0.27240954  1  0  0.098421  0  0.944568  0  0  0.109952  0  1.003224  0  0  0.113352  0  1.001179  0  0  0.101748  0.107474  0  1.004667  0
H  H22  1  0.02945113  0.21501309  0.72758709  1  0  0.09845  0  0.944545  0  0  0.109951  0  1.003239  0  0  0.113344  0  1.001217  0  0  0.101772  0.107474  0  1.004677  0
H  H23  1  0.55420916  0.33261417  0.20121636  1  0  0.087646  0  0.923538  0  0  0.100724  0  0.977122  0  0  0.102615  0  0.975547  0  0  0.123969  0.099486  0  0.97795  0
H  H24  1  0.44579074  0.66739173  0.79878162  1  0  0.087711  0  0.923507  0  0  0.100768  0  0.977086  0  0  0.102661  0  0.975508  0  0  0.124009  0.09953  0  0.977914  0
H  H25  1  0.19019213  0.50595139  0.74263925  1  0  0.107745  0  0.962079  0  0  0.117314  0  1.025476  0  0  0.120648  0  1.023628  0  0  0.102607  0.114868  0  1.027009  0
H  H26  1  0.80980724  0.49404478  0.25736515  1  0  0.107663  0  0.96209  0  0  0.117278  0  1.025436  0  0  0.120617  0  1.02359  0  0  0.102568  0.114833  0  1.026967  0
H  H27  1  0.19305227  0.02692575  0.25655767  1  0  0.107187  0  0.961885  0  0  0.116638  0  1.024934  0  0  0.119268  0  1.025281  0  0  0.108034  0.114849  0  1.024775  0
H  H28  1  0.80694689  0.97307527  0.74344402  1  0  0.10719  0  0.961877  0  0  0.116637  0  1.024928  0  0  0.119262  0  1.025284  0  0  0.108068  0.114849  0  1.024766  0
H  H29  1  0.48788788  0.62445973  0.44320210  1  0  0.107751  0  0.945158  0  0  0.118437  0  1.002102  0  0  0.121754  0  1.000395  0  0  0.106407  0.115955  0  1.003531  0
H  H30  1  0.51211175  0.37553937  0.55679965  1  0  0.107761  0  0.945172  0  0  0.11845  0  1.002112  0  0  0.121768  0  1.000405  0  0  0.106415  0.115967  0  1.003542  0
H  H31  1  0.75030260  0.18548832  0.25772853  1  0  0.108768  0  0.954564  0  0  0.118321  0  1.015834  0  0  0.120611  0  1.016806  0  0  0.108887  0.116721  0  1.015326  0
H  H32  1  0.24969080  0.81451645  0.74227400  1  0  0.108702  0  0.954664  0  0  0.118267  0  1.015925  0  0  0.120555  0  1.016899  0  0  0.10885  0.116667  0  1.015414  0
H  H33  1  0.53080617  0.82524804  0.95255618  1  0  0.086312  0  0.972918  0  0  0.096673  0  1.032543  0  0  0.098624  0  1.031247  0  0  0.117092  0.095194  0  1.033594  0
H  H34  1  0.46918889  0.17475392  0.04744390  1  0  0.086193  0  0.97298  0  0  0.096663  0  1.0325  0  0  0.098622  0  1.031181  0  0  0.117095  0.095181  0  1.033558  0
H  H35  1  0.90301693  0.72529243  0.56716441  1  0  0.093687  0  0.96469  0  0  0.105418  0  1.024428  0  0  0.107435  0  1.025299  0  0  0.099814  0.103997  0  1.023879  0
H  H36  1  0.09698944  0.27470676  0.43283753  1  0  0.093638  0  0.964703  0  0  0.105425  0  1.024381  0  0  0.10744  0  1.025251  0  0  0.099846  0.104004  0  1.023831  0
H  H37  1  0.41276437  0.89165688  0.27839268  1  0  0.098982  0  0.975985  0  0  0.106362  0  1.039993  0  0  0.109528  0  1.036936  0  0  0.118793  0.104039  0  1.042092  0
H  H38  1  0.58723575  0.10834415  0.72160880  1  0  0.098974  0  0.976024  0  0  0.106357  0  1.040022  0  0  0.109522  0  1.036967  0  0  0.118807  0.104034  0  1.04212  0
H  H39  1  0.03455694  0.57959741  0.44398730  1  0  0.09002  0  0.9706  0  0  0.100067  0  1.034316  0  0  0.102598  0  1.034117  0  0  0.099777  0.098174  0  1.034824  0
H  H40  1  0.96544388  0.42040077  0.55601272  1  0  0.090011  0  0.970609  0  0  0.100067  0  1.034327  0  0  0.102599  0  1.034125  0  0  0.099763  0.098174  0  1.034835  0
H  H41  1  0.20898936  0.55944186  0.27494455  1  0  0.094551  0  0.971457  0  0  0.105094  0  1.033596  0  0  0.107832  0  1.032243  0  0  0.100205  0.103076  0  1.034574  0
H  H42  1  0.79101078  0.44056307  0.72505424  1  0  0.094611  0  0.971466  0  0  0.105169  0  1.033581  0  0  0.107907  0  1.032226  0  0  0.100258  0.103151  0  1.034561  0
H  H43  1  0.11802339  0.10268625  0.97281932  1  0  0.100499  0  0.959609  0  0  0.109743  0  1.024555  0  0  0.113004  0  1.022519  0  0  0.105922  0.107384  0  1.026058  0
H  H44  1  0.88197360  0.89731569  0.02718272  1  0  0.100485  0  0.959596  0  0  0.109738  0  1.024546  0  0  0.112991  0  1.022527  0  0  0.105914  0.107379  0  1.02605  0
H  H45  1  0.62976215  0.02970687  0.45928964  1  0  0.110523  0  0.940032  0  0  0.118808  0  1.001057  0  0  0.123069  0  0.997449  0  0  0.106247  0.116076  0  1.003092  0
H  H46  1  0.37023821  0.97029721  0.54070370  1  0  0.110472  0  0.940065  0  0  0.118771  0  1.00108  0  0  0.123028  0  0.997471  0  0  0.106223  0.116039  0  1.003116  0
C  C47  1  0.81848697  0.03142301  0.49196245  1  0  -0.115438  0  3.731486  0  0  -0.134132  0  3.97929  0  0  -0.138104  0  4.001374  0  0  -0.092113  -0.131252  0  3.964291  0
C  C48  1  0.18151414  0.96858590  0.50803033  1  0  -0.115661  0  3.731722  0  0  -0.134361  0  3.979557  0  0  -0.138336  0  4.00164  0  0  -0.092154  -0.131489  0  3.964561  0
C  C49  1  0.00890289  0.89150629  0.38973984  1  0  -0.128382  0  3.767949  0  0  -0.147463  0  4.021399  0  0  -0.150969  0  4.042004  0  0  -0.095958  -0.145401  0  4.007717  0
C  C50  1  0.99109677  0.10850060  0.61025654  1  0  -0.128532  0  3.768063  0  0  -0.147632  0  4.02148  0  0  -0.151129  0  4.042073  0  0  -0.095973  -0.145541  0  4.007812  0
C  C51  1  0.46144590  0.58453688  0.24438793  1  0  0.654683  0  3.909323  0  0  0.601404  0  4.206585  0  0  0.636301  0  4.198609  0  0  0.210556  0.578096  0  4.210948  0
C  C52  1  0.53855494  0.41546515  0.75561254  1  0  0.654747  0  3.909389  0  0  0.601472  0  4.206626  0  0  0.636366  0  4.19865  0  0  0.210542  0.578163  0  4.21099  0
C  C53  1  0.75223275  0.63976132  0.93542657  1  0  0.652474  0  3.908217  0  0  0.597463  0  4.207303  0  0  0.632624  0  4.198601  0  0  0.210064  0.573698  0  4.21273  0
C  C54  1  0.24776927  0.36023591  0.06457407  1  0  0.652333  0  3.908321  0  0  0.597367  0  4.207379  0  0  0.632526  0  4.198683  0  0  0.21004  0.573604  0  4.212804  0
C  C55  1  0.35945740  0.59033150  0.34847167  1  0  -0.091667  0  3.777742  0  0  -0.067098  0  4.010379  0  0  -0.077046  0  4.035205  0  0  -0.028487  -0.061092  0  3.993832  0
C  C56  1  0.64054222  0.40966760  0.65153008  1  0  -0.091733  0  3.777771  0  0  -0.067141  0  4.010389  0  0  -0.077079  0  4.0352  0  0  -0.028452  -0.061135  0  3.993843  0
C  C57  1  0.77357945  0.34267650  0.97163894  1  0  0.135951  0  3.702807  0  0  0.102969  0  3.949564  0  0  0.109974  0  3.969275  0  0  0.045288  0.098453  0  3.935986  0
C  C58  1  0.22642186  0.65732364  0.02836003  1  0  0.135937  0  3.702734  0  0  0.102938  0  3.949503  0  0  0.109947  0  3.96922  0  0  0.045271  0.09842  0  3.935926  0
C  C59  1  0.85980726  0.62814643  0.83477714  1  0  -0.077542  0  3.784039  0  0  -0.054157  0  4.020052  0  0  -0.062487  0  4.043813  0  0  -0.022859  -0.048999  0  4.004184  0
C  C60  1  0.14019477  0.37185076  0.16522585  1  0  -0.077499  0  3.784115  0  0  -0.054126  0  4.020111  0  0  -0.062455  0  4.043872  0  0  -0.022831  -0.04897  0  4.004246  0
C  C61  1  0.29245916  0.61812726  0.54120792  1  0  -0.112193  0  3.725135  0  0  -0.130249  0  3.975152  0  0  -0.134436  0  3.995736  0  0  -0.086934  -0.127222  0  3.96094  0
C  C62  1  0.70754307  0.38186514  0.45879388  1  0  -0.112154  0  3.725159  0  0  -0.130238  0  3.97517  0  0  -0.134426  0  3.995756  0  0  -0.086922  -0.127211  0  3.960956  0
C  C63  1  0.99909724  0.12217194  0.13158045  1  0  -0.086832  0  3.687066  0  0  -0.107196  0  3.936398  0  0  -0.11063  0  3.957442  0  0  -0.07255  -0.104824  0  3.921691  0
C  C64  1  0.00089731  0.87782419  0.86842181  1  0  -0.086822  0  3.686982  0  0  -0.107155  0  3.936365  0  0  -0.110587  0  3.957402  0  0  -0.072522  -0.104786  0  3.921662  0
C  C65  1  0.05925888  0.61585680  0.64334057  1  0  0.053521  0  3.776655  0  0  0.067036  0  4.009905  0  0  0.067671  0  4.033054  0  0  -0.005754  0.066711  0  3.99387  0
C  C66  1  0.94074385  0.38413753  0.35666096  1  0  0.053611  0  3.776391  0  0  0.067157  0  4.009599  0  0  0.067795  0  4.032746  0  0  -0.005763  0.066831  0  3.993563  0
C  C67  1  0.88248579  0.20408931  0.10040746  1  0  0.146379  0  3.791532  0  0  0.161219  0  4.019858  0  0  0.167609  0  4.041583  0  0  0.015976  0.157124  0  4.005068  0
C  C68  1  0.11751263  0.79591077  0.89959211  1  0  0.146277  0  3.79145  0  0  0.161031  0  4.019907  0  0  0.167419  0  4.041634  0  0  0.015943  0.156937  0  4.005115  0
C  C69  1  0.16307830  0.60747670  0.54243889  1  0  0.061285  0  3.777253  0  0  0.075041  0  4.00826  0  0  0.076919  0  4.03105  0  0  -0.002366  0.07409  0  3.992332  0
C  C70  1  0.83692343  0.39251376  0.45756317  1  0  0.061193  0  3.777084  0  0  0.074976  0  4.008033  0  0  0.076852  0  4.030828  0  0  -0.002337  0.074027  0  3.992103  0
C  C71  1  0.33544905  0.94624309  0.99780714  1  0  -0.164561  0  3.702955  0  0  -0.183783  0  3.955538  0  0  -0.192693  0  3.977183  0  0  -0.083447  -0.177643  0  3.941225  0
C  C72  1  0.66454575  0.05375594  0.00219481  1  0  -0.164511  0  3.702815  0  0  -0.183743  0  3.955421  0  0  -0.192648  0  3.977073  0  0  -0.083407  -0.177604  0  3.941105  0
C  C73  1  0.82867660  0.68330291  0.73674309  1  0  -0.075214  0  3.76386  0  0  -0.097962  0  4.013648  0  0  -0.097997  0  4.0336  0  0  -0.087606  -0.097595  0  4.000014  0
C  C74  1  0.17132689  0.31669623  0.26325944  1  0  -0.075172  0  3.763854  0  0  -0.097939  0  4.013664  0  0  -0.097973  0  4.033618  0  0  -0.087589  -0.097573  0  4.00003  0
C  C75  1  0.99086633  0.56576318  0.83650325  1  0  -0.067471  0  3.741757  0  0  -0.091923  0  3.992086  0  0  -0.091483  0  4.012252  0  0  -0.086736  -0.091953  0  3.978122  0
C  C76  1  0.00913472  0.43423401  0.16349916  1  0  -0.067449  0  3.741876  0  0  -0.091891  0  3.992224  0  0  -0.091452  0  4.012392  0  0  -0.086736  -0.091921  0  3.978261  0
C  C77  1  0.88713056  0.26377374  0.99576209  1  0  -0.157632  0  3.670115  0  0  -0.173048  0  3.913625  0  0  -0.181538  0  3.93486  0  0  -0.075149  -0.167111  0  3.898915  0
C  C78  1  0.11286834  0.73622439  0.00423990  1  0  -0.157654  0  3.670152  0  0  -0.173009  0  3.913662  0  0  -0.181499  0  3.934898  0  0  -0.075144  -0.167071  0  3.898951  0
C  C79  1  0.92809906  0.85476593  0.33398308  1  0  -0.07118  0  3.755136  0  0  -0.094356  0  4.004383  0  0  -0.093637  0  4.023558  0  0  -0.087998  -0.09431  0  3.99118  0
C  C80  1  0.07190444  0.14523717  0.66601363  1  0  -0.071149  0  3.7553  0  0  -0.094315  0  4.004575  0  0  -0.093598  0  4.023748  0  0  -0.088013  -0.094267  0  3.991357  0
C  C81  1  0.65060417  0.31104000  0.14504895  1  0  0.144782  0  3.690693  0  0  0.110964  0  3.941281  0  0  0.119256  0  3.959003  0  0  0.053123  0.105909  0  3.928586  0
C  C82  1  0.34939281  0.68896199  0.85495074  1  0  0.144585  0  3.690957  0  0  0.110845  0  3.941468  0  0  0.119143  0  3.959192  0  0  0.053013  0.105789  0  3.928774  0
C  C83  1  0.08918263  0.55800542  0.74149020  1  0  -0.110665  0  3.712531  0  0  -0.128448  0  3.958074  0  0  -0.131695  0  3.978361  0  0  -0.088703  -0.126089  0  3.943995  0
C  C84  1  0.91082106  0.44198890  0.25851270  1  0  -0.110681  0  3.712569  0  0  -0.12851  0  3.958074  0  0  -0.131769  0  3.978373  0  0  -0.08868  -0.126151  0  3.943994  0
C  C85  1  0.95669293  0.98103060  0.47012224  1  0  0.049123  0  3.767345  0  0  0.061823  0  4.003496  0  0  0.063168  0  4.026138  0  0  -0.009252  0.060734  0  3.988275  0
C  C86  1  0.04330817  0.01897438  0.52987479  1  0  0.049273  0  3.767461  0  0  0.061963  0  4.003616  0  0  0.063313  0  4.026258  0  0  -0.009218  0.060873  0  3.98839  0
C  C87  1  0.26378389  0.98249724  0.18694905  1  0  -0.158208  0  3.684425  0  0  -0.171359  0  3.924985  0  0  -0.180305  0  3.947416  0  0  -0.079786  -0.166003  0  3.910346  0
C  C88  1  0.73621525  0.01749988  0.81305532  1  0  -0.158157  0  3.68438  0  0  -0.171309  0  3.924919  0  0  -0.180249  0  3.947364  0  0  -0.079818  -0.165948  0  3.91027  0
C  C89  1  0.38893425  0.61193856  0.44517740  1  0  -0.055646  0  3.732607  0  0  -0.079555  0  3.97907  0  0  -0.078586  0  3.999307  0  0  -0.08078  -0.079872  0  3.965444  0
C  C90  1  0.61106777  0.38805867  0.55482324  1  0  -0.05567  0  3.732738  0  0  -0.079586  0  3.979203  0  0  -0.07862  0  3.999437  0  0  -0.080823  -0.079904  0  3.965575  0
C  C91  1  0.75982725  0.22938951  0.17554280  1  0  -0.16878  0  3.688697  0  0  -0.183641  0  3.935077  0  0  -0.192323  0  3.956169  0  0  -0.077849  -0.178237  0  3.921137  0
C  C92  1  0.24017263  0.77061250  0.82445787  1  0  -0.168593  0  3.688885  0  0  -0.183468  0  3.935264  0  0  -0.192149  0  3.956353  0  0  -0.077749  -0.178064  0  3.921323  0
C  C93  1  0.23549856  0.00253793  0.08344126  1  0  0.141261  0  3.791933  0  0  0.155255  0  4.022715  0  0  0.161672  0  4.044323  0  0  0.010434  0.150878  0  4.008528  0
C  C94  1  0.76449696  0.99745816  0.91656393  1  0  0.141115  0  3.792159  0  0  0.155159  0  4.022897  0  0  0.161561  0  4.044529  0  0  0.010439  0.150784  0  4.008708  0
C  C95  1  0.45362250  0.87196736  0.01745137  1  0  0.138284  0  3.715362  0  0  0.103384  0  3.969403  0  0  0.112047  0  3.987041  0  0  0.043428  0.097912  0  3.957279  0
C  C96  1  0.54637304  0.12803266  0.98254957  1  0  0.13837  0  3.715233  0  0  0.103372  0  3.969315  0  0  0.112037  0  3.986953  0  0  0.0434  0.0979  0  3.957189  0
C  C97  1  0.92756600  0.67907972  0.64244853  1  0  -0.115022  0  3.73632  0  0  -0.133721  0  3.985695  0  0  -0.137082  0  4.007015  0  0  -0.090314  -0.131493  0  3.971175  0
C  C98  1  0.07243699  0.32091749  0.35755426  1  0  -0.115028  0  3.736196  0  0  -0.133787  0  3.98558  0  0  -0.137146  0  4.006896  0  0  -0.090378  -0.13156  0  3.971061  0
C  C99  1  0.38475769  0.90743606  0.20047069  1  0  0.119263  0  3.694319  0  0  0.087517  0  3.940944  0  0  0.094353  0  3.959699  0  0  0.042241  0.082988  0  3.928576  0
C  C100  1  0.61524147  0.09256496  0.79953099  1  0  0.119218  0  3.694332  0  0  0.087476  0  3.940953  0  0  0.094313  0  3.959704  0  0  0.04218  0.082939  0  3.928598  0
C  C101  1  0.13401585  0.58830578  0.44476620  1  0  -0.120819  0  3.755951  0  0  -0.13832  0  4.00383  0  0  -0.142809  0  4.025031  0  0  -0.091889  -0.135623  0  3.989839  0
C  C102  1  0.86598424  0.41169140  0.55523562  1  0  -0.12078  0  3.755764  0  0  -0.138311  0  4.003688  0  0  -0.1428  0  4.024888  0  0  -0.09191  -0.135613  0  3.989691  0
C  C103  1  0.23121798  0.57805521  0.34954253  1  0  -0.060238  0  3.751134  0  0  -0.0833  0  3.994959  0  0  -0.081976  0  4.015202  0  0  -0.086249  -0.083608  0  3.981107  0
C  C104  1  0.76878141  0.42194485  0.65045919  1  0  -0.060267  0  3.750935  0  0  -0.083368  0  3.994803  0  0  -0.082044  0  4.015038  0  0  -0.086293  -0.083675  0  3.980951  0
C  C105  1  0.11309214  0.07938935  0.05914468  1  0  -0.08942  0  3.703227  0  0  -0.110679  0  3.956402  0  0  -0.113736  0  3.976305  0  0  -0.074499  -0.10825  0  3.942649  0
C  C106  1  0.88690314  0.92060771  0.94085970  1  0  -0.089293  0  3.703206  0  0  -0.110592  0  3.956408  0  0  -0.113649  0  3.976319  0  0  -0.074471  -0.108166  0  3.942658  0
C  C107  1  0.79082456  0.90373488  0.35806507  1  0  -0.068068  0  3.77114  0  0  -0.044804  0  4.001229  0  0  -0.052736  0  4.024732  0  0  -0.022728  -0.039767  0  3.985492  0
C  C108  1  0.20917680  0.09627303  0.64193009  1  0  -0.068119  0  3.771343  0  0  -0.044841  0  4.001409  0  0  -0.052773  0  4.024913  0  0  -0.022774  -0.039806  0  3.985667  0
C  C109  1  0.70217199  0.86062064  0.30148180  1  0  0.628998  0  3.948605  0  0  0.584049  0  4.237225  0  0  0.617754  0  4.230672  0  0  0.195594  0.561264  0  4.240828  0
C  C110  1  0.29783343  0.13938250  0.69851373  1  0  0.628929  0  3.948823  0  0  0.583985  0  4.237415  0  0  0.61769  0  4.230865  0  0  0.195636  0.5612  0  4.241014  0
C  C111  1  0.73678486  0.99228906  0.43847469  1  0  -0.072944  0  3.744256  0  0  -0.093733  0  3.988751  0  0  -0.093466  0  4.008263  0  0  -0.084509  -0.094214  0  3.97571  0
C  C112  1  0.26321792  0.00771695  0.56151956  1  0  -0.072798  0  3.744286  0  0  -0.093612  0  3.988804  0  0  -0.093336  0  4.00831  0  0  -0.084479  -0.094093  0  3.975766  0
N  N113  1  0.65683587  0.36762950  0.04474002  1  0  -0.328386  0  3.287974  0  0  -0.241862  0  3.551116  0  0  -0.262395  0  3.568468  0  0  -0.32462  -0.22788  0  3.53873  0
N  N114  1  0.34316594  0.63237257  0.95525868  1  0  -0.32827  0  3.287979  0  0  -0.241766  0  3.551108  0  0  -0.26231  0  3.568463  0  0  -0.32457  -0.227782  0  3.538721  0
N  N115  1  0.47869411  0.85161454  0.11723304  1  0  -0.352446  0  3.313737  0  0  -0.263992  0  3.591709  0  0  -0.285103  0  3.606571  0  0  -0.330911  -0.250121  0  3.581583  0
N  N116  1  0.52130045  0.14838548  0.88276731  1  0  -0.352384  0  3.313758  0  0  -0.263921  0  3.591761  0  0  -0.285029  0  3.606618  0  0  -0.330852  -0.250048  0  3.581631  0
O  O117  1  0.76227850  0.80512547  0.21121195  1  0  -0.669195  0  2.01925  0  0  -0.596406  0  2.293416  0  0  -0.625537  0  2.276422  0  0  -0.343344  -0.576128  0  2.304422  0
O  O118  1  0.23771947  0.19488048  0.78878250  1  0  -0.669059  0  2.019242  0  0  -0.596261  0  2.29338  0  0  -0.625396  0  2.276397  0  0  -0.343277  -0.575983  0  2.30438  0
O  O119  1  0.57771196  0.59622661  0.24853418  1  0  -0.658255  0  2.062242  0  0  -0.590784  0  2.34656  0  0  -0.617445  0  2.328739  0  0  -0.333617  -0.572507  0  2.358228  0
O  O120  1  0.42228887  0.40377155  0.75146741  1  0  -0.658301  0  2.062283  0  0  -0.590848  0  2.346641  0  0  -0.617513  0  2.32882  0  0  -0.333635  -0.572567  0  2.358304  0
O  O121  1  0.42684123  0.57202626  0.15895501  1  0  -0.646232  0  2.11703  0  0  -0.587947  0  2.395486  0  0  -0.6137  0  2.382548  0  0  -0.312348  -0.570214  0  2.403724  0
O  O122  1  0.57315912  0.42797384  0.84104495  1  0  -0.646204  0  2.11707  0  0  -0.587914  0  2.395505  0  0  -0.613667  0  2.382569  0  0  -0.312318  -0.570183  0  2.403743  0
O  O123  1  0.78537814  0.65813113  0.02185519  1  0  -0.629867  0  2.03693  0  0  -0.55283  0  2.309686  0  0  -0.58138  0  2.294132  0  0  -0.318029  -0.53339  0  2.319918  0
O  O124  1  0.21461930  0.34186504  0.97814725  1  0  -0.629826  0  2.036865  0  0  -0.552819  0  2.309592  0  0  -0.581377  0  2.294059  0  0  -0.318064  -0.53338  0  2.319823  0
O  O125  1  0.63658181  0.63542010  0.92962423  1  0  -0.65058  0  2.067578  0  0  -0.596201  0  2.338832  0  0  -0.620799  0  2.324482  0  0  -0.315694  -0.579109  0  2.34794  0
O  O126  1  0.36341900  0.36457812  0.07037422  1  0  -0.650497  0  2.067702  0  0  -0.596162  0  2.338955  0  0  -0.62076  0  2.324607  0  0  -0.315689  -0.57907  0  2.348062  0
O  O127  1  0.58056022  0.87855475  0.34146708  1  0  -0.605324  0  1.912346  0  0  -0.561499  0  2.122464  0  0  -0.584278  0  2.113719  0  0  -0.322556  -0.545374  0  2.127438  0
O  O128  1  0.41944181  0.12144644  0.65852774  1  0  -0.605332  0  1.912441  0  0  -0.561515  0  2.12256  0  0  -0.584292  0  2.113817  0  0  -0.322614  -0.545391  0  2.127533  0
