# generated using pymatgen
data_HgH8C11I2BrN3O
_symmetry_space_group_name_H-M   'P 1'
_cell_length_a   6.72342484
_cell_length_b   7.46685659
_cell_length_c   17.90129923
_cell_angle_alpha   100.99189115
_cell_angle_beta   90.07692106
_cell_angle_gamma   116.62466413
_symmetry_Int_Tables_number   1
_chemical_formula_structural   HgH8C11I2BrN3O
_chemical_formula_sum   'Hg2 H16 C22 I4 Br2 N6 O2'
_cell_volume   784.79426021
_cell_formula_units_Z   2
loop_
 _symmetry_equiv_pos_site_id
 _symmetry_equiv_pos_as_xyz
  1  'x, y, z'
loop_
 _atom_site_type_symbol
 _atom_site_label
 _atom_site_symmetry_multiplicity
 _atom_site_fract_x
 _atom_site_fract_y
 _atom_site_fract_z
 _atom_site_occupancy
 _atom_site_hle17_bader_spin_density
 _atom_site_hle17_ddec_charge
 _atom_site_hle17_ddec_spin_density
 _atom_site_hle17_ddec_sum_bond_order
 _atom_site_hle17_magmom
 _atom_site_hse06_10hf_bader_spin_density
 _atom_site_hse06_10hf_ddec_charge
 _atom_site_hse06_10hf_ddec_spin_density
 _atom_site_hse06_10hf_ddec_sum_bond_order
 _atom_site_hse06_10hf_magmom
 _atom_site_hse06_bader_spin_density
 _atom_site_hse06_ddec_charge
 _atom_site_hse06_ddec_spin_density
 _atom_site_hse06_ddec_sum_bond_order
 _atom_site_hse06_magmom
 _atom_site_pbe_bader_spin_density
 _atom_site_pbe_cm5_charge
 _atom_site_pbe_ddec_charge
 _atom_site_pbe_ddec_spin_density
 _atom_site_pbe_ddec_sum_bond_order
 _atom_site_pbe_magmom
Hg  Hg0  1  0.15797858  0.31480013  0.94514622  1  0  0.496978  0  2.245114  0  0  0.385056  0  2.730516  0  0  0.429291  0  2.704584  0  0  0.335321  0.355468  0  2.74737  0
Hg  Hg1  1  0.84199974  0.68520530  0.05485914  1  0  0.496987  0  2.245205  0  0  0.385068  0  2.730609  0  0  0.429302  0  2.704675  0  0  0.335335  0.355487  0  2.747441  0
H  H2  1  0.48916567  0.97805298  0.80633614  1  0  0.077592  0  0.964812  0  0  0.083725  0  1.034005  0  0  0.086944  0  1.031226  0  0  0.09491  0.081343  0  1.036329  0
H  H3  1  0.51083403  0.02193869  0.19366363  1  0  0.077573  0  0.96491  0  0  0.083728  0  1.034076  0  0  0.08695  0  1.03129  0  0  0.094928  0.081346  0  1.036392  0
H  H4  1  0.39011135  0.78039027  0.91210300  1  0  0.074869  0  0.973998  0  0  0.078777  0  1.048323  0  0  0.081501  0  1.045795  0  0  0.093928  0.076683  0  1.050378  0
H  H5  1  0.60988908  0.21959987  0.08789609  1  0  0.074891  0  0.973948  0  0  0.078789  0  1.048275  0  0  0.081531  0  1.045733  0  0  0.093961  0.076699  0  1.05032  0
H  H6  1  0.11537503  0.23103994  0.74921174  1  0  0.094101  0  0.953082  0  0  0.094073  0  1.032108  0  0  0.098505  0  1.027131  0  0  0.111194  0.090902  0  1.035691  0
H  H7  1  0.88460976  0.76894866  0.25078834  1  0  0.094091  0  0.953088  0  0  0.094062  0  1.032126  0  0  0.098497  0  1.027144  0  0  0.111197  0.090896  0  1.035707  0
H  H8  1  0.40681495  0.81692899  0.49657988  1  0  0.113335  0  0.954053  0  0  0.123214  0  1.017868  0  0  0.127042  0  1.015199  0  0  0.103105  0.120487  0  1.019849  0
H  H9  1  0.59319974  0.18307185  0.50342177  1  0  0.113317  0  0.953969  0  0  0.123193  0  1.017793  0  0  0.127024  0  1.015122  0  0  0.103103  0.120465  0  1.01977  0
H  H10  1  0.20905826  0.42053501  0.27173976  1  0  0.098001  0  0.967621  0  0  0.108427  0  1.033126  0  0  0.11166  0  1.031978  0  0  0.082115  0.106093  0  1.034084  0
H  H11  1  0.79093812  0.57948279  0.72825879  1  0  0.097974  0  0.967548  0  0  0.108397  0  1.03306  0  0  0.111629  0  1.031912  0  0  0.082085  0.106061  0  1.034012  0
H  H12  1  0.05798797  0.11578385  0.33245396  1  0  0.089183  0  0.963611  0  0  0.096093  0  1.033499  0  0  0.099165  0  1.030659  0  0  0.092934  0.09382  0  1.035619  0
H  H13  1  0.94199793  0.88422787  0.66754074  1  0  0.089199  0  0.963563  0  0  0.096085  0  1.03349  0  0  0.099179  0  1.030631  0  0  0.09293  0.093794  0  1.03563  0
H  H14  1  0.08046182  0.15876049  0.47240654  1  0  0.1309  0  0.964149  0  0  0.138895  0  1.025436  0  0  0.143444  0  1.021545  0  0  0.10795  0.135622  0  1.028329  0
H  H15  1  0.91952539  0.84123894  0.52758772  1  0  0.130929  0  0.964178  0  0  0.138924  0  1.025451  0  0  0.143472  0  1.021563  0  0  0.107974  0.135653  0  1.028343  0
H  H16  1  0.34010168  0.68145855  0.60127427  1  0  0.285063  0  0.921485  0  0  0.260361  0  1.000031  0  0  0.268255  0  0.993802  0  0  0.306991  0.25475  0  1.004503  0
H  H17  1  0.65990253  0.31853617  0.39872631  1  0  0.285046  0  0.921554  0  0  0.260341  0  1.000111  0  0  0.268232  0  0.993886  0  0  0.306969  0.254732  0  1.004575  0
C  C18  1  0.40540199  0.81065402  0.79332512  1  0  0.085526  0  3.721483  0  0  0.063147  0  3.976775  0  0  0.06496  0  3.990158  0  0  0.04508  0.061574  0  3.968081  0
C  C19  1  0.59459470  0.18933458  0.20667385  1  0  0.085593  0  3.721421  0  0  0.06322  0  3.976688  0  0  0.065034  0  3.990074  0  0  0.045149  0.061653  0  3.967984  0
C  C20  1  0.35088105  0.70191695  0.85199886  1  0  0.079189  0  3.703597  0  0  0.051447  0  3.953679  0  0  0.057024  0  3.96963  0  0  0.039716  0.047717  0  3.943152  0
C  C21  1  0.64911568  0.29807471  0.14800147  1  0  0.079173  0  3.703431  0  0  0.051421  0  3.953549  0  0  0.056981  0  3.969489  0  0  0.039687  0.047691  0  3.943012  0
C  C22  1  0.19907732  0.39822669  0.76213505  1  0  0.077724  0  3.639933  0  0  0.037714  0  3.895116  0  0  0.043633  0  3.910321  0  0  0.055001  0.033504  0  3.885424  0
C  C23  1  0.80091644  0.60176498  0.23786472  1  0  0.077694  0  3.639692  0  0  0.037669  0  3.894912  0  0  0.043582  0  3.910131  0  0  0.05499  0.03346  0  3.88522  0
C  C24  1  0.25459658  0.50859323  0.70405814  1  0  0.065364  0  3.734194  0  0  0.074367  0  3.97891  0  0  0.0716  0  3.997907  0  0  0.123499  0.075686  0  3.966493  0
C  C25  1  0.74540380  0.49139383  0.29594126  1  0  0.065608  0  3.734344  0  0  0.074551  0  3.978976  0  0  0.071782  0  3.99797  0  0  0.123622  0.075869  0  3.966569  0
C  C26  1  0.19957481  0.39770010  0.62138481  1  0  0.506755  0  3.864447  0  0  0.45919  0  4.150731  0  0  0.48758  0  4.151933  0  0  0.240269  0.440225  0  4.149351  0
C  C27  1  0.80043965  0.60228238  0.37861142  1  0  0.506282  0  3.865032  0  0  0.459018  0  4.150837  0  0  0.487414  0  4.152031  0  0  0.240064  0.440045  0  4.149472  0
C  C28  1  0.24543437  0.49107826  0.49356334  1  0  0.278023  0  3.780796  0  0  0.274213  0  4.026382  0  0  0.283328  0  4.047482  0  0  0.102891  0.268095  0  4.011965  0
C  C29  1  0.75457142  0.50892262  0.50643607  1  0  0.278032  0  3.780775  0  0  0.274232  0  4.026378  0  0  0.283349  0  4.047476  0  0  0.102857  0.268104  0  4.011977  0
C  C30  1  0.33077788  0.66353669  0.46021982  1  0  -0.209861  0  3.696693  0  0  -0.235844  0  3.943199  0  0  -0.241717  0  3.962623  0  0  -0.10269  -0.231802  0  3.930026  0
C  C31  1  0.66923618  0.33647182  0.53978245  1  0  -0.209728  0  3.696577  0  0  -0.235728  0  3.943108  0  0  -0.241593  0  3.962512  0  0  -0.102583  -0.231687  0  3.929934  0
C  C32  1  0.31654146  0.63555249  0.38111619  1  0  0.109519  0  3.750499  0  0  0.12693  0  4.014302  0  0  0.131288  0  4.037809  0  0  -0.022694  0.123904  0  3.998383  0
C  C33  1  0.68346072  0.36445606  0.61888441  1  0  0.109452  0  3.750429  0  0  0.126861  0  4.014234  0  0  0.131219  0  4.037743  0  0  -0.022767  0.123836  0  3.99831  0
C  C34  1  0.21918409  0.44004860  0.33372106  1  0  -0.161269  0  3.791231  0  0  -0.188961  0  4.051197  0  0  -0.195914  0  4.076473  0  0  -0.120796  -0.184071  0  4.033824  0
C  C35  1  0.78081671  0.55996613  0.66627724  1  0  -0.161294  0  3.790998  0  0  -0.188979  0  4.050973  0  0  -0.195931  0  4.07625  0  0  -0.120806  -0.184088  0  4.033594  0
C  C36  1  0.13513105  0.27041284  0.36788227  1  0  -0.028855  0  3.769636  0  0  -0.043877  0  4.031231  0  0  -0.042876  0  4.051853  0  0  -0.092983  -0.044313  0  4.017036  0
C  C37  1  0.86485848  0.72959422  0.63211596  1  0  -0.028774  0  3.769612  0  0  -0.043785  0  4.031188  0  0  -0.042805  0  4.051802  0  0  -0.092903  -0.044176  0  4.016921  0
C  C38  1  0.14675885  0.29270474  0.44711194  1  0  -0.159905  0  3.664169  0  0  -0.184064  0  3.915241  0  0  -0.188633  0  3.932812  0  0  -0.098066  -0.180938  0  3.903293  0
C  C39  1  0.85323658  0.70729924  0.55288660  1  0  -0.159967  0  3.664166  0  0  -0.184135  0  3.915259  0  0  -0.188704  0  3.932835  0  0  -0.098085  -0.181008  0  3.903324  0
I  I40  1  0.32385017  0.64763796  0.06331024  1  0  -0.281169  0  1.372752  0  0  -0.233361  0  1.748154  0  0  -0.253941  0  1.727209  0  0  -0.136277  -0.219472  0  1.762258  0
I  I41  1  0.67615574  0.35237211  0.93669104  1  0  -0.281203  0  1.372783  0  0  -0.233388  0  1.748165  0  0  -0.253978  0  1.727241  0  0  -0.136305  -0.219501  0  1.762266  0
I  I42  1  0.95989239  0.92061716  0.87323697  1  0  -0.297405  0  1.24842  0  0  -0.258834  0  1.596867  0  0  -0.280015  0  1.581774  0  0  -0.145475  -0.244204  0  1.607009  0
I  I43  1  0.04008288  0.07938511  0.12677539  1  0  -0.297365  0  1.248394  0  0  -0.258806  0  1.596846  0  0  -0.27999  0  1.581756  0  0  -0.145462  -0.2442  0  1.607017  0
Br  Br44  1  0.43426654  0.87276819  0.33770440  1  0  -0.071766  0  1.319578  0  0  -0.062274  0  1.583761  0  0  -0.067433  0  1.57676  0  0  0.04518  -0.058378  0  1.588628  0
Br  Br45  1  0.56574020  0.12724950  0.66230141  1  0  -0.071784  0  1.319482  0  0  -0.062304  0  1.58368  0  0  -0.067464  0  1.576678  0  0  0.045158  -0.058421  0  1.588545  0
N  N46  1  0.35778027  0.71506266  0.72013044  1  0  -0.261886  0  3.107746  0  0  -0.227139  0  3.365627  0  0  -0.232461  0  3.380273  0  0  -0.290091  -0.223145  0  3.355906  0
N  N47  1  0.64221934  0.28492286  0.27986939  1  0  -0.261986  0  3.107741  0  0  -0.227278  0  3.365692  0  0  -0.232597  0  3.380336  0  0  -0.290244  -0.223281  0  3.355969  0
N  N48  1  0.24835796  0.49708809  0.83588627  1  0  -0.244935  0  3.248354  0  0  -0.173746  0  3.508351  0  0  -0.191251  0  3.529716  0  0  -0.301903  -0.161748  0  3.493628  0
N  N49  1  0.75162828  0.50289745  0.16411300  1  0  -0.244982  0  3.248279  0  0  -0.173777  0  3.508271  0  0  -0.191282  0  3.529639  0  0  -0.301938  -0.161778  0  3.493548  0
N  N50  1  0.26542129  0.53078531  0.57331354  1  0  -0.42709  0  3.390881  0  0  -0.368669  0  3.624975  0  0  -0.392357  0  3.636928  0  0  -0.388335  -0.352487  0  3.616518  0
N  N51  1  0.73458743  0.46921250  0.42668562  1  0  -0.426901  0  3.391358  0  0  -0.36859  0  3.625377  0  0  -0.392284  0  3.637335  0  0  -0.388234  -0.352399  0  3.616917  0
O  O52  1  0.10581214  0.20829757  0.60317713  1  0  -0.517958  0  1.947621  0  0  -0.478804  0  2.172985  0  0  -0.498565  0  2.168473  0  0  -0.28075  -0.465267  0  2.175693  0
O  O53  1  0.89423077  0.79170022  0.39682148  1  0  -0.517879  0  1.947536  0  0  -0.478845  0  2.172746  0  0  -0.498608  0  2.168224  0  0  -0.280706  -0.465297  0  2.17546  0
