# generated using pymatgen
data_CdNiH11C10N7
_symmetry_space_group_name_H-M   'P 1'
_cell_length_a   7.74402861
_cell_length_b   12.32608064
_cell_length_c   13.77680000
_cell_angle_alpha   90.00000000
_cell_angle_beta   90.00000000
_cell_angle_gamma   90.00000000
_symmetry_Int_Tables_number   1
_chemical_formula_structural   CdNiH11C10N7
_chemical_formula_sum   'Cd4 Ni4 H44 C40 N28'
_cell_volume   1315.04406976
_cell_formula_units_Z   4
loop_
 _symmetry_equiv_pos_site_id
 _symmetry_equiv_pos_as_xyz
  1  'x, y, z'
loop_
 _atom_site_type_symbol
 _atom_site_label
 _atom_site_symmetry_multiplicity
 _atom_site_fract_x
 _atom_site_fract_y
 _atom_site_fract_z
 _atom_site_occupancy
 _atom_site_hle17_bader_spin_density
 _atom_site_hle17_ddec_charge
 _atom_site_hle17_ddec_spin_density
 _atom_site_hle17_ddec_sum_bond_order
 _atom_site_hle17_magmom
 _atom_site_hse06_10hf_bader_spin_density
 _atom_site_hse06_10hf_ddec_charge
 _atom_site_hse06_10hf_ddec_spin_density
 _atom_site_hse06_10hf_ddec_sum_bond_order
 _atom_site_hse06_10hf_magmom
 _atom_site_hse06_bader_spin_density
 _atom_site_hse06_ddec_charge
 _atom_site_hse06_ddec_spin_density
 _atom_site_hse06_ddec_sum_bond_order
 _atom_site_hse06_magmom
 _atom_site_pbe_bader_charge
 _atom_site_pbe_bader_spin_density
 _atom_site_pbe_cm5_charge
 _atom_site_pbe_ddec_charge
 _atom_site_pbe_ddec_spin_density
 _atom_site_pbe_ddec_sum_bond_order
 _atom_site_pbe_magmom
Cd  Cd0  1  0.74999981  0.47750053  0.64197274  1  0  1.107047  0  1.901006  0  0  0.915796  0  2.384066  0  0  0.962564  0  2.339061  0  1.273735  0  0.81374  0.882831  0  2.414937  0
Cd  Cd1  1  0.24999908  0.02249701  0.14197274  1  0  1.107093  0  1.901021  0  0  0.915866  0  2.384059  0  0  0.962632  0  2.339056  0  1.273742  0  0.813749  0.882902  0  2.414933  0
Cd  Cd2  1  0.75000110  0.97750050  0.85802726  1  0  1.107027  0  1.90105  0  0  0.915779  0  2.384101  0  0  0.962548  0  2.339097  0  1.273732  0  0.813738  0.882814  0  2.414973  0
Cd  Cd3  1  0.24999908  0.52249618  0.35802654  1  0  1.107079  0  1.901039  0  0  0.915847  0  2.38408  0  0  0.962614  0  2.339077  0  1.273784  0  0.813746  0.882883  0  2.414956  0
Ni  Ni4  1  0.74999981  0.76043718  0.25602607  1  0  0.095023  0  3.630731  0  0  0.117156  0  4.101955  0  0  0.11886  0  4.054877  0  0.651757  0  0.416154  0.125678  0  4.126326  0
Ni  Ni5  1  0.24999908  0.73956355  0.75602099  1  0  0.094875  0  3.630852  0  0  0.117127  0  4.101916  0  0  0.118898  0  4.054823  0  0.651351  0  0.416149  0.125646  0  4.126332  0
Ni  Ni6  1  0.74999852  0.26043639  0.24397320  1  0  0.094835  0  3.630914  0  0  0.116997  0  4.102074  0  0  0.118749  0  4.054964  0  0.651676  0  0.416134  0.125527  0  4.126446  0
Ni  Ni7  1  0.25000037  0.23956358  0.74397756  1  0  0.094854  0  3.630918  0  0  0.117057  0  4.10203  0  0  0.118831  0  4.054936  0  0.651335  0  0.416126  0.125595  0  4.126415  0
H  H8  1  0.85586461  0.57052604  0.16591879  1  0  0.274887  0  0.902742  0  0  0.276858  0  0.947856  0  0  0.279193  0  0.9485  0  0.408364  0  0.293825  0.275302  0  0.947408  0
H  H9  1  0.14413428  0.92947550  0.66591879  1  0  0.27491  0  0.902663  0  0  0.276877  0  0.947787  0  0  0.279212  0  0.948433  0  0.408343  0  0.293832  0.275321  0  0.947338  0
H  H10  1  0.64413502  0.07052607  0.33408193  1  0  0.274875  0  0.902747  0  0  0.276845  0  0.947867  0  0  0.27918  0  0.948513  0  0.408365  0  0.293827  0.275289  0  0.94742  0
H  H11  1  0.35586645  0.42947472  0.83408121  1  0  0.274883  0  0.902682  0  0  0.276853  0  0.947799  0  0  0.279188  0  0.948446  0  0.408341  0  0.293835  0.275296  0  0.947351  0
H  H12  1  0.14413557  0.42947472  0.83408121  1  0  0.274876  0  0.902744  0  0  0.276845  0  0.947859  0  0  0.27918  0  0.948506  0  0.40836  0  0.293827  0.275291  0  0.947408  0
H  H13  1  0.85586461  0.07052688  0.33408121  1  0  0.274908  0  0.902704  0  0  0.276878  0  0.947822  0  0  0.279213  0  0.948468  0  0.40837  0  0.293823  0.275322  0  0.947374  0
H  H14  1  0.35586516  0.92947550  0.66591952  1  0  0.274898  0  0.902681  0  0  0.276863  0  0.94781  0  0  0.279199  0  0.948455  0  0.40834  0  0.293828  0.275307  0  0.947362  0
H  H15  1  0.64413502  0.57052604  0.16591807  1  0  0.274876  0  0.902745  0  0  0.276847  0  0.947863  0  0  0.279181  0  0.948507  0  0.408364  0  0.293827  0.27529  0  0.947416  0
H  H16  1  0.74999981  0.43491278  0.44082878  1  0  0.33358  0  0.907077  0  0  0.324846  0  0.959417  0  0  0.329199  0  0.957873  0  0.417436  0  0.286682  0.321795  0  0.960436  0
H  H17  1  0.25000037  0.06508638  0.94083169  1  0  0.333587  0  0.907092  0  0  0.324855  0  0.959432  0  0  0.329208  0  0.957888  0  0.417465  0  0.286687  0.321806  0  0.960447  0
H  H18  1  0.74999981  0.93491275  0.05917049  1  0  0.33358  0  0.907077  0  0  0.324845  0  0.959421  0  0  0.329197  0  0.957877  0  0.417438  0  0.286683  0.321795  0  0.960438  0
H  H19  1  0.25000037  0.56508636  0.55916831  1  0  0.333595  0  0.907091  0  0  0.32486  0  0.95944  0  0  0.329213  0  0.957895  0  0.417481  0  0.286687  0.321812  0  0.960453  0
H  H20  1  0.85565929  0.54898716  0.45413231  1  0  0.330918  0  0.921004  0  0  0.31972  0  0.978423  0  0  0.324702  0  0.976098  0  0.440448  0  0.281928  0.31619  0  0.980074  0
H  H21  1  0.14434089  0.95101114  0.95413086  1  0  0.330967  0  0.920958  0  0  0.319782  0  0.978346  0  0  0.324763  0  0.976022  0  0.440406  0  0.281968  0.316252  0  0.979998  0
H  H22  1  0.64434163  0.04898719  0.04586769  1  0  0.330917  0  0.92101  0  0  0.319723  0  0.97842  0  0  0.324704  0  0.976094  0  0.440433  0  0.281929  0.316193  0  0.98007  0
H  H23  1  0.35565855  0.45101198  0.54586914  1  0  0.330967  0  0.920984  0  0  0.319788  0  0.978358  0  0  0.324767  0  0.976035  0  0.440413  0  0.281962  0.316258  0  0.980009  0
H  H24  1  0.14434089  0.45101198  0.54586987  1  0  0.331028  0  0.920974  0  0  0.319834  0  0.978363  0  0  0.324813  0  0.97604  0  0.440448  0  0.281997  0.316304  0  0.980014  0
H  H25  1  0.85565929  0.04898719  0.04586842  1  0  0.330916  0  0.921004  0  0  0.319718  0  0.978423  0  0  0.3247  0  0.976097  0  0.440445  0  0.281925  0.316188  0  0.980074  0
H  H26  1  0.35565984  0.95101114  0.95413086  1  0  0.330958  0  0.920969  0  0  0.319771  0  0.978363  0  0  0.324752  0  0.976039  0  0.440399  0  0.281958  0.316242  0  0.980014  0
H  H27  1  0.64434163  0.54898716  0.45413231  1  0  0.330918  0  0.921006  0  0  0.319722  0  0.978418  0  0  0.324703  0  0.976092  0  0.440434  0  0.281929  0.316192  0  0.980069  0
H  H28  1  0.74999981  0.62297256  0.84101896  1  0  0.091005  0  0.934689  0  0  0.1  0  0.998834  0  0  0.101353  0  0.999092  0  0.074559  0  0.117625  0.099073  0  0.998662  0
H  H29  1  0.25000037  0.87702574  0.34101896  1  0  0.091013  0  0.934663  0  0  0.100013  0  0.998804  0  0  0.101366  0  0.999062  0  0.074545  0  0.117626  0.099085  0  0.998634  0
H  H30  1  0.75000110  0.12297421  0.65898177  1  0  0.091016  0  0.934701  0  0  0.100006  0  0.99884  0  0  0.101359  0  0.999097  0  0.07453  0  0.117617  0.099079  0  0.998669  0
H  H31  1  0.24999520  0.37702658  0.15898031  1  0  0.090941  0  0.934773  0  0  0.099993  0  0.998852  0  0  0.101346  0  0.999108  0  0.074557  0  0.117634  0.099063  0  0.998683  0
H  H32  1  0.75000369  0.41360674  0.09317331  1  0  0.079063  0  0.990104  0  0  0.075361  0  1.082497  0  0  0.081881  0  1.073468  0  0.097449  0  0.096301  0.07052  0  1.088825  0
H  H33  1  0.25000166  0.08639405  0.59317185  1  0  0.079036  0  0.990098  0  0  0.075332  0  1.082496  0  0  0.081849  0  1.07347  0  0.097456  0  0.096301  0.070492  0  1.088823  0
H  H34  1  0.74999981  0.91360752  0.40682887  1  0  0.079077  0  0.990077  0  0  0.075349  0  1.082495  0  0  0.081871  0  1.073464  0  0.09746  0  0.096298  0.070511  0  1.088818  0
H  H35  1  0.25000166  0.58639402  0.90682815  1  0  0.079044  0  0.990072  0  0  0.075334  0  1.082477  0  0  0.081851  0  1.073452  0  0.097463  0  0.096311  0.070498  0  1.0888  0
H  H36  1  0.75000369  0.25609682  0.98062250  1  0  0.110779  0  0.947535  0  0  0.122882  0  1.003393  0  0  0.12483  0  1.004133  0  0.109947  0  0.109584  0.121523  0  1.00296  0
H  H37  1  0.25000037  0.24390316  0.48062032  1  0  0.110801  0  0.947533  0  0  0.122903  0  1.003388  0  0  0.124851  0  1.004127  0  0.109959  0  0.109612  0.121543  0  1.002954  0
H  H38  1  0.74999852  0.75609841  0.51937896  1  0  0.110814  0  0.947533  0  0  0.122917  0  1.003387  0  0  0.124865  0  1.004127  0  0.109971  0  0.109609  0.121557  0  1.002955  0
H  H39  1  0.25000424  0.74390232  0.01937896  1  0  0.110954  0  0.947513  0  0  0.123041  0  1.003353  0  0  0.124989  0  1.004093  0  0.109948  0  0.109663  0.121688  0  1.002923  0
H  H40  1  0.74999981  0.28905457  0.80162665  1  0  0.083245  0  0.950545  0  0  0.090608  0  1.018152  0  0  0.091486  0  1.019109  0  0.131504  0  0.114613  0.090015  0  1.017493  0
H  H41  1  0.24999908  0.21094459  0.30162447  1  0  0.083247  0  0.95055  0  0  0.090604  0  1.018157  0  0  0.091483  0  1.019112  0  0.131517  0  0.114593  0.09001  0  1.0175  0
H  H42  1  0.74999981  0.78905617  0.69837480  1  0  0.083226  0  0.950583  0  0  0.090592  0  1.018181  0  0  0.091469  0  1.019139  0  0.131516  0  0.11459  0.09  0  1.01752  0
H  H43  1  0.25000037  0.71094781  0.19837771  1  0  0.083285  0  0.950315  0  0  0.090628  0  1.017949  0  0  0.091508  0  1.018904  0  0.131492  0  0.114617  0.090034  0  1.01729  0
H  H44  1  0.86310502  0.68401792  0.02231433  1  0  0.076537  0  0.922559  0  0  0.096043  0  0.982362  0  0  0.094894  0  0.98464  0  0.071193  0  0.108677  0.096812  0  0.980828  0
H  H45  1  0.13689516  0.81598119  0.52231505  1  0  0.076547  0  0.922506  0  0  0.096051  0  0.982313  0  0  0.094902  0  0.98459  0  0.071217  0  0.108669  0.096821  0  0.980777  0
H  H46  1  0.63689589  0.18401957  0.47768567  1  0  0.076501  0  0.922567  0  0  0.096008  0  0.982374  0  0  0.094858  0  0.984652  0  0.071184  0  0.108642  0.096776  0  0.980842  0
H  H47  1  0.36310558  0.31598284  0.97768567  1  0  0.07657  0  0.92251  0  0  0.096061  0  0.982351  0  0  0.094911  0  0.984631  0  0.071204  0  0.108677  0.09683  0  0.980818  0
H  H48  1  0.13689645  0.31598365  0.97768567  1  0  0.076565  0  0.922534  0  0  0.096066  0  0.982364  0  0  0.094915  0  0.984642  0  0.071216  0  0.108683  0.096835  0  0.98083  0
H  H49  1  0.86310632  0.18401875  0.47768567  1  0  0.076526  0  0.922555  0  0  0.096034  0  0.982355  0  0  0.094884  0  0.984634  0  0.071182  0  0.108669  0.096802  0  0.980823  0
H  H50  1  0.36310687  0.81598282  0.52231578  1  0  0.076548  0  0.922478  0  0  0.096044  0  0.982301  0  0  0.094894  0  0.984579  0  0.071213  0  0.108673  0.096812  0  0.980768  0
H  H51  1  0.63689589  0.68401873  0.02231433  1  0  0.076506  0  0.922576  0  0  0.096005  0  0.982392  0  0  0.094856  0  0.98467  0  0.071208  0  0.108652  0.096774  0  0.980859  0
C  C52  1  0.91919082  0.84288837  0.20007476  1  0  0.084074  0  3.540322  0  0  0.047701  0  3.882701  0  0  0.060377  0  3.882563  0  0.81533  0  0.014562  0.035947  0  3.882979  0
C  C53  1  0.08081194  0.65711318  0.70006750  1  0  0.083932  0  3.540537  0  0  0.047525  0  3.882918  0  0  0.060188  0  3.882797  0  0.815432  0  0.014457  0.035741  0  3.883237  0
C  C54  1  0.58080235  0.34289326  0.29992451  1  0  0.084127  0  3.540715  0  0  0.047753  0  3.883071  0  0  0.060412  0  3.882946  0  0.81581  0  0.014629  0.036021  0  3.883316  0
C  C55  1  0.41919783  0.15710833  0.79992959  1  0  0.084074  0  3.540771  0  0  0.047693  0  3.883114  0  0  0.060345  0  3.882997  0  0.815815  0  0.014589  0.035948  0  3.88338  0
C  C56  1  0.08081065  0.15711320  0.79993032  1  0  0.084087  0  3.540479  0  0  0.047696  0  3.882845  0  0  0.060358  0  3.882722  0  0.815525  0  0.014541  0.035935  0  3.88313  0
C  C57  1  0.91919469  0.34288921  0.29992524  1  0  0.08409  0  3.540575  0  0  0.047708  0  3.882944  0  0  0.060372  0  3.882817  0  0.815816  0  0.014617  0.035962  0  3.88321  0
C  C58  1  0.41919912  0.65710993  0.70006750  1  0  0.0841  0  3.540808  0  0  0.047712  0  3.883156  0  0  0.060364  0  3.883036  0  0.815836  0  0.014597  0.035977  0  3.883408  0
C  C59  1  0.58080622  0.84288999  0.20007694  1  0  0.084087  0  3.540425  0  0  0.047717  0  3.882796  0  0  0.060391  0  3.882658  0  0.815547  0  0.014572  0.035971  0  3.883063  0
C  C60  1  0.57853867  0.70020960  0.33013327  1  0  0.08997  0  3.521568  0  0  0.053127  0  3.862457  0  0  0.065055  0  3.863442  0  0.80656  0  0.018666  0.042291  0  3.861377  0
C  C61  1  0.42146151  0.79978951  0.83012891  1  0  0.090001  0  3.521629  0  0  0.053138  0  3.862511  0  0  0.065052  0  3.863517  0  0.80651  0  0.018648  0.042299  0  3.861427  0
C  C62  1  0.92146225  0.20020800  0.16986673  1  0  0.090107  0  3.521871  0  0  0.053262  0  3.862735  0  0  0.065177  0  3.863735  0  0.806557  0  0.018712  0.042428  0  3.861654  0
C  C63  1  0.07854310  0.29979035  0.66987109  1  0  0.090111  0  3.521896  0  0  0.053253  0  3.862778  0  0  0.065166  0  3.863785  0  0.806444  0  0.018729  0.042413  0  3.861695  0
C  C64  1  0.42146668  0.29978791  0.66986891  1  0  0.09005  0  3.521774  0  0  0.053191  0  3.862653  0  0  0.0651  0  3.863656  0  0.806576  0  0.018698  0.042353  0  3.861575  0
C  C65  1  0.57853609  0.20020963  0.16986601  1  0  0.090064  0  3.521781  0  0  0.053216  0  3.86265  0  0  0.065134  0  3.863644  0  0.806602  0  0.018684  0.042378  0  3.861572  0
C  C66  1  0.07853535  0.79978951  0.83013036  1  0  0.090094  0  3.522025  0  0  0.05323  0  3.862913  0  0  0.065139  0  3.86392  0  0.806548  0  0.018716  0.042402  0  3.861819  0
C  C67  1  0.92146483  0.70020960  0.33013472  1  0  0.089946  0  3.521825  0  0  0.053106  0  3.862706  0  0  0.065029  0  3.863694  0  0.806605  0  0.018635  0.042275  0  3.861624  0
C  C68  1  0.74999981  0.54303880  0.87524244  1  0  0.074384  0  3.67726  0  0  0.039674  0  3.924111  0  0  0.045134  0  3.943315  0  0.479008  0  0.043804  0.036155  0  3.91092  0
C  C69  1  0.24999908  0.95696031  0.37524389  1  0  0.07442  0  3.677287  0  0  0.039698  0  3.924153  0  0  0.045158  0  3.943358  0  0.479018  0  0.043784  0.03618  0  3.910959  0
C  C70  1  0.75000110  0.04304045  0.62475756  1  0  0.074318  0  3.677366  0  0  0.039629  0  3.924188  0  0  0.045089  0  3.943392  0  0.479136  0  0.04376  0.036111  0  3.910994  0
C  C71  1  0.24999908  0.45696115  0.12475756  1  0  0.074495  0  3.677253  0  0  0.039772  0  3.924083  0  0  0.045234  0  3.943284  0  0.479034  0  0.043802  0.03625  0  3.9109  0
C  C72  1  0.74999981  0.53299181  0.97671012  1  0  0.014356  0  3.717513  0  0  0.040229  0  3.952539  0  0  0.035771  0  3.97895  0  -0.051047  0  -0.007881  0.042948  0  3.934722  0
C  C73  1  0.25000037  0.96700893  0.47671085  1  0  0.014112  0  3.717702  0  0  0.039997  0  3.952729  0  0  0.035535  0  3.979145  0  -0.05108  0  -0.007953  0.042718  0  3.934911  0
C  C74  1  0.74999981  0.03299102  0.52328843  1  0  0.014283  0  3.717654  0  0  0.040155  0  3.952668  0  0  0.035694  0  3.979082  0  -0.051065  0  -0.007848  0.042874  0  3.934851  0
C  C75  1  0.25000037  0.46701057  0.02328988  1  0  0.014341  0  3.717545  0  0  0.040193  0  3.952614  0  0  0.035732  0  3.979025  0  -0.051102  0  -0.007858  0.042913  0  3.934796  0
C  C76  1  0.74999981  0.42775073  0.01480460  1  0  -0.070338  0  3.727952  0  0  -0.094442  0  3.977746  0  0  -0.094365  0  3.997441  0  -0.031601  0  -0.075078  -0.094128  0  3.964521  0
C  C77  1  0.25000037  0.07225005  0.51480532  1  0  -0.070155  0  3.727863  0  0  -0.094274  0  3.977657  0  0  -0.094195  0  3.997353  0  -0.031623  0  -0.07504  -0.09396  0  3.964431  0
C  C78  1  0.75000239  0.92775152  0.48519468  1  0  -0.070261  0  3.72795  0  0  -0.094352  0  3.977744  0  0  -0.094276  0  3.997438  0  -0.03165  0  -0.075065  -0.094038  0  3.964518  0
C  C79  1  0.24999908  0.57224678  0.98519468  1  0  -0.070141  0  3.727785  0  0  -0.094233  0  3.977562  0  0  -0.094155  0  3.99726  0  -0.031682  0  -0.075007  -0.093919  0  3.964333  0
C  C80  1  0.75000110  0.33858046  0.95243308  1  0  -0.103445  0  3.735865  0  0  -0.112508  0  3.982124  0  0  -0.1186  0  4.00561  0  -0.003253  0  -0.081282  -0.108572  0  3.966273  0
C  C81  1  0.24999908  0.16141952  0.45243235  1  0  -0.103489  0  3.735912  0  0  -0.112562  0  3.982181  0  0  -0.118654  0  4.005665  0  -0.003431  0  -0.08129  -0.108627  0  3.966331  0
C  C82  1  0.74999981  0.83858124  0.54756692  1  0  -0.103542  0  3.735915  0  0  -0.112609  0  3.982174  0  0  -0.1187  0  4.005658  0  -0.003247  0  -0.081321  -0.108674  0  3.966325  0
C  C83  1  0.25000037  0.66142274  0.04757201  1  0  -0.103732  0  3.736054  0  0  -0.112794  0  3.982293  0  0  -0.118889  0  4.005779  0  -0.00359  0  -0.081438  -0.108868  0  3.966452  0
C  C84  1  0.75000239  0.35637768  0.85277931  1  0  0.116165  0  3.711298  0  0  0.083091  0  3.963467  0  0  0.088725  0  3.98412  0  0.424779  0  0.039719  0.079443  0  3.949256  0
C  C85  1  0.24999908  0.14361905  0.35277931  1  0  0.116194  0  3.711376  0  0  0.083154  0  3.963495  0  0  0.088789  0  3.984146  0  0.424992  0  0.03978  0.079504  0  3.949287  0
C  C86  1  0.74999981  0.85637927  0.64722069  1  0  0.116219  0  3.711284  0  0  0.083151  0  3.963432  0  0  0.088785  0  3.984087  0  0.424795  0  0.039762  0.079504  0  3.949218  0
C  C87  1  0.25000037  0.64361740  0.14721924  1  0  0.116146  0  3.711398  0  0  0.083118  0  3.963531  0  0  0.088753  0  3.984182  0  0.425276  0  0.039756  0.07947  0  3.949321  0
C  C88  1  0.75000110  0.63376593  0.04033738  1  0  0.037683  0  3.684039  0  0  -0.023227  0  3.943953  0  0  -0.018893  0  3.957788  0  0.325932  0  -0.063375  -0.02594  0  3.93418  0
C  C89  1  0.25000037  0.86623642  0.54033810  1  0  0.037735  0  3.683969  0  0  -0.023163  0  3.943841  0  0  -0.01883  0  3.957684  0  0.325947  0  -0.063374  -0.025876  0  3.934066  0
C  C90  1  0.75000110  0.13376596  0.45966335  1  0  0.037701  0  3.684017  0  0  -0.023209  0  3.943914  0  0  -0.018875  0  3.957756  0  0.325952  0  -0.063384  -0.025923  0  3.934145  0
C  C91  1  0.25000037  0.36623483  0.95966335  1  0  0.03753  0  3.683987  0  0  -0.023414  0  3.943918  0  0  -0.01908  0  3.957761  0  0.325936  0  -0.063459  -0.026128  0  3.934148  0
N  N92  1  0.46492209  0.65970362  0.37371305  1  0  -0.478733  0  2.927959  0  0  -0.415053  0  3.216739  0  0  -0.432916  0  3.224067  0  -1.369481  0  -0.383115  -0.402319  0  3.212233  0
N  N93  1  0.53507550  0.84029549  0.87371160  1  0  -0.478703  0  2.928005  0  0  -0.415025  0  3.216802  0  0  -0.432891  0  3.224137  0  -1.36934  0  -0.383078  -0.402291  0  3.21229  0
N  N94  1  0.03507089  0.15970283  0.12628985  1  0  -0.478793  0  2.928243  0  0  -0.415113  0  3.217026  0  0  -0.432976  0  3.224358  0  -1.369453  0  -0.38315  -0.402381  0  3.21252  0
N  N95  1  0.96492800  0.34029633  0.62628912  1  0  -0.478818  0  2.928255  0  0  -0.415148  0  3.217053  0  0  -0.433012  0  3.224389  0  -1.369287  0  -0.383169  -0.402413  0  3.212542  0
N  N96  1  0.53507163  0.34029390  0.62628912  1  0  -0.478756  0  2.92816  0  0  -0.415083  0  3.216959  0  0  -0.432946  0  3.224291  0  -1.369433  0  -0.383141  -0.40235  0  3.212453  0
N  N97  1  0.46492726  0.15970364  0.12628695  1  0  -0.478779  0  2.928166  0  0  -0.415109  0  3.216959  0  0  -0.432972  0  3.224289  0  -1.369488  0  -0.383148  -0.402377  0  3.212456  0
N  N98  1  0.96493058  0.84029387  0.87370942  1  0  -0.478769  0  2.928381  0  0  -0.415095  0  3.21718  0  0  -0.432958  0  3.224516  0  -1.369396  0  -0.383151  -0.402362  0  3.21266  0
N  N99  1  0.03507089  0.65970443  0.37371233  1  0  -0.478696  0  2.928244  0  0  -0.415019  0  3.217023  0  0  -0.432881  0  3.22435  0  -1.369495  0  -0.383107  -0.402286  0  3.212515  0
N  N100  1  0.03064297  0.89471587  0.16577580  1  0  -0.465834  0  2.965565  0  0  -0.400544  0  3.261827  0  0  -0.419536  0  3.269978  0  -1.370092  0  -0.380308  -0.38689  0  3.256735  0
N  N101  1  0.96935463  0.60528324  0.66577144  1  0  -0.465728  0  2.965676  0  0  -0.400431  0  3.261946  0  0  -0.419422  0  3.270105  0  -1.37006  0  -0.380247  -0.386765  0  3.256841  0
N  N102  1  0.46936164  0.39471509  0.33422057  1  0  -0.465837  0  2.966051  0  0  -0.400555  0  3.262333  0  0  -0.419545  0  3.27049  0  -1.370423  0  -0.380371  -0.386912  0  3.257243  0
N  N103  1  0.53063983  0.10528326  0.83422493  1  0  -0.465792  0  2.966101  0  0  -0.400503  0  3.262362  0  0  -0.419493  0  3.270523  0  -1.370439  0  -0.380327  -0.386855  0  3.257268  0
N  N104  1  0.96935334  0.10528570  0.83422856  1  0  -0.465836  0  2.965644  0  0  -0.400541  0  3.261904  0  0  -0.419534  0  3.270062  0  -1.370127  0  -0.3803  -0.386887  0  3.256809  0
N  N105  1  0.03064038  0.39471265  0.33422275  1  0  -0.46582  0  2.965788  0  0  -0.400531  0  3.262063  0  0  -0.419524  0  3.270221  0  -1.370599  0  -0.380362  -0.386883  0  3.256973  0
N  N106  1  0.53063983  0.60528811  0.66577217  1  0  -0.4658  0  2.966122  0  0  -0.400516  0  3.262398  0  0  -0.419506  0  3.270557  0  -1.370472  0  -0.380337  -0.38687  0  3.257299  0
N  N107  1  0.46935777  0.89471668  0.16577725  1  0  -0.465839  0  2.965711  0  0  -0.400551  0  3.261969  0  0  -0.419542  0  3.270119  0  -1.370318  0  -0.380306  -0.386901  0  3.256878  0
N  N108  1  0.74999852  0.45716154  0.81495485  1  0  -0.345053  0  3.284938  0  0  -0.266534  0  3.548943  0  0  -0.285763  0  3.569784  0  -1.236186  0  -0.328629  -0.253157  0  3.534334  0
N  N109  1  0.24999908  0.04283843  0.31495413  1  0  -0.345066  0  3.284972  0  0  -0.266569  0  3.54898  0  0  -0.285798  0  3.569823  0  -1.236214  0  -0.328633  -0.253192  0  3.534372  0
N  N110  1  0.75000110  0.95716232  0.68504515  1  0  -0.344998  0  3.284913  0  0  -0.266494  0  3.548912  0  0  -0.285723  0  3.569754  0  -1.236297  0  -0.328617  -0.253117  0  3.534303  0
N  N111  1  0.24999779  0.54283922  0.18504660  1  0  -0.345119  0  3.285001  0  0  -0.266638  0  3.549031  0  0  -0.285866  0  3.569871  0  -1.236274  0  -0.328659  -0.253262  0  3.534422  0
N  N112  1  0.74999981  0.61429016  0.14524345  1  0  -0.564569  0  3.101536  0  0  -0.531106  0  3.337349  0  0  -0.546978  0  3.339493  0  -1.088905  0  -0.602322  -0.52039  0  3.335173  0
N  N113  1  0.25000037  0.88571139  0.64524345  1  0  -0.564655  0  3.101444  0  0  -0.531202  0  3.337255  0  0  -0.547071  0  3.339382  0  -1.088828  0  -0.602354  -0.520484  0  3.335073  0
N  N114  1  0.74999981  0.11429099  0.35475582  1  0  -0.564575  0  3.101482  0  0  -0.531114  0  3.337284  0  0  -0.546981  0  3.339411  0  -1.088986  0  -0.602311  -0.520401  0  3.335112  0
N  N115  1  0.25000037  0.38571060  0.85475655  1  0  -0.564548  0  3.101526  0  0  -0.531069  0  3.33733  0  0  -0.546933  0  3.339447  0  -1.088818  0  -0.602328  -0.520355  0  3.335153  0
N  N116  1  0.74999981  0.50663144  0.47772052  1  0  -0.882538  0  2.897466  0  0  -0.837502  0  3.101304  0  0  -0.858708  0  3.092449  0  -1.179796  0  -0.788071  -0.822437  0  3.107057  0
N  N117  1  0.25000037  0.99336686  0.97772052  1  0  -0.882675  0  2.897477  0  0  -0.837665  0  3.10134  0  0  -0.858869  0  3.092484  0  -1.179803  0  -0.788175  -0.8226  0  3.107092  0
N  N118  1  0.74999981  0.00663147  0.02227948  1  0  -0.882541  0  2.897472  0  0  -0.837505  0  3.101309  0  0  -0.858712  0  3.092457  0  -1.179799  0  -0.788076  -0.82244  0  3.10706  0
N  N119  1  0.24999908  0.49336607  0.52227948  1  0  -0.882741  0  2.897541  0  0  -0.837717  0  3.101417  0  0  -0.858922  0  3.092563  0  -1.179839  0  -0.788201  -0.822651  0  3.107169  0
