# generated using pymatgen
data_Zn3H19C22N2O13
_symmetry_space_group_name_H-M   'P 1'
_cell_length_a   18.70487957
_cell_length_b   18.65969519
_cell_length_c   18.87749582
_cell_angle_alpha   108.76281616
_cell_angle_beta   109.41294822
_cell_angle_gamma   109.74868424
_symmetry_Int_Tables_number   1
_chemical_formula_structural   Zn3H19C22N2O13
_chemical_formula_sum   'Zn6 H38 C44 N4 O26'
_cell_volume   5102.13143397
_cell_formula_units_Z   2
loop_
 _symmetry_equiv_pos_site_id
 _symmetry_equiv_pos_as_xyz
  1  'x, y, z'
loop_
 _atom_site_type_symbol
 _atom_site_label
 _atom_site_symmetry_multiplicity
 _atom_site_fract_x
 _atom_site_fract_y
 _atom_site_fract_z
 _atom_site_occupancy
 _atom_site_pbe_bader_charge
 _atom_site_pbe_bader_spin_density
 _atom_site_pbe_cm5_charge
 _atom_site_pbe_ddec_charge
 _atom_site_pbe_ddec_spin_density
 _atom_site_pbe_ddec_sum_bond_order
 _atom_site_pbe_magmom
Zn  Zn0  1  0.45502178  0.52017962  0.44373615  1  1.301082  0  0.711716  0.945959  0  2.157139  0
Zn  Zn1  1  0.56789781  0.51559534  0.57188238  1  1.303169  0  0.704298  0.930648  0  2.209519  0
Zn  Zn2  1  0.01874977  0.94571558  0.43085831  1  1.296461  0  0.705593  0.94302  0  2.142098  0
Zn  Zn3  1  0.02024699  0.06765362  0.55495691  1  1.303387  0  0.705867  0.932225  0  2.221915  0
Zn  Zn4  1  0.44295070  0.93818106  0.01094879  1  1.306124  0  0.715106  0.948455  0  2.158261  0
Zn  Zn5  1  0.55951329  0.06866462  0.00843454  1  1.306055  0  0.719947  0.950501  0  2.160014  0
H  H6  1  0.20831999  0.34709935  0.59320442  1  0.068007  0  0.097974  0.087379  0  0.993559  0
H  H7  1  0.49145542  0.72838774  0.68091881  1  0.088632  0  0.11173  0.130328  0  0.981309  0
H  H8  1  0.86937965  0.92002466  0.66077646  1  0.094369  0  0.115179  0.118396  0  0.976498  0
H  H9  1  0.80702868  0.78873445  0.47497335  1  0.102041  0  0.113313  0.133071  0  0.980602  0
H  H10  1  0.66213228  0.75765684  0.47836760  1  0.072311  0  0.100747  0.142435  0  1.017914  0
H  H11  1  0.59705046  0.30889906  0.19335065  1  0.093655  0  0.113142  0.11948  0  0.985855  0
H  H12  1  0.48426785  0.17551180  0.22823014  1  0.096768  0  0.116896  0.138132  0  0.972836  0
H  H13  1  0.58666688  0.31186815  0.38383737  1  0.085886  0  0.11192  0.149715  0  0.992527  0
H  H14  1  0.35840425  0.08017935  0.84669963  1  0.086934  0  0.104371  0.127917  0  1.021228  0
H  H15  1  0.17568392  0.36255423  0.44116806  1  0.065649  0  0.106276  0.10903  0  0.977847  0
H  H16  1  0.21109124  0.92164036  0.62494890  1  0.080017  0  0.101749  0.147097  0  1.006289  0
H  H17  1  0.59856305  0.83088307  0.13408662  1  0.086496  0  0.113312  0.110776  0  0.974239  0
H  H18  1  0.73360111  0.01930716  0.19582264  1  0.112391  0  0.113103  0.133533  0  0.981321  0
H  H19  1  0.74152659  0.82802179  0.20267258  1  0.095321  0  0.113717  0.113809  0  0.97213  0
H  H20  1  0.79840348  0.01778457  0.32272164  1  0.063115  0  0.112754  0.129835  0  0.981835  0
H  H21  1  0.29183070  0.18119957  0.51542690  1  0.07238  0  0.103925  0.101685  0  0.981531  0
H  H22  1  0.37362690  0.36579563  0.61546637  1  0.088528  0  0.099141  0.091239  0  0.989284  0
H  H23  1  0.52477452  0.77784356  0.89347473  1  0.07948  0  0.111094  0.11024  0  0.974829  0
H  H24  1  0.59008011  0.88612729  0.81209529  1  0.102126  0  0.114844  0.136617  0  0.978587  0
H  H25  1  0.58019576  0.68603335  0.81881899  1  0.082893  0  0.112445  0.112575  0  0.973186  0
H  H26  1  0.74163926  0.70730860  0.64772255  1  0.504199  0  0.304963  0.269816  0  0.987042  0
H  H27  1  0.88098384  0.76793640  0.76035437  1  0.038601  0  0.112763  0.120094  0  0.971744  0
H  H28  1  0.90278494  0.87269869  0.77249754  1  0.049684  0  0.100156  0.100377  0  0.987985  0
H  H29  1  0.92282068  0.80524048  0.69928464  1  0.044686  0  0.09821  0.098119  0  1.007262  0
H  H30  1  0.54225364  0.40013144  0.21438813  1  0.596039  0  0.33932  0.359304  0  0.878592  0
H  H31  1  0.21065073  0.83885664  0.80372852  1  0.453884  0  0.312355  0.258852  0  0.960764  0
H  H32  1  0.07075755  0.79606865  0.71193887  1  0.05511  0  0.106366  0.108642  0  0.984283  0
H  H33  1  0.10713644  0.84849739  0.65644788  1  0.084025  0  0.09979  0.110208  0  1.012299  0
H  H34  1  0.10701071  0.90993813  0.74993676  1  0.031796  0  0.097568  0.100535  0  0.985468  0
H  H35  1  0.19516606  0.11329837  0.71410711  1  0.51475  0  0.302787  0.266606  0  1.000547  0
H  H36  1  0.23393609  0.20394933  0.85523197  1  0.051668  0  0.108793  0.113604  0  0.976335  0
H  H37  1  0.33834983  0.21234698  0.88394491  1  0.037638  0  0.09663  0.097189  0  0.983711  0
H  H38  1  0.25755195  0.13071714  0.88711309  1  0.036168  0  0.099291  0.10003  0  1.00305  0
H  H39  1  0.05595038  0.11255778  0.31230931  1  0.580448  0  0.323011  0.35852  0  0.89943  0
H  H40  1  0.27208528  0.22248927  0.31671416  1  0.411073  0  0.298384  0.244752  0  0.949341  0
H  H41  1  0.25803900  0.08002412  0.26878906  1  0.025598  0  0.09953  0.104676  0  0.984995  0
H  H42  1  0.15871460  0.06999199  0.26632991  1  0.034776  0  0.081383  0.070509  0  1.016199  0
H  H43  1  0.24007783  0.07574781  0.35428870  1  0.054826  0  0.102504  0.11032  0  0.984984  0
C  C44  1  0.52469724  0.62655567  0.64639461  1  1.509079  0  0.205885  0.635703  0  4.164019  0
C  C45  1  0.26771751  0.22291674  0.49955664  1  -0.043341  0  -0.074937  -0.10893  0  3.634235  0
C  C46  1  0.31113178  0.32395000  0.55541786  1  -0.044683  0  -0.07594  -0.054201  0  3.649563  0
C  C47  1  0.29372632  0.33443435  0.47346804  1  0.01218  0  -0.008327  -0.069944  0  3.650484  0
C  C48  1  0.54582899  0.78969458  0.84875021  1  -0.065228  0  -0.064983  -0.014524  0  3.978513  0
C  C49  1  0.56140074  0.86580995  0.84878789  1  0.004497  0  -0.090949  -0.237176  0  3.885425  0
C  C50  1  0.55421372  0.72206129  0.79315490  1  -0.09653  0  -0.071363  -0.034778  0  3.986192  0
C  C51  1  0.52409294  0.69796445  0.70909076  1  0.05476  0  -0.085173  -0.214464  0  3.885994  0
C  C52  1  0.82899332  0.85859871  0.59993892  1  -0.054874  0  -0.06477  -0.093019  0  3.930381  0
C  C53  1  0.84355418  0.85159576  0.53371030  1  -0.025181  0  -0.085161  -0.207859  0  3.904074  0
C  C54  1  0.76288750  0.78241203  0.59364016  1  0.474594  0  0.117662  0.280406  0  4.072872  0
C  C55  1  0.36460190  0.39915614  0.47145341  1  1.522756  0  0.219009  0.615559  0  4.131749  0
C  C56  1  0.67913095  0.73379639  0.52333162  1  0.006085  0  -0.151728  -0.45117  0  3.936324  0
C  C57  1  0.56372496  0.28730358  0.22670905  1  -0.150405  0  -0.073503  -0.140128  0  3.987689  0
C  C58  1  0.52196270  0.20139051  0.20029815  1  0.090909  0  -0.083649  -0.196294  0  3.885832  0
C  C59  1  0.56072899  0.35333505  0.29149573  1  0.410731  0  0.088572  0.338594  0  4.08835  0
C  C60  1  0.56853972  0.35591308  0.36658881  1  0.074497  0  -0.120221  -0.385733  0  3.849466  0
C  C61  1  0.13983879  0.98184595  0.57859710  1  1.353529  0  0.182372  0.634761  0  4.185245  0
C  C62  1  0.11635356  0.14495332  0.49521085  1  1.531146  0  0.21708  0.620894  0  4.136695  0
C  C63  1  0.88373311  0.96685618  0.35916105  1  1.510738  0  0.209013  0.635823  0  4.163909  0
C  C64  1  0.91244894  0.92114779  0.53469878  1  1.516942  0  0.206931  0.637751  0  4.157035  0
C  C65  1  0.59647076  0.96958578  0.11417508  1  1.521104  0  0.206839  0.638157  0  4.159249  0
C  C66  1  0.55650822  0.41624263  0.42799450  1  1.544373  0  0.209577  0.674051  0  4.133322  0
C  C67  1  0.54400601  0.92694550  0.90298819  1  1.505225  0  0.209942  0.641753  0  4.149383  0
C  C68  1  0.35483682  0.96516048  0.88835427  1  1.549161  0  0.225339  0.577661  0  4.1338  0
C  C69  1  0.51962572  0.13605122  0.12843132  1  1.527139  0  0.213644  0.642554  0  4.143789  0
C  C70  1  0.29478152  0.02229157  0.79870721  1  0.040778  0  -0.120071  -0.301058  0  3.964581  0
C  C71  1  0.27990463  0.95279324  0.81325653  1  0.371886  0  0.091414  0.089533  0  4.084372  0
C  C72  1  0.23805308  0.03259587  0.73267698  1  0.470828  0  0.116993  0.314715  0  4.071799  0
C  C73  1  0.19686031  0.97422517  0.64466872  1  0.007099  0  -0.155854  -0.462204  0  3.93957  0
C  C74  1  0.66263172  0.88994453  0.17079685  1  -0.066479  0  -0.064266  -0.017175  0  3.971319  0
C  C75  1  0.66951154  0.96208408  0.16534637  1  -0.028141  0  -0.090399  -0.230852  0  3.89714  0
C  C76  1  0.73888544  0.88849243  0.22322140  1  0.01901  0  -0.069656  -0.035994  0  3.979028  0
C  C77  1  0.61152205  0.65490900  0.50789599  1  1.427036  0  0.190228  0.648723  0  4.165797  0
C  C78  1  0.80449817  0.95986912  0.29836990  1  -0.036509  0  -0.084194  -0.211794  0  3.885607  0
C  C79  1  0.20216626  0.32315117  0.45907196  1  -0.021586  0  -0.078162  -0.124406  0  3.628558  0
C  C80  1  0.22064448  0.31465337  0.54279772  1  -0.037501  0  -0.078207  -0.057343  0  3.653138  0
C  C81  1  0.17728065  0.21378693  0.48849678  1  -0.017005  0  -0.02093  -0.108066  0  3.69454  0
C  C82  1  0.15820023  0.22222774  0.40374196  1  0.564511  0  0.077524  0.230689  0  3.712601  0
C  C83  1  0.25085135  0.23179974  0.41638999  1  0.445735  0  0.091955  0.127937  0  3.729081  0
C  C84  1  0.87823854  0.80486147  0.72553269  1  0.322477  0  -0.129905  -0.214935  0  3.999891  0
C  C85  1  0.11832048  0.85642136  0.72015670  1  0.276761  0  -0.132816  -0.210293  0  3.981322  0
C  C86  1  0.26769043  0.16603777  0.85144992  1  0.317674  0  -0.130499  -0.209455  0  4.008518  0
C  C87  1  0.22995540  0.10080356  0.30865176  1  0.281765  0  -0.14413  -0.20843  0  4.021147  0
N  N88  1  0.78866808  0.76395559  0.65838326  1  -1.248969  0  -0.428028  -0.259026  0  3.567431  0
N  N89  1  0.20531758  0.87471410  0.77373823  1  -1.19351  0  -0.437462  -0.248519  0  3.621255  0
N  N90  1  0.23261733  0.10600873  0.76196368  1  -1.253688  0  -0.431058  -0.262142  0  3.58019  0
N  N91  1  0.27541676  0.19615572  0.35665830  1  -1.156894  0  -0.475358  -0.349332  0  3.504489  0
O  O92  1  0.47539201  0.60050193  0.56775514  1  -1.156166  0  -0.314542  -0.568676  0  2.266322  0
O  O93  1  0.12200320  0.04478640  0.59979408  1  -1.198498  0  -0.338276  -0.621596  0  2.373399  0
O  O94  1  0.08887527  0.06624706  0.44151967  1  -1.177749  0  -0.323659  -0.589671  0  2.290231  0
O  O95  1  0.09582553  0.16881093  0.55412052  1  -1.134972  0  -0.324794  -0.534773  0  2.240497  0
O  O96  1  0.91226342  0.91581664  0.33226888  1  -1.129219  0  -0.323887  -0.53824  0  2.215738  0
O  O97  1  0.91840756  0.02597505  0.43651758  1  -1.162875  0  -0.315608  -0.564795  0  2.299677  0
O  O98  1  0.93518943  0.89483905  0.47961239  1  -1.162301  0  -0.313086  -0.568861  0  2.2739  0
O  O99  1  0.94506334  0.00220197  0.58916170  1  -1.138548  0  -0.330562  -0.547016  0  2.195229  0
O  O100  1  0.51706301  0.91290527  0.08736625  1  -1.130919  0  -0.325692  -0.539819  0  2.209909  0
O  O101  1  0.61720106  0.03313078  0.09882655  1  -1.16828  0  -0.318801  -0.578089  0  2.272631  0
O  O102  1  0.48765786  0.89634878  0.92412911  1  -1.174524  0  -0.317016  -0.583567  0  2.315886  0
O  O103  1  0.57403780  0.59603714  0.67404639  1  -1.137258  0  -0.332113  -0.551739  0  2.209259  0
O  O104  1  0.58766344  0.00889848  0.92643137  1  -1.118963  0  -0.325716  -0.53322  0  2.185548  0
O  O105  1  0.33548257  0.91067971  0.91662376  1  -1.135509  0  -0.320526  -0.537158  0  2.255302  0
O  O106  1  0.43074852  0.02719041  0.91960776  1  -1.182986  0  -0.306797  -0.554904  0  2.343696  0
O  O107  1  0.46850368  0.05617621  0.10169895  1  -1.159814  0  -0.314311  -0.564842  0  2.260952  0
O  O108  1  0.56779709  0.16427431  0.09721063  1  -1.13458  0  -0.322276  -0.536789  0  2.248929  0
O  O109  1  0.34546231  0.42812356  0.41824133  1  -1.134878  0  -0.325332  -0.539642  0  2.212204  0
O  O110  1  0.44172619  0.42122191  0.52373564  1  -1.173767  0  -0.312531  -0.568648  0  2.346257  0
O  O111  1  0.50344563  0.44115559  0.39902597  1  -1.162557  0  -0.315123  -0.569324  0  2.311128  0
O  O112  1  0.59957905  0.43845245  0.50843811  1  -1.129438  0  -0.334573  -0.550647  0  2.186225  0
O  O113  1  0.53295915  0.61985059  0.44473936  1  -1.131664  0  -0.339097  -0.545932  0  2.20632  0
O  O114  1  0.63105677  0.62161645  0.55709205  1  -1.195604  0  -0.327578  -0.605013  0  2.335778  0
O  O115  1  0.10596455  0.92592713  0.49768559  1  -1.135558  0  -0.346879  -0.556137  0  2.19349  0
O  O116  1  0.55095715  0.41522033  0.27217138  1  -1.081831  0  -0.335136  -0.411437  0  2.253359  0
O  O117  1  0.07798762  0.17413459  0.32855224  1  -1.114272  0  -0.388329  -0.491734  0  2.212527  0
