# generated using pymatgen
data_HoH18(C2O)7
_symmetry_space_group_name_H-M   'P 1'
_cell_length_a   12.89154465
_cell_length_b   14.08625673
_cell_length_c   18.82466874
_cell_angle_alpha   89.99987741
_cell_angle_beta   90.00007296
_cell_angle_gamma   90.00002954
_symmetry_Int_Tables_number   1
_chemical_formula_structural   HoH18(C2O)7
_chemical_formula_sum   'Ho8 H144 C112 O56'
_cell_volume   3418.43950742
_cell_formula_units_Z   8
loop_
 _symmetry_equiv_pos_site_id
 _symmetry_equiv_pos_as_xyz
  1  'x, y, z'
loop_
 _atom_site_type_symbol
 _atom_site_label
 _atom_site_symmetry_multiplicity
 _atom_site_fract_x
 _atom_site_fract_y
 _atom_site_fract_z
 _atom_site_occupancy
 _atom_site_pbe_bader_charge
 _atom_site_pbe_bader_spin_density
 _atom_site_pbe_cm5_charge
 _atom_site_pbe_ddec_charge
 _atom_site_pbe_ddec_spin_density
 _atom_site_pbe_ddec_sum_bond_order
 _atom_site_pbe_magmom
Ho  Ho0  1  0.71711893  0.00453381  0.88992726  1  2.191214  0  1.553827  2.148737  0  2.17523  0
Ho  Ho1  1  0.78288045  0.99546636  0.38992619  1  2.191218  0  1.553825  2.148785  0  2.175147  0
Ho  Ho2  1  0.28288070  0.50453423  0.61007367  1  2.191207  0  1.553806  2.148732  0  2.17519  0
Ho  Ho3  1  0.21711852  0.49546722  0.11007282  1  2.191223  0  1.553826  2.148758  0  2.175191  0
Ho  Ho4  1  0.77281880  0.02072084  0.67175610  1  2.184518  0  1.551265  2.082742  0  2.192473  0
Ho  Ho5  1  0.72718249  0.97927783  0.17175342  1  2.18465  0  1.551269  2.082819  0  2.192376  0
Ho  Ho6  1  0.22718316  0.52072344  0.82824746  1  2.184508  0  1.55121  2.082766  0  2.192361  0
Ho  Ho7  1  0.27281802  0.47927809  0.32824402  1  2.184506  0  1.551253  2.082734  0  2.192471  0
H  H8  1  0.99277093  0.06905280  0.88163130  1  0.060257  0  0.10357  0.093109  0  1.022436  0
H  H9  1  0.50722843  0.93094668  0.38163063  1  0.060291  0  0.10357  0.093095  0  1.022355  0
H  H10  1  0.00722873  0.56905377  0.61837006  1  0.060297  0  0.103565  0.093082  0  1.022375  0
H  H11  1  0.49276973  0.43094694  0.11836902  1  0.060814  0  0.103559  0.093101  0  1.022432  0
H  H12  1  0.12188758  0.04117313  0.75153728  1  0.026431  0  0.094258  0.100854  0  0.996768  0
H  H13  1  0.37811268  0.95882792  0.25153636  1  0.026393  0  0.09424  0.100839  0  0.996724  0
H  H14  1  0.87811362  0.54117130  0.74846359  1  0.026388  0  0.094232  0.100825  0  0.996749  0
H  H15  1  0.62188705  0.45882715  0.24846218  1  0.026391  0  0.094269  0.100874  0  0.996756  0
H  H16  1  0.15184527  0.01391239  0.84090410  1  0.021806  0  0.090473  0.086956  0  0.998623  0
H  H17  1  0.34815437  0.98608839  0.34090311  1  0.0221  0  0.090441  0.086892  0  0.998712  0
H  H18  1  0.84815513  0.51391080  0.65909682  1  0.022087  0  0.090441  0.086895  0  0.99868  0
H  H19  1  0.65184459  0.48608790  0.15909592  1  0.021802  0  0.090458  0.086942  0  0.998648  0
H  H20  1  0.26506835  0.14877580  0.83165500  1  -0.007602  0  0.091771  0.092319  0  0.990296  0
H  H21  1  0.23493050  0.85122572  0.33165413  1  -0.007601  0  0.091821  0.092408  0  0.990225  0
H  H22  1  0.73493058  0.64877342  0.66834569  1  -0.007606  0  0.091815  0.092396  0  0.99024  0
H  H23  1  0.76506761  0.35122455  0.16834458  1  -0.007595  0  0.091801  0.0924  0  0.990284  0
H  H24  1  0.19617198  0.19301049  0.75774447  1  0.027171  0  0.090093  0.086651  0  1.017036  0
H  H25  1  0.30382674  0.80699124  0.25774320  1  0.027147  0  0.09009  0.086616  0  1.017066  0
H  H26  1  0.80382698  0.69300794  0.74225668  1  0.027163  0  0.090072  0.086593  0  1.017098  0
H  H27  1  0.69617135  0.30698982  0.24225505  1  0.027189  0  0.090092  0.086641  0  1.017022  0
H  H28  1  0.22230635  0.21670708  0.95290434  1  0.049688  0  0.094585  0.130776  0  0.986138  0
H  H29  1  0.27769273  0.78329197  0.45290361  1  0.049708  0  0.094567  0.130756  0  0.986091  0
H  H30  1  0.77769185  0.71670720  0.54709625  1  0.049702  0  0.094551  0.130748  0  0.986094  0
H  H31  1  0.72230612  0.28329325  0.04709521  1  0.049698  0  0.094587  0.130777  0  0.986097  0
H  H32  1  0.13118767  0.12303704  0.94432149  1  0.036449  0  0.094981  0.133608  0  0.997143  0
H  H33  1  0.36881217  0.87696274  0.44432069  1  0.036472  0  0.094974  0.133602  0  0.997094  0
H  H34  1  0.86881202  0.62303647  0.55567925  1  0.036454  0  0.094999  0.133626  0  0.997092  0
H  H35  1  0.63118674  0.37696324  0.05567798  1  0.036439  0  0.094988  0.133611  0  0.997104  0
H  H36  1  0.08920440  0.23609329  0.97304221  1  0.044147  0  0.089845  0.114404  0  1.051791  0
H  H37  1  0.41079472  0.76390499  0.47304056  1  0.044093  0  0.089868  0.114432  0  1.051787  0
H  H38  1  0.91079458  0.73609424  0.52695941  1  0.044101  0  0.089876  0.114435  0  1.051785  0
H  H39  1  0.58920412  0.26390698  0.02695723  1  0.04412  0  0.089832  0.11438  0  1.051816  0
H  H40  1  0.98892885  0.33333610  0.76766573  1  -0.004966  0  0.090631  0.130698  0  0.999533  0
H  H41  1  0.51107108  0.66666301  0.26766602  1  -0.004708  0  0.090645  0.130746  0  0.999484  0
H  H42  1  0.01107096  0.83333603  0.73233361  1  -0.004964  0  0.090631  0.130694  0  0.999522  0
H  H43  1  0.48892848  0.16666365  0.23233299  1  -0.004823  0  0.09065  0.130693  0  0.999535  0
H  H44  1  0.90687347  0.23691731  0.74513204  1  0.04364  0  0.093117  0.12669  0  1.032423  0
H  H45  1  0.59312642  0.76308257  0.24513225  1  0.04364  0  0.093098  0.126685  0  1.032439  0
H  H46  1  0.09312629  0.73691793  0.75486745  1  0.043671  0  0.093091  0.12667  0  1.032451  0
H  H47  1  0.40687320  0.26308169  0.25486713  1  0.043644  0  0.093101  0.126675  0  1.032444  0
H  H48  1  0.03897512  0.23332356  0.72091451  1  0.030574  0  0.092527  0.135224  0  1.00207  0
H  H49  1  0.46102586  0.76667615  0.22091450  1  0.030587  0  0.092546  0.135196  0  1.002125  0
H  H50  1  0.96102541  0.73332381  0.77908552  1  0.030584  0  0.092539  0.135173  0  1.002121  0
H  H51  1  0.53897454  0.26667597  0.27908488  1  0.030585  0  0.09253  0.135221  0  1.002056  0
H  H52  1  0.93632860  0.31850939  0.89929938  1  0.017934  0  0.090279  0.132698  0  0.993204  0
H  H53  1  0.56367080  0.68149076  0.39929969  1  0.017929  0  0.090274  0.132741  0  0.993149  0
H  H54  1  0.06367043  0.81850972  0.60069998  1  0.017933  0  0.090284  0.132743  0  0.993142  0
H  H55  1  0.43632800  0.18149033  0.10069929  1  0.017914  0  0.090281  0.132703  0  0.993176  0
H  H56  1  0.93318701  0.20363708  0.93964493  1  0.015881  0  0.0902  0.130485  0  1.015412  0
H  H57  1  0.56681169  0.79636295  0.43964559  1  0.015876  0  0.090212  0.130522  0  1.015319  0
H  H58  1  0.06681118  0.70363682  0.56035461  1  0.015879  0  0.090208  0.130507  0  1.015335  0
H  H59  1  0.43318717  0.29636264  0.06035374  1  0.015861  0  0.090212  0.130496  0  1.015329  0
H  H60  1  0.84910936  0.22999122  0.86867576  1  0.03305  0  0.089971  0.120619  0  1.047575  0
H  H61  1  0.65088920  0.77000973  0.36867601  1  0.032881  0  0.089958  0.120651  0  1.047575  0
H  H62  1  0.15088884  0.72999080  0.63132374  1  0.032881  0  0.089964  0.120654  0  1.047566  0
H  H63  1  0.34910964  0.27000846  0.13132283  1  0.032864  0  0.089977  0.120632  0  1.047581  0
H  H64  1  0.40063418  0.90378902  0.84791397  1  0.050943  0  0.092491  0.09846  0  1.009258  0
H  H65  1  0.09936548  0.09620961  0.34791419  1  0.050945  0  0.092497  0.098452  0  1.00926  0
H  H66  1  0.59936567  0.40378995  0.65208631  1  0.050952  0  0.092513  0.098463  0  1.009258  0
H  H67  1  0.90063404  0.59621091  0.15208546  1  0.050934  0  0.092473  0.098426  0  1.009293  0
H  H68  1  0.33542138  0.00043055  0.80949115  1  0.023465  0  0.088818  0.088839  0  1.007928  0
H  H69  1  0.16457898  0.99956891  0.30948945  1  0.023465  0  0.088805  0.088798  0  1.008007  0
H  H70  1  0.66457979  0.50043091  0.69051085  1  0.023461  0  0.08882  0.088819  0  1.008006  0
H  H71  1  0.83542076  0.49956912  0.19050903  1  0.02345  0  0.088814  0.088841  0  1.00794  0
H  H72  1  0.21126889  0.89744250  0.75425063  1  0.004704  0  0.085618  0.075799  0  1.025135  0
H  H73  1  0.28873138  0.10255782  0.25425100  1  0.004706  0  0.085621  0.075791  0  1.025129  0
H  H74  1  0.78873251  0.39744254  0.74574967  1  0.004684  0  0.08562  0.075809  0  1.025126  0
H  H75  1  0.71126893  0.60255663  0.24574917  1  0.0047  0  0.085613  0.075793  0  1.025145  0
H  H76  1  0.25530786  0.81324120  0.81674637  1  0.063141  0  0.092405  0.095169  0  1.011989  0
H  H77  1  0.24469096  0.18675823  0.31674604  1  0.063154  0  0.092411  0.095164  0  1.012023  0
H  H78  1  0.74469193  0.31324139  0.68325406  1  0.063151  0  0.092413  0.095184  0  1.011976  0
H  H79  1  0.75530783  0.68675866  0.18325241  1  0.063127  0  0.092429  0.095179  0  1.011983  0
H  H80  1  0.29414248  0.82267119  0.66153462  1  0.069919  0  0.1015  0.08769  0  0.989298  0
H  H81  1  0.20585761  0.17732798  0.16153426  1  0.069905  0  0.1015  0.087717  0  0.989305  0
H  H82  1  0.70585810  0.32267163  0.83846580  1  0.069898  0  0.101491  0.087736  0  0.989322  0
H  H83  1  0.79414196  0.67732869  0.33846526  1  0.069919  0  0.101496  0.087697  0  0.989301  0
H  H84  1  0.40653768  0.07420617  0.70465953  1  0.028452  0  0.085464  0.116335  0  1.023518  0
H  H85  1  0.09346171  0.92579359  0.20465894  1  0.028455  0  0.085477  0.116378  0  1.023499  0
H  H86  1  0.59346276  0.57420549  0.79534129  1  0.028468  0  0.085463  0.116347  0  1.023531  0
H  H87  1  0.90653955  0.42579496  0.29534124  1  0.028477  0  0.08546  0.116338  0  1.023534  0
H  H88  1  0.34187381  0.98360964  0.65670733  1  0.020757  0  0.088723  0.122919  0  0.99899  0
H  H89  1  0.15812472  0.01639026  0.15670666  1  0.02077  0  0.088723  0.12295  0  0.999003  0
H  H90  1  0.65812531  0.48361004  0.84329389  1  0.020759  0  0.088718  0.122923  0  0.999009  0
H  H91  1  0.84187631  0.51639027  0.34329258  1  0.020793  0  0.08871  0.122912  0  0.998998  0
H  H92  1  0.47532300  0.00806663  0.63978676  1  0.078381  0  0.091142  0.130563  0  1.039527  0
H  H93  1  0.02467550  0.99193331  0.13978548  1  0.078356  0  0.091162  0.130624  0  1.039507  0
H  H94  1  0.52467663  0.50806574  0.86021416  1  0.078375  0  0.091184  0.130624  0  1.039491  0
H  H95  1  0.97532658  0.49193452  0.36021301  1  0.078345  0  0.091153  0.130584  0  1.039498  0
H  H96  1  0.50325477  0.68633825  0.73850403  1  0.04637  0  0.091318  0.129296  0  1.012755  0
H  H97  1  0.99674588  0.31366165  0.23850372  1  0.046371  0  0.091316  0.129302  0  1.012754  0
H  H98  1  0.49674573  0.18633739  0.76149607  1  0.046353  0  0.091322  0.129324  0  1.012736  0
H  H99  1  0.00325454  0.81366221  0.26149612  1  0.046353  0  0.091324  0.129321  0  1.012771  0
H  H100  1  0.48577363  0.76335931  0.81205267  1  0.019562  0  0.090495  0.12751  0  1.047504  0
H  H101  1  0.01422751  0.23663943  0.31205312  1  0.019536  0  0.090495  0.127515  0  1.047496  0
H  H102  1  0.51422769  0.26336009  0.68794678  1  0.01955  0  0.090498  0.127523  0  1.047471  0
H  H103  1  0.98577364  0.73664066  0.18794684  1  0.019552  0  0.090492  0.127526  0  1.0475  0
H  H104  1  0.59350544  0.77888093  0.75399378  1  -0.007491  0  0.089545  0.125045  0  1.018851  0
H  H105  1  0.90649524  0.22111821  0.25399460  1  -0.007482  0  0.089567  0.125076  0  1.018841  0
H  H106  1  0.40649589  0.27888149  0.74600511  1  -0.007475  0  0.089558  0.125072  0  1.018843  0
H  H107  1  0.09350513  0.72111957  0.24600592  1  -0.007488  0  0.089546  0.125057  0  1.018864  0
H  H108  1  0.49620509  0.74268980  0.61843919  1  0.007394  0  0.086824  0.118626  0  1.020953  0
H  H109  1  0.00379492  0.25731021  0.11843906  1  0.007391  0  0.086824  0.118629  0  1.020946  0
H  H110  1  0.50379467  0.24268931  0.88156082  1  0.007374  0  0.086815  0.118613  0  1.020957  0
H  H111  1  0.99620470  0.75731018  0.38156033  1  0.007398  0  0.086826  0.11864  0  1.020942  0
H  H112  1  0.56765507  0.84938316  0.62971902  1  0.053635  0  0.09445  0.137921  0  1.012351  0
H  H113  1  0.93234538  0.15061776  0.12971890  1  0.05364  0  0.094442  0.137916  0  1.012385  0
H  H114  1  0.43234553  0.34938195  0.87028030  1  0.053648  0  0.094447  0.137936  0  1.012393  0
H  H115  1  0.06765417  0.65061804  0.37028119  1  0.05354  0  0.094451  0.137946  0  1.01237  0
H  H116  1  0.44030024  0.85368027  0.59393506  1  0.012929  0  0.085422  0.117778  0  1.018478  0
H  H117  1  0.05969972  0.14632051  0.09393516  1  0.012963  0  0.085426  0.117788  0  1.018474  0
H  H118  1  0.55969958  0.35367903  0.90606478  1  0.012975  0  0.085433  0.11782  0  1.018447  0
H  H119  1  0.94029983  0.64632039  0.40606441  1  0.012981  0  0.085414  0.117758  0  1.018501  0
H  H120  1  0.53057908  0.81200376  0.90964215  1  0.093174  0  0.105276  0.101387  0  1.062196  0
H  H121  1  0.96942344  0.18799636  0.40963935  1  0.093163  0  0.10528  0.101406  0  1.062204  0
H  H122  1  0.46942227  0.31200409  0.59036200  1  0.093088  0  0.105297  0.101383  0  1.062257  0
H  H123  1  0.03057923  0.68799813  0.09035696  1  0.093077  0  0.105284  0.101423  0  1.062224  0
H  H124  1  0.41724582  0.66928806  0.88830957  1  0.100441  0  0.11067  0.102928  0  1.040157  0
H  H125  1  0.08275547  0.33071472  0.38830727  1  0.100451  0  0.110653  0.102941  0  1.040106  0
H  H126  1  0.58275545  0.16928625  0.61169481  1  0.100512  0  0.11063  0.102891  0  1.040173  0
H  H127  1  0.91724496  0.83071330  0.11169148  1  0.100552  0  0.110659  0.102915  0  1.040133  0
H  H128  1  0.47544134  0.57575832  0.10180924  1  0.063403  0  0.107236  0.103238  0  1.038001  0
H  H129  1  0.02455941  0.42424386  0.60180787  1  0.063426  0  0.107239  0.103295  0  1.037977  0
H  H130  1  0.52455972  0.07575921  0.39819363  1  0.063422  0  0.107265  0.10325  0  1.037989  0
H  H131  1  0.97544123  0.92424236  0.89819132  1  0.063404  0  0.107242  0.103267  0  1.037965  0
H  H132  1  0.58946265  0.71695836  0.12206292  1  0.076919  0  0.109009  0.111466  0  1.023997  0
H  H133  1  0.91053778  0.28304329  0.62206211  1  0.076987  0  0.109001  0.111475  0  1.023992  0
H  H134  1  0.41053694  0.21695641  0.37794026  1  0.076964  0  0.109016  0.111488  0  1.024025  0
H  H135  1  0.08945967  0.78304001  0.87793571  1  0.076892  0  0.10901  0.111436  0  1.023993  0
H  H136  1  0.72980186  0.79993182  0.86495833  1  0.631323  0  0.334524  0.42076  0  0.866198  0
H  H137  1  0.77019747  0.20006843  0.36495799  1  0.631331  0  0.334538  0.420781  0  0.86617  0
H  H138  1  0.27019716  0.29993192  0.63504160  1  0.631338  0  0.334552  0.420791  0  0.866152  0
H  H139  1  0.22980133  0.70006874  0.13504149  1  0.631313  0  0.334544  0.420758  0  0.866204  0
H  H140  1  0.78607590  0.84391097  0.79643281  1  0.674993  0  0.307799  0.416954  0  0.913398  0
H  H141  1  0.71392253  0.15608876  0.29643196  1  0.674982  0  0.307778  0.416909  0  0.91346  0
H  H142  1  0.21392236  0.34391085  0.70356864  1  0.674972  0  0.307771  0.416882  0  0.913494  0
H  H143  1  0.28607703  0.65609033  0.20356653  1  0.674895  0  0.307803  0.416947  0  0.913411  0
H  H144  1  0.62116688  0.10584442  0.01777102  1  0.680136  0  0.304146  0.421875  0  0.906034  0
H  H145  1  0.87883025  0.89415469  0.51777133  1  0.680127  0  0.304145  0.421898  0  0.906033  0
H  H146  1  0.37883109  0.60584453  0.48222862  1  0.680131  0  0.304158  0.421911  0  0.906016  0
H  H147  1  0.12116571  0.39415586  0.98222951  1  0.680142  0  0.304141  0.42186  0  0.906055  0
H  H148  1  0.61155603  0.15947835  0.94230995  1  0.615248  0  0.312318  0.3958  0  0.925157  0
H  H149  1  0.88844344  0.84052025  0.44231188  1  0.615252  0  0.312294  0.395749  0  0.925225  0
H  H150  1  0.38844368  0.65947897  0.55768807  1  0.615259  0  0.312299  0.395753  0  0.925219  0
H  H151  1  0.11155544  0.34052192  0.05768950  1  0.615253  0  0.312321  0.395809  0  0.925148  0
C  C152  1  0.01025868  0.09657309  0.82838210  1  -0.008444  0  -0.08355  -0.181326  0  3.759825  0
C  C153  1  0.48974094  0.90342773  0.32838083  1  -0.008489  0  -0.083555  -0.181361  0  3.759975  0
C  C154  1  0.98974099  0.59657224  0.67161921  1  -0.008504  0  -0.083552  -0.181323  0  3.759933  0
C  C155  1  0.51025798  0.40342643  0.17161779  1  -0.009005  0  -0.083492  -0.181201  0  3.759658  0
C  C156  1  0.12172707  0.06968737  0.80573051  1  0.004073  0  -0.16531  -0.161986  0  3.891022  0
C  C157  1  0.37827484  0.93031423  0.30572964  1  0.003781  0  -0.165233  -0.161829  0  3.891091  0
C  C158  1  0.87827492  0.56968498  0.69427031  1  0.003785  0  -0.165234  -0.161847  0  3.891014  0
C  C159  1  0.62172642  0.43031291  0.19426895  1  0.004132  0  -0.165343  -0.162049  0  3.890993  0
C  C160  1  0.18677826  0.16111053  0.81048540  1  0.006545  0  -0.164308  -0.187881  0  3.899234  0
C  C161  1  0.31322211  0.83889106  0.31048408  1  0.006572  0  -0.164421  -0.188005  0  3.899362  0
C  C162  1  0.81322223  0.66110884  0.68951528  1  0.006574  0  -0.164351  -0.187946  0  3.899418  0
C  C163  1  0.68677755  0.33888978  0.18951412  1  0.006544  0  -0.164344  -0.187941  0  3.899319  0
C  C164  1  0.12420010  0.22784641  0.85904819  1  0.024504  0  -0.010083  0.012762  0  3.738654  0
C  C165  1  0.37579958  0.77215290  0.35904756  1  0.024748  0  -0.010026  0.012656  0  3.739002  0
C  C166  1  0.87579965  0.72784631  0.64095238  1  0.024665  0  -0.010084  0.012726  0  3.738942  0
C  C167  1  0.62419926  0.27215316  0.14095127  1  0.024329  0  -0.010054  0.012627  0  3.73889  0
C  C168  1  0.00802160  0.20823653  0.83482993  1  0.033093  0  0.003279  0.212683  0  3.668471  0
C  C169  1  0.49197726  0.79176357  0.33482938  1  0.03312  0  0.003301  0.212755  0  3.668483  0
C  C170  1  0.99197737  0.70823570  0.66517067  1  0.033166  0  0.003293  0.212678  0  3.668532  0
C  C171  1  0.50802159  0.29176299  0.16516996  1  0.03311  0  0.003288  0.212735  0  3.66844  0
C  C172  1  0.92835109  0.05596642  0.77934688  1  1.50713  0  0.221094  0.660337  0  4.086763  0
C  C173  1  0.57164653  0.94403265  0.27934731  1  1.50748  0  0.221071  0.660396  0  4.086734  0
C  C174  1  0.07164701  0.55596784  0.72065291  1  1.506837  0  0.221058  0.660393  0  4.086744  0
C  C175  1  0.42835086  0.44403258  0.22065338  1  1.507122  0  0.221014  0.660301  0  4.086837  0
C  C176  1  0.15268313  0.33197133  0.84853266  1  1.533553  0  0.22146  0.598457  0  4.085351  0
C  C177  1  0.34731343  0.66803015  0.34853324  1  1.533314  0  0.221441  0.598476  0  4.085403  0
C  C178  1  0.84731358  0.83196905  0.65146668  1  1.533305  0  0.221515  0.598538  0  4.085311  0
C  C179  1  0.65268303  0.16802896  0.15146683  1  1.533542  0  0.221414  0.59842  0  4.085534  0
C  C180  1  0.14247493  0.19965997  0.93697150  1  -0.104671  0  -0.239662  -0.398669  0  3.91514  0
C  C181  1  0.35752412  0.80033912  0.43697029  1  -0.104615  0  -0.239669  -0.398635  0  3.915164  0
C  C182  1  0.85752403  0.69966008  0.56302964  1  -0.10461  0  -0.23968  -0.398673  0  3.915118  0
C  C183  1  0.64247397  0.30034032  0.06302798  1  -0.10449  0  -0.239668  -0.398615  0  3.915132  0
C  C184  1  0.98531870  0.25559437  0.76296823  1  -0.041164  0  -0.246389  -0.42703  0  3.873965  0
C  C185  1  0.51468199  0.74440404  0.26296787  1  -0.041451  0  -0.246419  -0.42706  0  3.873999  0
C  C186  1  0.01468106  0.75559429  0.73703123  1  -0.041175  0  -0.246381  -0.426945  0  3.874031  0
C  C187  1  0.48531839  0.24440466  0.23703208  1  -0.041331  0  -0.246396  -0.426998  0  3.87396  0
C  C188  1  0.92769035  0.24203344  0.88909368  1  -0.040561  0  -0.245425  -0.427385  0  3.897322  0
C  C189  1  0.57230825  0.75796603  0.38909387  1  -0.040351  0  -0.245433  -0.427528  0  3.897188  0
C  C190  1  0.07230864  0.74203375  0.61090634  1  -0.040355  0  -0.245438  -0.427504  0  3.897202  0
C  C191  1  0.42768981  0.25796557  0.11090552  1  -0.040363  0  -0.245464  -0.427447  0  3.897219  0
C  C192  1  0.44678216  0.93141612  0.73909718  1  0.030166  0  -0.009966  0.010289  0  3.723481  0
C  C193  1  0.05321884  0.06858425  0.23909687  1  0.030158  0  -0.009971  0.010341  0  3.723412  0
C  C194  1  0.55321925  0.43141600  0.76090253  1  0.030056  0  -0.009955  0.010288  0  3.723533  0
C  C195  1  0.94678144  0.56858526  0.26090282  1  0.030056  0  -0.009991  0.010326  0  3.723445  0
C  C196  1  0.36494563  0.92879076  0.79851280  1  -0.031141  0  -0.169262  -0.18905  0  3.892062  0
C  C197  1  0.13505549  0.07121015  0.29851309  1  -0.031128  0  -0.169267  -0.189036  0  3.892164  0
C  C198  1  0.63505578  0.42879014  0.70148691  1  -0.031041  0  -0.169329  -0.189068  0  3.892192  0
C  C199  1  0.86494557  0.57120845  0.20148660  1  -0.031039  0  -0.169252  -0.189063  0  3.892153  0
C  C200  1  0.28036379  0.86002162  0.77345846  1  -0.044114  0  -0.171766  -0.162976  0  3.916012  0
C  C201  1  0.21963573  0.13997794  0.27345818  1  -0.044126  0  -0.171758  -0.162926  0  3.916081  0
C  C202  1  0.71963681  0.36002168  0.72654189  1  -0.044112  0  -0.171766  -0.162953  0  3.916067  0
C  C203  1  0.78036382  0.63997755  0.22654087  1  -0.0441  0  -0.171789  -0.162973  0  3.916085  0
C  C204  1  0.32800658  0.80132550  0.71274086  1  -0.029698  0  -0.086846  -0.184574  0  3.785386  0
C  C205  1  0.17199206  0.19867424  0.21273991  1  -0.029709  0  -0.086849  -0.184635  0  3.785434  0
C  C206  1  0.67199321  0.30132536  0.78726012  1  -0.029689  0  -0.086866  -0.18477  0  3.785591  0
C  C207  1  0.82800675  0.69867369  0.28725904  1  -0.029692  0  -0.086863  -0.184594  0  3.785395  0
C  C208  1  0.44691243  0.82630378  0.70878545  1  0.052379  0  0.001329  0.210929  0  3.666895  0
C  C209  1  0.05308775  0.17369597  0.20878550  1  0.052345  0  0.001326  0.210945  0  3.666935  0
C  C210  1  0.55308738  0.32630357  0.79121443  1  0.052375  0  0.001329  0.210939  0  3.666929  0
C  C211  1  0.94691104  0.67369760  0.29121403  1  0.052358  0  0.001344  0.210953  0  3.666757  0
C  C212  1  0.55406725  0.95617215  0.76829932  1  1.565725  0  0.238797  0.659093  0  4.07502  0
C  C213  1  0.94593268  0.04382767  0.26829886  1  1.565725  0  0.238805  0.659098  0  4.074946  0
C  C214  1  0.44593263  0.45617135  0.73170036  1  1.565726  0  0.238891  0.659295  0  4.074939  0
C  C215  1  0.05406759  0.54382904  0.23170035  1  1.565724  0  0.238836  0.659177  0  4.075068  0
C  C216  1  0.30989158  0.69514398  0.71831501  1  1.554188  0  0.238024  0.685043  0  4.084795  0
C  C217  1  0.19010862  0.30485645  0.21831391  1  1.554196  0  0.238045  0.685007  0  4.084828  0
C  C218  1  0.69010970  0.19514244  0.78168561  1  1.55421  0  0.238061  0.685032  0  4.08488  0
C  C219  1  0.80989025  0.80485662  0.28168435  1  1.554201  0  0.237953  0.684907  0  4.085112  0
C  C220  1  0.41614859  0.00329240  0.68133806  1  -0.094277  0  -0.241309  -0.390461  0  3.898301  0
C  C221  1  0.08384998  0.99670742  0.18133736  1  -0.094273  0  -0.241352  -0.390633  0  3.89833  0
C  C222  1  0.58385025  0.50329165  0.81866233  1  -0.094277  0  -0.241345  -0.390536  0  3.898349  0
C  C223  1  0.91615054  0.49670802  0.31866218  1  -0.09427  0  -0.241299  -0.390487  0  3.898272  0
C  C224  1  0.51077912  0.76017757  0.75660416  1  -0.059027  0  -0.247436  -0.430866  0  3.881627  0
C  C225  1  0.98922156  0.23982227  0.25660449  1  -0.059008  0  -0.247476  -0.430931  0  3.881634  0
C  C226  1  0.48922143  0.26017676  0.74339529  1  -0.059015  0  -0.247439  -0.43091  0  3.881587  0
C  C227  1  0.01077959  0.73982360  0.24339546  1  -0.059028  0  -0.247408  -0.430895  0  3.88162  0
C  C228  1  0.48983428  0.81802136  0.63317777  1  -0.05035  0  -0.245644  -0.419568  0  3.896978  0
C  C229  1  0.01016575  0.18197860  0.13317830  1  -0.050381  0  -0.245637  -0.419575  0  3.896994  0
C  C230  1  0.51016552  0.31802020  0.86682160  1  -0.050382  0  -0.245672  -0.419646  0  3.89702  0
C  C231  1  0.98983382  0.68197862  0.36682122  1  -0.050283  0  -0.245678  -0.419646  0  3.89699  0
C  C232  1  0.56818040  0.77115743  0.01637230  1  -0.021184  0  -0.010652  -0.032075  0  3.952704  0
C  C233  1  0.93182139  0.22884310  0.51637266  1  -0.021065  0  -0.010617  -0.03202  0  3.952649  0
C  C234  1  0.43182000  0.27115519  0.48363026  1  -0.020994  0  -0.010653  -0.032048  0  3.952727  0
C  C235  1  0.06818069  0.72884305  0.98362738  1  -0.021169  0  -0.010631  -0.032126  0  3.952779  0
C  C236  1  0.51925307  0.75828041  0.95060865  1  -0.063517  0  -0.086832  -0.111919  0  3.977692  0
C  C237  1  0.98074642  0.24171888  0.45060843  1  -0.063857  0  -0.086857  -0.111955  0  3.977655  0
C  C238  1  0.48074437  0.25828157  0.54939400  1  -0.063892  0  -0.086847  -0.111852  0  3.977762  0
C  C239  1  0.01925318  0.74172005  0.04939152  1  -0.06381  0  -0.086845  -0.111958  0  3.977691  0
C  C240  1  0.45631954  0.67955403  0.93905735  1  -0.041622  0  -0.077799  -0.083206  0  3.961211  0
C  C241  1  0.04368184  0.32044647  0.43905503  1  -0.041367  0  -0.077818  -0.083297  0  3.961012  0
C  C242  1  0.54368096  0.17955377  0.56094649  1  -0.041462  0  -0.077779  -0.083268  0  3.96111  0
C  C243  1  0.95631858  0.82044664  0.06094373  1  -0.041842  0  -0.07782  -0.083207  0  3.961187  0
C  C244  1  0.44173870  0.61248716  0.99320071  1  -0.039611  0  -0.012013  -0.047869  0  3.953125  0
C  C245  1  0.05826511  0.38751461  0.49319990  1  -0.039504  0  -0.011993  -0.047778  0  3.95283  0
C  C246  1  0.55826409  0.11248706  0.50680163  1  -0.039135  0  -0.011985  -0.047763  0  3.952801  0
C  C247  1  0.94173845  0.88751279  0.00680035  1  -0.039132  0  -0.011953  -0.047799  0  3.953083  0
C  C248  1  0.48945050  0.62652489  0.05937340  1  -0.052218  0  -0.079747  -0.087495  0  3.971013  0
C  C249  1  0.01054785  0.37348025  0.55937316  1  -0.052366  0  -0.079781  -0.087553  0  3.970836  0
C  C250  1  0.51054671  0.12652139  0.44062886  1  -0.052702  0  -0.079795  -0.087472  0  3.970852  0
C  C251  1  0.98944966  0.87347509  0.94062664  1  -0.052183  0  -0.079775  -0.087513  0  3.970923  0
C  C252  1  0.55227388  0.70520796  0.07093532  1  0.035544  0  -0.079367  -0.088822  0  3.955638  0
C  C253  1  0.94772490  0.29479809  0.57093293  1  0.035562  0  -0.079397  -0.088908  0  3.955766  0
C  C254  1  0.44772415  0.20520234  0.42906787  1  0.035636  0  -0.079423  -0.088981  0  3.955716  0
C  C255  1  0.05227333  0.79479323  0.92906434  1  0.03552  0  -0.079371  -0.088777  0  3.955627  0
C  C256  1  0.63645542  0.85568592  0.02825082  1  1.602667  0  0.248562  0.683518  0  4.114075  0
C  C257  1  0.86354329  0.14431316  0.52825285  1  1.602852  0  0.248492  0.683397  0  4.114121  0
C  C258  1  0.36354347  0.35568581  0.47174841  1  1.602782  0  0.248531  0.683413  0  4.114136  0
C  C259  1  0.13645486  0.64431460  0.97174892  1  1.602712  0  0.248555  0.683554  0  4.113981  0
C  C260  1  0.37370104  0.52778120  0.98093546  1  1.575198  0  0.23715  0.658349  0  4.158009  0
C  C261  1  0.12630507  0.47221848  0.48093351  1  1.575304  0  0.237108  0.658312  0  4.158063  0
C  C262  1  0.62630480  0.02778251  0.51906702  1  1.575794  0  0.23711  0.658304  0  4.158149  0
C  C263  1  0.87370242  0.97221943  0.01906554  1  1.575197  0  0.237081  0.658144  0  4.158301  0
O  O264  1  0.83962861  0.03056643  0.80508330  1  -1.220167  0  -0.444475  -0.774192  0  2.425515  0
O  O265  1  0.66037216  0.96943257  0.30508270  1  -1.220513  0  -0.444461  -0.774259  0  2.425491  0
O  O266  1  0.16037180  0.53056725  0.69491758  1  -1.220102  0  -0.444464  -0.7742  0  2.425347  0
O  O267  1  0.33962835  0.46943324  0.19491635  1  -1.220171  0  -0.444441  -0.774203  0  2.425547  0
O  O268  1  0.94447245  0.04777840  0.71331067  1  -1.15209  0  -0.371322  -0.614575  0  2.188047  0
O  O269  1  0.55552971  0.95222086  0.21330895  1  -1.152078  0  -0.371297  -0.614565  0  2.187948  0
O  O270  1  0.05553108  0.54777962  0.78669125  1  -1.151841  0  -0.371271  -0.614581  0  2.187986  0
O  O271  1  0.44447157  0.45221920  0.28668961  1  -1.15208  0  -0.371275  -0.614557  0  2.188062  0
O  O272  1  0.13732817  0.39385995  0.89711620  1  -1.191408  0  -0.34236  -0.617197  0  2.249742  0
O  O273  1  0.36267004  0.60613997  0.39711583  1  -1.191389  0  -0.342366  -0.617185  0  2.249636  0
O  O274  1  0.86267013  0.89385924  0.60288411  1  -1.19137  0  -0.342408  -0.617258  0  2.24968  0
O  O275  1  0.63732794  0.10614034  0.10288328  1  -1.191423  0  -0.342337  -0.617167  0  2.249777  0
O  O276  1  0.19384029  0.36061566  0.79030906  1  -1.203245  0  -0.36812  -0.647511  0  2.337891  0
O  O277  1  0.30615771  0.63938599  0.29030858  1  -1.203292  0  -0.368107  -0.647477  0  2.337918  0
O  O278  1  0.80615798  0.86061319  0.70969130  1  -1.203287  0  -0.368132  -0.647526  0  2.337855  0
O  O279  1  0.69383951  0.13938466  0.20969047  1  -1.203226  0  -0.368102  -0.64747  0  2.337957  0
O  O280  1  0.62709958  0.97217435  0.72467201  1  -1.224083  0  -0.423629  -0.713867  0  2.42952  0
O  O281  1  0.87290104  0.02782630  0.22467045  1  -1.224116  0  -0.423629  -0.713893  0  2.429493  0
O  O282  1  0.37290109  0.47217552  0.77532711  1  -1.224054  0  -0.423707  -0.713994  0  2.429575  0
O  O283  1  0.12709999  0.52782546  0.27532719  1  -1.224074  0  -0.423727  -0.713995  0  2.429587  0
O  O284  1  0.56761650  0.95789501  0.83530555  1  -1.19547  0  -0.40668  -0.681358  0  2.306647  0
O  O285  1  0.93238433  0.04210461  0.33530561  1  -1.195455  0  -0.406679  -0.681364  0  2.306633  0
O  O286  1  0.43238338  0.45789227  0.66469359  1  -1.195485  0  -0.40666  -0.681373  0  2.306599  0
O  O287  1  0.06761594  0.54210832  0.16469413  1  -1.195472  0  -0.406586  -0.681291  0  2.306722  0
O  O288  1  0.32484162  0.64731163  0.66150555  1  -1.215082  0  -0.409434  -0.704485  0  2.337057  0
O  O289  1  0.17515769  0.35268684  0.16150383  1  -1.215091  0  -0.409472  -0.704516  0  2.337046  0
O  O290  1  0.67515886  0.14731276  0.83849621  1  -1.215096  0  -0.409453  -0.704488  0  2.337082  0
O  O291  1  0.82484120  0.85268756  0.33849435  1  -1.215061  0  -0.409409  -0.70445  0  2.337127  0
O  O292  1  0.28266913  0.65972497  0.77750438  1  -1.208204  0  -0.397441  -0.668686  0  2.310377  0
O  O293  1  0.21733195  0.34027671  0.27750165  1  -1.208178  0  -0.397437  -0.6686  0  2.310449  0
O  O294  1  0.71733213  0.15972290  0.72249789  1  -1.20824  0  -0.39745  -0.668596  0  2.310457  0
O  O295  1  0.78266848  0.84027633  0.22249495  1  -1.208354  0  -0.397404  -0.668605  0  2.310586  0
O  O296  1  0.65841406  0.87740275  0.09176163  1  -1.194636  0  -0.403752  -0.663061  0  2.310019  0
O  O297  1  0.84159329  0.12259757  0.59176261  1  -1.194924  0  -0.403649  -0.662932  0  2.310033  0
O  O298  1  0.34159338  0.37740210  0.40823864  1  -1.194889  0  -0.403646  -0.662938  0  2.310054  0
O  O299  1  0.15841571  0.62259636  0.90823866  1  -1.194652  0  -0.403792  -0.663098  0  2.30993  0
O  O300  1  0.66887523  0.90000437  0.97364167  1  -1.209456  0  -0.41916  -0.689943  0  2.327404  0
O  O301  1  0.83112663  0.09999415  0.47364155  1  -1.209422  0  -0.419134  -0.689911  0  2.327299  0
O  O302  1  0.33112461  0.40000481  0.52635915  1  -1.209467  0  -0.419188  -0.689937  0  2.327302  0
O  O303  1  0.16887135  0.59999475  0.02635862  1  -1.209456  0  -0.419124  -0.689939  0  2.327368  0
O  O304  1  0.35137311  0.47554156  0.03449919  1  -1.210084  0  -0.425176  -0.706624  0  2.298796  0
O  O305  1  0.14862674  0.52446082  0.53449776  1  -1.210019  0  -0.42515  -0.706627  0  2.298707  0
O  O306  1  0.64862507  0.97554042  0.46550252  1  -1.210464  0  -0.425127  -0.706606  0  2.298715  0
O  O307  1  0.85137367  0.02446096  0.96550260  1  -1.210055  0  -0.425154  -0.706552  0  2.29882  0
O  O308  1  0.34187857  0.51129784  0.91851152  1  -1.201151  0  -0.406218  -0.676359  0  2.380992  0
O  O309  1  0.15813131  0.48870060  0.41851063  1  -1.201266  0  -0.406212  -0.676316  0  2.381123  0
O  O310  1  0.65813425  0.01130183  0.58148939  1  -1.20127  0  -0.406244  -0.676326  0  2.381204  0
O  O311  1  0.84187930  0.98869994  0.08148999  1  -1.201179  0  -0.406213  -0.676276  0  2.381092  0
O  O312  1  0.77221260  0.85241989  0.84830250  1  -1.279751  0  -0.625357  -0.850588  0  2.065815  0
O  O313  1  0.72778670  0.14758040  0.34830168  1  -1.279751  0  -0.625357  -0.850579  0  2.065814  0
O  O314  1  0.22778567  0.35241922  0.65169840  1  -1.279756  0  -0.625363  -0.850561  0  2.065816  0
O  O315  1  0.27221363  0.64758211  0.15169629  1  -1.279656  0  -0.625394  -0.850586  0  2.065795  0
O  O316  1  0.61474417  0.09732696  0.96493138  1  -1.276368  0  -0.649725  -0.862795  0  2.056098  0
O  O317  1  0.88525457  0.90267300  0.46493215  1  -1.27635  0  -0.6497  -0.86277  0  2.056168  0
O  O318  1  0.38525473  0.59732693  0.53506834  1  -1.276364  0  -0.649714  -0.862794  0  2.056173  0
O  O319  1  0.11474357  0.40267331  0.03506861  1  -1.276382  0  -0.649728  -0.862799  0  2.056114  0
