# generated using pymatgen
data_AlH10C17(SO6)2
_symmetry_space_group_name_H-M   'P 1'
_cell_length_a   6.75390078
_cell_length_b   22.17359680
_cell_length_c   26.97829800
_cell_angle_alpha   102.18606000
_cell_angle_beta   92.63337949
_cell_angle_gamma   92.37763171
_symmetry_Int_Tables_number   1
_chemical_formula_structural   AlH10C17(SO6)2
_chemical_formula_sum   'Al4 H40 C68 S8 O48'
_cell_volume   3939.59190398
_cell_formula_units_Z   4
loop_
 _symmetry_equiv_pos_site_id
 _symmetry_equiv_pos_as_xyz
  1  'x, y, z'
loop_
 _atom_site_type_symbol
 _atom_site_label
 _atom_site_symmetry_multiplicity
 _atom_site_fract_x
 _atom_site_fract_y
 _atom_site_fract_z
 _atom_site_occupancy
 _atom_site_pbe_bader_charge
 _atom_site_pbe_bader_spin_density
 _atom_site_pbe_cm5_charge
 _atom_site_pbe_ddec_charge
 _atom_site_pbe_ddec_spin_density
 _atom_site_pbe_ddec_sum_bond_order
 _atom_site_pbe_magmom
Al  Al0  1  0.18914290  0.24618717  0.74655614  1  2.504711  0  0.40397  1.64246  0  2.579869  0
Al  Al1  1  0.81142884  0.75201501  0.25202481  1  2.504153  0  0.404375  1.643491  0  2.579631  0
Al  Al2  1  0.68888018  0.24525749  0.74487282  1  2.501727  0  0.403351  1.640419  0  2.573876  0
Al  Al3  1  0.31161606  0.75306147  0.25361998  1  2.501207  0  0.403864  1.640889  0  2.571306  0
H  H4  1  0.75613984  0.67105711  0.37007644  1  0.081835  0  0.108161  0.115922  0  0.999376  0
H  H5  1  0.24486423  0.32874553  0.62938970  1  0.079111  0  0.108071  0.115929  0  0.999805  0
H  H6  1  0.23820969  0.83198617  0.12977102  1  0.087578  0  0.103998  0.109588  0  1.008832  0
H  H7  1  0.76244253  0.16755380  0.86932772  1  0.080379  0  0.103599  0.109332  0  1.00963  0
H  H8  1  0.75028918  0.60887101  0.43737142  1  0.0691  0  0.104181  0.101613  0  1.019779  0
H  H9  1  0.25046163  0.39125904  0.56231509  1  0.065389  0  0.104082  0.101695  0  1.01849  0
H  H10  1  0.23443921  0.89333462  0.06222054  1  0.063181  0  0.102466  0.098802  0  1.028688  0
H  H11  1  0.76673690  0.10686297  0.93728200  1  0.0693  0  0.102719  0.099638  0  1.027367  0
H  H12  1  0.36446781  0.62818495  0.34708410  1  0.081211  0  0.109348  0.123303  0  1.007473  0
H  H13  1  0.63633178  0.37130220  0.65244159  1  0.080503  0  0.109106  0.122787  0  1.008687  0
H  H14  1  0.86330561  0.87724722  0.15927089  1  0.075758  0  0.106062  0.116757  0  1.016266  0
H  H15  1  0.13774483  0.12158921  0.83979323  1  0.075091  0  0.106165  0.117522  0  1.015708  0
H  H16  1  0.31437124  0.56374109  0.50379703  1  0.118185  0  0.106309  0.113916  0  0.993053  0
H  H17  1  0.68614764  0.43641797  0.49609114  1  0.123196  0  0.106533  0.114552  0  0.992643  0
H  H18  1  0.73493772  0.03475135  0.07505479  1  0.079861  0  0.104674  0.111493  0  1.002746  0
H  H19  1  0.26725685  0.96502631  0.92440336  1  0.075463  0  0.104832  0.110673  0  1.003945  0
H  H20  1  0.26741566  0.49848993  0.56562140  1  0.052748  0  0.09843  0.097421  0  1.020969  0
H  H21  1  0.73315344  0.50165468  0.43427809  1  0.055032  0  0.098689  0.097998  0  1.02097  0
H  H22  1  0.68684765  0.10136869  0.01411654  1  0.053866  0  0.103839  0.104049  0  0.998963  0
H  H23  1  0.31559110  0.89836366  0.98530925  1  0.059176  0  0.103808  0.10397  0  0.998487  0
H  H24  1  0.65747931  0.48647036  0.96389780  1  0.119774  0  0.118039  0.130626  0  0.988581  0
H  H25  1  0.34808506  0.51466911  0.03305680  1  0.173752  0  0.120174  0.142134  0  0.99383  0
H  H26  1  0.28132188  0.95722997  0.55364645  1  0.183495  0  0.132144  0.160574  0  0.943805  0
H  H27  1  0.72045691  0.04329195  0.44385324  1  0.183907  0  0.13241  0.162183  0  0.941902  0
H  H28  1  0.48974108  0.56298280  0.39141627  1  0.596041  0  0.328143  0.352397  0  0.903533  0
H  H29  1  0.51075194  0.43663822  0.60829197  1  0.599914  0  0.328008  0.35191  0  0.904576  0
H  H30  1  0.00270819  0.93695750  0.11166979  1  0.588002  0  0.329857  0.356267  0  0.896422  0
H  H31  1  0.99853665  0.06262519  0.88801311  1  0.595005  0  0.329431  0.355417  0  0.897924  0
H  H32  1  0.61683184  0.59699211  0.92925560  1  0.674965  0  0.314926  0.386344  0  0.953053  0
H  H33  1  0.07517848  0.41842966  0.10277288  1  0.681003  0  0.323813  0.397038  0  0.915365  0
H  H34  1  0.76243595  0.98019040  0.62098759  1  0.641182  0  0.327025  0.388562  0  0.894275  0
H  H35  1  0.23913714  0.02062653  0.37634394  1  0.648943  0  0.32798  0.388913  0  0.893419  0
H  H36  1  0.12952593  0.60440287  0.90229112  1  0.675064  0  0.32962  0.394899  0  0.899684  0
H  H37  1  0.53848555  0.39135814  0.03877299  1  0.678756  0  0.31686  0.396235  0  0.936612  0
H  H38  1  0.74652980  0.10678293  0.63617993  1  0.658993  0  0.335424  0.401542  0  0.878748  0
H  H39  1  0.25506821  0.89306145  0.36141499  1  0.655547  0  0.334759  0.400137  0  0.879029  0
H  H40  1  0.45805478  0.32572036  0.76946187  1  0.62385  0  0.357294  0.438893  0  0.840517  0
H  H41  1  0.54221573  0.67276471  0.22891307  1  0.637411  0  0.35754  0.438961  0  0.841386  0
H  H42  1  0.93154627  0.17257176  0.75931253  1  0.61641  0  0.347898  0.422807  0  0.863446  0
H  H43  1  0.06870094  0.82543698  0.23873472  1  0.62298  0  0.347693  0.423227  0  0.866054  0
C  C44  1  0.40709400  0.17067028  0.66724808  1  1.698072  0  0.281584  0.720064  0  4.159093  0
C  C45  1  0.59354773  0.82847192  0.33089202  1  1.651305  0  0.280709  0.716902  0  4.162899  0
C  C46  1  0.96425934  0.32444161  0.82322243  1  1.696507  0  0.280357  0.708333  0  4.16799  0
C  C47  1  0.03615245  0.67349520  0.17550727  1  1.712547  0  0.281254  0.710524  0  4.164044  0
C  C48  1  0.44610099  0.18070154  0.80731172  1  1.547067  0  0.269719  0.655497  0  4.069472  0
C  C49  1  0.55494708  0.81761657  0.19122554  1  1.559124  0  0.269322  0.653915  0  4.07201  0
C  C50  1  0.93461907  0.31050147  0.68539972  1  1.562157  0  0.273437  0.656586  0  4.070742  0
C  C51  1  0.06604581  0.68867967  0.31378642  1  1.55203  0  0.274318  0.65657  0  4.070742  0
C  C52  1  0.88493477  0.64639206  0.37885185  1  -0.041014  0  -0.093132  -0.115838  0  4.014467  0
C  C53  1  0.11601849  0.35343609  0.62071918  1  0.017552  0  -0.093644  -0.117247  0  4.014224  0
C  C54  1  0.37294359  0.85613358  0.12181432  1  -0.016251  0  -0.100472  -0.127083  0  4.028406  0
C  C55  1  0.62799725  0.14332775  0.87732241  1  -0.029687  0  -0.099603  -0.124337  0  4.028317  0
C  C56  1  0.88166780  0.61094153  0.41558042  1  -0.076461  0  -0.091297  -0.12994  0  4.024258  0
C  C57  1  0.11914483  0.38907383  0.58411285  1  -0.076938  0  -0.091985  -0.130552  0  4.021335  0
C  C58  1  0.37210263  0.89027540  0.08415966  1  -0.041093  0  -0.092316  -0.129632  0  4.021185  0
C  C59  1  0.62908690  0.10952794  0.91520263  1  -0.089528  0  -0.093877  -0.131929  0  4.021158  0
C  C60  1  0.04609728  0.57859123  0.42759527  1  0.020269  0  -0.004967  -0.014671  0  3.940617  0
C  C61  1  0.95466438  0.42147110  0.57221147  1  0.039578  0  -0.003655  -0.011014  0  3.938444  0
C  C62  1  0.54298058  0.92269740  0.07336463  1  -0.022745  0  -0.005092  -0.010368  0  3.936543  0
C  C63  1  0.45857038  0.07699808  0.92607122  1  0.042554  0  -0.00489  -0.011664  0  3.938835  0
C  C64  1  0.22182414  0.58587391  0.40236616  1  0.463792  0  0.085662  0.272185  0  4.04741  0
C  C65  1  0.77890312  0.41401726  0.59740513  1  0.425985  0  0.085337  0.270939  0  4.047751  0
C  C66  1  0.72193317  0.91678441  0.10103881  1  0.452366  0  0.083991  0.266891  0  4.048258  0
C  C67  1  0.27944112  0.08270946  0.89839596  1  0.481282  0  0.083759  0.266971  0  4.05138  0
C  C68  1  0.22836524  0.62283404  0.36647378  1  -0.008037  0  -0.099728  -0.23641  0  3.981991  0
C  C69  1  0.77248893  0.37683419  0.63313383  1  0.019226  0  -0.099557  -0.236218  0  3.985079  0
C  C70  1  0.72450794  0.88166802  0.13827273  1  -0.016012  0  -0.101995  -0.237427  0  3.989805  0
C  C71  1  0.27657102  0.11744656  0.86088977  1  -0.044801  0  -0.10206  -0.237653  0  3.991122  0
C  C72  1  0.05985684  0.65213986  0.35379199  1  0.021851  0  -0.019098  -0.02396  0  4.022009  0
C  C73  1  0.94106608  0.34747898  0.64570458  1  -0.060115  0  -0.018368  -0.023317  0  4.021769  0
C  C74  1  0.55065556  0.85225925  0.14970625  1  -0.015181  0  -0.019985  -0.020258  0  4.013446  0
C  C75  1  0.45029383  0.14672695  0.84922563  1  0.016164  0  -0.021529  -0.025522  0  4.016929  0
C  C76  1  0.17700657  0.53561726  0.50157140  1  0.00777  0  -0.087871  -0.115092  0  3.971255  0
C  C77  1  0.82348363  0.46459145  0.49835756  1  -0.064646  0  -0.086841  -0.113948  0  3.971497  0
C  C78  1  0.63306030  0.01898066  0.04197773  1  0.010457  0  -0.08882  -0.117458  0  3.978866  0
C  C79  1  0.36918509  0.98075494  0.95746493  1  -0.052898  0  -0.090994  -0.119441  0  3.977756  0
C  C80  1  0.14995768  0.49841374  0.53648390  1  -0.085661  0  -0.089688  -0.127462  0  3.988137  0
C  C81  1  0.85054261  0.50179227  0.46344096  1  -0.016544  0  -0.090134  -0.12832  0  3.98915  0
C  C82  1  0.60611760  0.05650246  0.00723343  1  -0.015761  0  -0.088476  -0.126755  0  3.990888  0
C  C83  1  0.39632664  0.94323003  0.99218146  1  -0.017102  0  -0.088669  -0.126803  0  3.991159  0
C  C84  1  0.97347884  0.46200407  0.53560522  1  -0.009373  0  -0.009873  0.076399  0  4.000074  0
C  C85  1  0.02701525  0.53817210  0.46431013  1  -0.029762  0  -0.008595  0.079108  0  3.999289  0
C  C86  1  0.47434199  0.03828871  0.96419160  1  -0.01562  0  -0.009473  0.078995  0  3.996765  0
C  C87  1  0.52784101  0.96146267  0.03526648  1  -0.038804  0  -0.00936  0.076316  0  3.999521  0
C  C88  1  0.81027652  0.49320868  0.97971933  1  0.010935  0  -0.050257  -0.062669  0  3.544869  0
C  C89  1  0.19499359  0.50820106  0.01735202  1  -0.010641  0  -0.055595  -0.076122  0  3.577853  0
C  C90  1  0.38033679  0.97630311  0.52938193  1  0.030513  0  -0.043956  -0.054174  0  3.546313  0
C  C91  1  0.62152116  0.02417338  0.46810970  1  0.025978  0  -0.043689  -0.056358  0  3.546037  0
C  C92  1  0.94574251  0.55414780  0.98644023  1  -0.097319  0  0.009531  -0.108889  0  3.573349  0
C  C93  1  0.06248831  0.44760253  0.01047854  1  -0.11537  0  0.004865  -0.127287  0  3.655529  0
C  C94  1  0.60132281  0.95992283  0.52123403  1  -0.095681  0  0.01023  -0.1074  0  3.598308  0
C  C95  1  0.40044908  0.04056201  0.47628250  1  -0.09745  0  0.010493  -0.10699  0  3.600197  0
C  C96  1  0.03067574  0.62997591  0.12722187  1  -0.005127  0  -0.004344  -0.112196  0  3.88395  0
C  C97  1  0.96985574  0.36855609  0.87120977  1  0.208515  0  -0.003938  -0.11084  0  3.888599  0
C  C98  1  0.60719888  0.86900168  0.38002465  1  0.25189  0  -0.031838  -0.195043  0  3.941493  0
C  C99  1  0.39401583  0.13092504  0.61778157  1  0.200967  0  -0.032091  -0.195855  0  3.938146  0
C  C100  1  0.88435855  0.48532943  0.03355036  1  -0.113719  0  0.005372  -0.122608  0  3.645426  0
C  C101  1  0.12117005  0.51506242  0.96331980  1  -0.110364  0  0.004763  -0.119604  0  3.650477  0
C  C102  1  0.34102250  0.97007352  0.47113631  1  -0.116052  0  0.005358  -0.117957  0  3.649582  0
C  C103  1  0.66067761  0.03040200  0.52634002  1  -0.10597  0  0.005524  -0.118341  0  3.650017  0
C  C104  1  0.02079604  0.54726430  0.04168884  1  0.127201  0  0.032489  0.14983  0  3.755195  0
C  C105  1  0.98461167  0.45367977  0.95534664  1  0.097226  0  0.032583  0.152597  0  3.762681  0
C  C106  1  0.56259323  0.95314917  0.46174318  1  0.118168  0  0.027209  0.132464  0  3.769911  0
C  C107  1  0.43921053  0.04733539  0.53575592  1  0.12187  0  0.02761  0.131656  0  3.771636  0
C  C108  1  0.03124655  0.59328895  0.08687081  1  -0.182011  0  -0.031623  -0.055557  0  4.052595  0
C  C109  1  0.97119789  0.40672848  0.91078341  1  -0.359102  0  -0.034691  -0.061308  0  4.057438  0
C  C110  1  0.60461514  0.90619476  0.42001437  1  -0.413821  0  -0.011953  0.00745  0  4.061823  0
C  C111  1  0.39705579  0.09417484  0.57755215  1  -0.420891  0  -0.010791  0.009366  0  4.058794  0
S  S112  1  0.88825361  0.62706744  0.97211336  1  3.161957  0  0.545355  1.148962  0  6.041848  0
S  S113  1  0.15427846  0.37980840  0.02565755  1  3.140285  0  0.557654  1.167792  0  6.009687  0
S  S114  1  0.71529058  0.90730206  0.55384553  1  3.089592  0  0.540066  1.147848  0  6.027182  0
S  S115  1  0.28701209  0.09326204  0.44365691  1  3.122437  0  0.540445  1.14595  0  6.028075  0
S  S116  1  0.28968180  0.53184088  0.91936760  1  3.141977  0  0.555356  1.158025  0  6.009834  0
S  S117  1  0.74516278  0.46583501  0.08251315  1  3.170575  0  0.5506  1.156746  0  6.074958  0
S  S118  1  0.86338594  0.07474711  0.56179989  1  3.095435  0  0.553201  1.160237  0  5.966618  0
S  S119  1  0.13825924  0.92579602  0.43567255  1  3.094681  0  0.552454  1.155905  0  5.973197  0
O  O120  1  0.61400370  0.19669060  0.79272476  1  -1.258653  0  -0.241363  -0.612042  0  2.354814  0
O  O121  1  0.38701574  0.80161162  0.20578289  1  -1.266127  0  -0.241226  -0.611959  0  2.355909  0
O  O122  1  0.10074599  0.29977619  0.70543827  1  -1.266143  0  -0.237237  -0.604883  0  2.359318  0
O  O123  1  0.89963875  0.69928400  0.29384464  1  -1.265516  0  -0.23636  -0.603109  0  2.360564  0
O  O124  1  0.24714514  0.19012307  0.68568387  1  -1.234763  0  -0.214468  -0.554015  0  2.303923  0
O  O125  1  0.75331236  0.80877229  0.31253616  1  -1.229592  0  -0.213843  -0.551906  0  2.30527  0
O  O126  1  0.79251995  0.31041019  0.80153835  1  -1.226503  0  -0.223861  -0.580752  0  2.294305  0
O  O127  1  0.20805648  0.68781177  0.19702704  1  -1.228713  0  -0.224097  -0.581571  0  2.291576  0
O  O128  1  0.27637944  0.19067657  0.78841309  1  -1.267353  0  -0.242627  -0.611616  0  2.328964  0
O  O129  1  0.72467499  0.80716329  0.20979867  1  -1.266241  0  -0.241709  -0.610536  0  2.331267  0
O  O130  1  0.76472447  0.29277709  0.69768507  1  -1.265786  0  -0.23785  -0.59665  0  2.331602  0
O  O131  1  0.23570195  0.70608529  0.30117612  1  -1.259632  0  -0.237493  -0.596089  0  2.330877  0
O  O132  1  0.13025565  0.30521234  0.80802964  1  -1.224262  0  -0.22233  -0.573058  0  2.271527  0
O  O133  1  0.87007182  0.69226969  0.19108990  1  -1.229732  0  -0.222025  -0.574497  0  2.270759  0
O  O134  1  0.58307763  0.18106967  0.68830652  1  -1.237168  0  -0.228478  -0.592137  0  2.266107  0
O  O135  1  0.41736283  0.81767068  0.31002815  1  -1.237882  0  -0.227795  -0.589784  0  2.266815  0
O  O136  1  0.44556248  0.28306659  0.75101339  1  -1.424551  0  -0.447241  -0.99006  0  2.164738  0
O  O137  1  0.55483113  0.71524784  0.24776065  1  -1.438701  0  -0.447334  -0.990086  0  2.162485  0
O  O138  1  0.93363743  0.20772871  0.74315658  1  -1.42254  0  -0.448787  -0.983409  0  2.159406  0
O  O139  1  0.06689671  0.79054060  0.25519687  1  -1.42894  0  -0.449112  -0.985553  0  2.161424  0
O  O140  1  0.38420584  0.55457491  0.41291766  1  -1.123196  0  -0.349043  -0.449192  0  2.311855  0
O  O141  1  0.61648626  0.44535390  0.58696526  1  -1.124286  0  -0.34941  -0.449038  0  2.312618  0
O  O142  1  0.89268396  0.94565723  0.08996859  1  -1.105239  0  -0.345059  -0.440039  0  2.302845  0
O  O143  1  0.10878575  0.05400681  0.90968600  1  -1.111969  0  -0.344655  -0.439052  0  2.304545  0
O  O144  1  0.78097735  0.66015122  0.01278754  1  -1.263827  0  -0.28373  -0.47628  0  2.113791  0
O  O145  1  0.07205944  0.65359807  0.95791929  1  -1.294598  0  -0.304232  -0.52816  0  2.156978  0
O  O146  1  0.75941529  0.60781757  0.92105718  1  -1.26814  0  -0.352922  -0.523735  0  2.207792  0
O  O147  1  0.01202577  0.32913641  0.00986323  1  -1.24941  0  -0.283298  -0.480497  0  2.120445  0
O  O148  1  0.35130532  0.37453133  0.00546219  1  -1.299191  0  -0.301714  -0.526406  0  2.19222  0
O  O149  1  0.19473167  0.39960687  0.08476410  1  -1.263628  0  -0.337652  -0.505788  0  2.197765  0
O  O150  1  0.59110652  0.85178228  0.54396050  1  -1.262131  0  -0.294484  -0.47974  0  2.078998  0
O  O151  1  0.92446570  0.90703659  0.54675613  1  -1.258939  0  -0.298134  -0.515758  0  2.19085  0
O  O152  1  0.67698383  0.94181154  0.61116869  1  -1.201482  0  -0.362027  -0.523219  0  2.136723  0
O  O153  1  0.07773555  0.09371575  0.45059944  1  -1.283575  0  -0.298372  -0.51494  0  2.189  0
O  O154  1  0.41167863  0.14868565  0.45366193  1  -1.274033  0  -0.294431  -0.47906  0  2.080638  0
O  O155  1  0.32557437  0.05875970  0.38633922  1  -1.201922  0  -0.361481  -0.521788  0  2.13724  0
O  O156  1  0.42885557  0.57816341  0.95067920  1  -1.307666  0  -0.300685  -0.545214  0  2.286032  0
O  O157  1  0.36350635  0.47609027  0.89119289  1  -1.275895  0  -0.28182  -0.482681  0  2.117465  0
O  O158  1  0.16648688  0.56292799  0.88186937  1  -1.251999  0  -0.33144  -0.484872  0  2.173444  0
O  O159  1  0.89225802  0.46279780  0.12290977  1  -1.289071  0  -0.296789  -0.519184  0  2.150601  0
O  O160  1  0.58660078  0.50711601  0.09245672  1  -1.288371  0  -0.289947  -0.501371  0  2.146805  0
O  O161  1  0.67169691  0.39790635  0.06019861  1  -1.265546  0  -0.337048  -0.513662  0  2.270508  0
O  O162  1  0.03539359  0.03988535  0.55121324  1  -1.29287  0  -0.275787  -0.49823  0  2.326888  0
O  O163  1  0.85090683  0.13761118  0.55718327  1  -1.257338  0  -0.28201  -0.478382  0  2.104293  0
O  O164  1  0.81690096  0.07017369  0.61952048  1  -1.216407  0  -0.355418  -0.556488  0  2.185439  0
O  O165  1  0.14988986  0.86302347  0.44060487  1  -1.251776  0  -0.280832  -0.475423  0  2.106256  0
O  O166  1  0.96659853  0.96091076  0.44602157  1  -1.296977  0  -0.276889  -0.498121  0  2.32814  0
O  O167  1  0.18527602  0.92991688  0.37789817  1  -1.214778  0  -0.354921  -0.554759  0  2.183646  0
