# generated using pymatgen
data_CdH30C26N6O5
_symmetry_space_group_name_H-M   'P 1'
_cell_length_a   5.20212247
_cell_length_b   18.34533034
_cell_length_c   28.03668526
_cell_angle_alpha   89.99967384
_cell_angle_beta   89.99956479
_cell_angle_gamma   90.00071589
_symmetry_Int_Tables_number   1
_chemical_formula_structural   CdH30C26N6O5
_chemical_formula_sum   'Cd4 H120 C104 N24 O20'
_cell_volume   2675.67139259
_cell_formula_units_Z   4
loop_
 _symmetry_equiv_pos_site_id
 _symmetry_equiv_pos_as_xyz
  1  'x, y, z'
loop_
 _atom_site_type_symbol
 _atom_site_label
 _atom_site_symmetry_multiplicity
 _atom_site_fract_x
 _atom_site_fract_y
 _atom_site_fract_z
 _atom_site_occupancy
 _atom_site_pbe_bader_charge
 _atom_site_pbe_bader_spin_density
 _atom_site_pbe_cm5_charge
 _atom_site_pbe_ddec_charge
 _atom_site_pbe_ddec_spin_density
 _atom_site_pbe_ddec_sum_bond_order
 _atom_site_pbe_magmom
Cd  Cd0  1  0.88088329  0.34382436  0.34030467  1  1.300796  0  0.774529  0.936711  0  2.171207  0
Cd  Cd1  1  0.38091648  0.65618220  0.65969491  1  1.300841  0  0.77459  0.936811  0  2.171045  0
Cd  Cd2  1  0.88088630  0.84382706  0.15968967  1  1.300741  0  0.774579  0.936745  0  2.171191  0
Cd  Cd3  1  0.38092500  0.15617460  0.84030991  1  1.300823  0  0.77463  0.936861  0  2.170943  0
H  H4  1  0.07332315  0.43462720  0.40653366  1  0.638133  0  0.273946  0.366435  0  0.989241  0
H  H5  1  0.57332001  0.56537335  0.59346743  1  0.637588  0  0.273948  0.366453  0  0.989236  0
H  H6  1  0.07333462  0.93463484  0.09346292  1  0.638419  0  0.273929  0.366434  0  0.989205  0
H  H7  1  0.57334506  0.06536898  0.90653888  1  0.638321  0  0.273969  0.366425  0  0.989232  0
H  H8  1  0.33386874  0.41108119  0.38042629  1  0.652058  0  0.28067  0.375108  0  0.973632  0
H  H9  1  0.83387134  0.58892193  0.61957264  1  0.652078  0  0.280692  0.375071  0  0.973661  0
H  H10  1  0.33387339  0.91108315  0.11956786  1  0.652045  0  0.280703  0.375062  0  0.973675  0
H  H11  1  0.83389552  0.08891670  0.88043321  1  0.652569  0  0.280686  0.375045  0  0.9737  0
H  H12  1  0.71899076  0.68997605  0.18827333  1  0.111461  0  0.097081  0.1241  0  1.033344  0
H  H13  1  0.21905653  0.31002176  0.81171720  1  0.113003  0  0.097063  0.123979  0  1.033327  0
H  H14  1  0.71897930  0.18997578  0.31172073  1  0.11309  0  0.097049  0.123928  0  1.033547  0
H  H15  1  0.21905838  0.81002529  0.68828693  1  0.113082  0  0.097094  0.124  0  1.033355  0
H  H16  1  0.43712802  0.63813788  0.17514511  1  0.017704  0  0.092012  0.110809  0  1.000576  0
H  H17  1  0.93720657  0.36186125  0.82484868  1  0.018181  0  0.092042  0.110845  0  1.000528  0
H  H18  1  0.43711988  0.13814132  0.32485203  1  0.017776  0  0.092027  0.110733  0  1.000761  0
H  H19  1  0.93721088  0.86186327  0.67515817  1  0.018357  0  0.092065  0.110887  0  1.000671  0
H  H20  1  0.86090082  0.70878999  0.26958987  1  0.076255  0  0.099659  0.108084  0  1.005579  0
H  H21  1  0.36093449  0.29121268  0.73039689  1  0.076335  0  0.099666  0.108043  0  1.00544  0
H  H22  1  0.86088691  0.20878772  0.23040677  1  0.076417  0  0.099704  0.108162  0  1.00553  0
H  H23  1  0.36095608  0.79121550  0.76960460  1  0.076276  0  0.099662  0.108055  0  1.005401  0
H  H24  1  0.85837030  0.66217885  0.35260619  1  0.045055  0  0.096911  0.099328  0  1.009821  0
H  H25  1  0.35836517  0.33782545  0.64737986  1  0.044829  0  0.096966  0.099448  0  1.009717  0
H  H26  1  0.85835786  0.16218167  0.14738920  1  0.044824  0  0.096901  0.099393  0  1.009779  0
H  H27  1  0.35839299  0.83782099  0.85262254  1  0.044632  0  0.097086  0.099594  0  1.009838  0
H  H28  1  0.15096483  0.54876846  0.32471630  1  0.073861  0  0.097892  0.103882  0  1.022789  0
H  H29  1  0.65097263  0.45123073  0.67528539  1  0.07397  0  0.097851  0.103827  0  1.022752  0
H  H30  1  0.15096279  0.04876722  0.17527873  1  0.073773  0  0.097898  0.103899  0  1.02276  0
H  H31  1  0.65100159  0.95122925  0.82472617  1  0.073845  0  0.097887  0.103868  0  1.022728  0
H  H32  1  0.14885113  0.59756544  0.24232844  1  0.071925  0  0.095798  0.096395  0  1.043145  0
H  H33  1  0.64889958  0.40243375  0.75767432  1  0.071849  0  0.095841  0.096411  0  1.043245  0
H  H34  1  0.14884572  0.09755747  0.25766855  1  0.072065  0  0.095822  0.096413  0  1.043104  0
H  H35  1  0.64891652  0.90243953  0.74233421  1  0.071867  0  0.095885  0.096443  0  1.042887  0
H  H36  1  0.32562847  0.54980520  0.40474810  1  0.106954  0  0.103893  0.139907  0  1.003302  0
H  H37  1  0.82558951  0.45020171  0.59525262  1  0.107019  0  0.103899  0.139906  0  1.00315  0
H  H38  1  0.32562584  0.04980357  0.09524846  1  0.106956  0  0.103893  0.139892  0  1.003252  0
H  H39  1  0.82564019  0.95019679  0.90475512  1  0.106903  0  0.103901  0.139935  0  1.003207  0
H  H40  1  0.59491754  0.60576482  0.41969359  1  0.050449  0  0.095813  0.116721  0  0.995292  0
H  H41  1  0.09487339  0.39424453  0.58029926  1  0.050318  0  0.095847  0.116769  0  0.995311  0
H  H42  1  0.59489630  0.10577205  0.08030132  1  0.050571  0  0.095827  0.116687  0  0.995481  0
H  H43  1  0.09490424  0.89423349  0.91970687  1  0.050314  0  0.095828  0.116638  0  0.995569  0
H  H44  1  0.59244379  0.48338171  0.27788318  1  0.14044  0  0.132212  0.098779  0  1.033012  0
H  H45  1  0.09247606  0.51662546  0.72211680  1  0.140782  0  0.132235  0.098827  0  1.033024  0
H  H46  1  0.59246732  0.98337567  0.22211462  1  0.14067  0  0.132214  0.09883  0  1.033078  0
H  H47  1  0.09244291  0.01662767  0.77789429  1  0.140261  0  0.132225  0.099001  0  1.032887  0
H  H48  1  0.28813762  0.38042051  0.24320081  1  0.207302  0  0.142709  0.123889  0  1.021793  0
H  H49  1  0.78817439  0.61958954  0.75679997  1  0.211439  0  0.142737  0.123844  0  1.021683  0
H  H50  1  0.28814243  0.88040381  0.25679886  1  0.208268  0  0.14269  0.123881  0  1.02166  0
H  H51  1  0.78815035  0.11957735  0.74319585  1  0.207527  0  0.142707  0.123828  0  1.021789  0
H  H52  1  0.40727915  0.48108915  0.17276283  1  0.123778  0  0.114666  0.096563  0  1.039507  0
H  H53  1  0.90730868  0.51891750  0.82723707  1  0.12396  0  0.114621  0.096471  0  1.039483  0
H  H54  1  0.40729647  0.98107565  0.32723524  1  0.123895  0  0.114656  0.096525  0  1.039388  0
H  H55  1  0.90721639  0.01890429  0.67276074  1  0.123932  0  0.114605  0.096421  0  1.0394  0
H  H56  1  0.15131214  0.53777568  0.15537391  1  0.069241  0  0.122856  0.112493  0  0.98394  0
H  H57  1  0.65133273  0.46223061  0.84462493  1  0.069428  0  0.12277  0.112274  0  0.984129  0
H  H58  1  0.15133202  0.03776259  0.34462330  1  0.068609  0  0.122791  0.112337  0  0.9841  0
H  H59  1  0.65122442  0.96222625  0.65537339  1  0.068897  0  0.12292  0.112637  0  0.983925  0
H  H60  1  0.66205916  0.32672299  0.13252565  1  0.052628  0  0.089993  0.123853  0  1.032409  0
H  H61  1  0.16207693  0.67328770  0.86747923  1  0.052592  0  0.089964  0.123854  0  1.032311  0
H  H62  1  0.66206523  0.82670968  0.36748083  1  0.052806  0  0.089937  0.123859  0  1.032296  0
H  H63  1  0.16201512  0.17327702  0.63252263  1  0.052878  0  0.090006  0.123857  0  1.03242  0
H  H64  1  0.43220143  0.29331117  0.17302460  1  0.060088  0  0.093803  0.137761  0  0.998886  0
H  H65  1  0.93224297  0.70669994  0.82697811  1  0.059946  0  0.093878  0.137742  0  0.998943  0
H  H66  1  0.43223030  0.79329276  0.32697912  1  0.065132  0  0.093849  0.137678  0  0.998916  0
H  H67  1  0.93218527  0.20668564  0.67302503  1  0.059786  0  0.093811  0.137747  0  0.998874  0
H  H68  1  0.54214691  0.38448550  0.17724098  1  0.014941  0  0.0856  0.113705  0  1.054704  0
H  H69  1  0.04218514  0.61552693  0.82276122  1  0.015141  0  0.085624  0.113615  0  1.05488  0
H  H70  1  0.54217403  0.88446714  0.32276154  1  0.015268  0  0.085612  0.113656  0  1.054915  0
H  H71  1  0.04211766  0.11551096  0.67723709  1  0.015117  0  0.085612  0.113706  0  1.054737  0
H  H72  1  0.27807724  0.20614731  0.10762805  1  0.060447  0  0.095378  0.135864  0  1.013521  0
H  H73  1  0.77809491  0.79386161  0.89237452  1  0.060462  0  0.095344  0.135789  0  1.013604  0
H  H74  1  0.27808037  0.70613323  0.39237371  1  0.060396  0  0.095362  0.135879  0  1.013562  0
H  H75  1  0.77808025  0.29385334  0.60763030  1  0.060702  0  0.095377  0.135871  0  1.013578  0
H  H76  1  0.54928527  0.24914903  0.08389031  1  0.067626  0  0.092779  0.125909  0  1.027253  0
H  H77  1  0.04928712  0.75085797  0.91611366  1  0.067786  0  0.092771  0.125863  0  1.027332  0
H  H78  1  0.54927206  0.74913966  0.41611269  1  0.067727  0  0.092748  0.125832  0  1.027239  0
H  H79  1  0.04926958  0.25084936  0.58388843  1  0.067736  0  0.092787  0.125941  0  1.027239  0
H  H80  1  0.31206291  0.21460702  0.04482958  1  0.055048  0  0.092822  0.123789  0  1.019379  0
H  H81  1  0.81205651  0.78539657  0.95517152  1  0.054932  0  0.092865  0.123854  0  1.019407  0
H  H82  1  0.31204234  0.71459675  0.45517175  1  0.054899  0  0.092879  0.123881  0  1.019305  0
H  H83  1  0.81204248  0.28539757  0.54483150  1  0.055083  0  0.092848  0.123802  0  1.019383  0
H  H84  1  0.84056192  0.55960738  0.06774961  1  0.048341  0  0.089106  0.125634  0  1.050748  0
H  H85  1  0.34056693  0.44039468  0.93225038  1  0.048397  0  0.089073  0.125584  0  1.050632  0
H  H86  1  0.84058207  0.05959679  0.43224619  1  0.048621  0  0.089114  0.125672  0  1.050679  0
H  H87  1  0.34053716  0.94039382  0.56774560  1  0.048262  0  0.08908  0.125583  0  1.050876  0
H  H88  1  0.80050741  0.54285127  0.12983368  1  0.054258  0  0.08784  0.118874  0  1.053779  0
H  H89  1  0.30051567  0.45715064  0.87016565  1  0.054213  0  0.087821  0.118835  0  1.053951  0
H  H90  1  0.80051856  0.04284286  0.37016259  1  0.054175  0  0.087811  0.118874  0  1.053857  0
H  H91  1  0.30047377  0.95714706  0.62982712  1  0.054561  0  0.08783  0.118853  0  1.053778  0
H  H92  1  0.58527606  0.50521206  0.08796091  1  0.051359  0  0.091401  0.134665  0  1.005219  0
H  H93  1  0.08529195  0.49479017  0.91203873  1  0.051445  0  0.091389  0.13463  0  1.005369  0
H  H94  1  0.58528550  0.00520710  0.41203687  1  0.051409  0  0.091355  0.134671  0  1.00542  0
H  H95  1  0.08524214  0.99478532  0.58795456  1  0.051001  0  0.091402  0.134664  0  1.005314  0
H  H96  1  0.50764748  0.41405441  0.02260070  1  0.062884  0  0.09051  0.121424  0  1.048985  0
H  H97  1  0.00766082  0.58594591  0.97740084  1  0.062907  0  0.090517  0.121426  0  1.049017  0
H  H98  1  0.50764715  0.91405376  0.47739855  1  0.063136  0  0.090522  0.12146  0  1.049108  0
H  H99  1  0.00763809  0.08594383  0.52259300  1  0.062757  0  0.09053  0.12144  0  1.049164  0
H  H100  1  0.74713572  0.40140926  0.97869004  1  0.022121  0  0.089526  0.124094  0  1.011463  0
H  H101  1  0.24714823  0.59859137  0.02130938  1  0.022113  0  0.089512  0.124083  0  1.011491  0
H  H102  1  0.74712323  0.90140391  0.52130801  1  0.022085  0  0.089533  0.124103  0  1.011368  0
H  H103  1  0.24712612  0.09859400  0.47868533  1  0.022009  0  0.089504  0.124076  0  1.01131  0
H  H104  1  0.71850560  0.48637298  0.00757046  1  0.061719  0  0.093569  0.13487  0  1.016799  0
H  H105  1  0.21851519  0.51362863  0.99242899  1  0.061718  0  0.093579  0.13488  0  1.016803  0
H  H106  1  0.71852003  0.98636730  0.49242786  1  0.061781  0  0.093549  0.134848  0  1.016923  0
H  H107  1  0.21849691  0.01362887  0.50756446  1  0.061733  0  0.093591  0.134887  0  1.016757  0
H  H108  1  0.90899864  0.22498082  0.03007989  1  0.112183  0  0.120602  0.108565  0  0.965797  0
H  H109  1  0.40900127  0.77502366  0.96992036  1  0.112101  0  0.120589  0.108535  0  0.965777  0
H  H110  1  0.90901014  0.72496770  0.46992341  1  0.111995  0  0.120574  0.108567  0  0.965683  0
H  H111  1  0.40900322  0.27502643  0.53008006  1  0.112002  0  0.120554  0.108535  0  0.965819  0
H  H112  1  0.72474898  0.29286111  0.00130723  1  0.091956  0  0.11336  0.096236  0  1.0315  0
H  H113  1  0.22474749  0.70714162  0.99869078  1  0.091975  0  0.113338  0.096193  0  1.031563  0
H  H114  1  0.72473816  0.79284555  0.49869250  1  0.092131  0  0.113363  0.096237  0  1.031489  0
H  H115  1  0.22473524  0.20715118  0.50130801  1  0.092214  0  0.113393  0.096305  0  1.031428  0
H  H116  1  0.90047310  0.17999426  0.93333048  1  0.211678  0  0.141311  0.134734  0  1.027316  0
H  H117  1  0.40046454  0.82000583  0.06666836  1  0.211631  0  0.141285  0.134678  0  1.027379  0
H  H118  1  0.90046836  0.67999560  0.56667495  1  0.211688  0  0.141328  0.134714  0  1.027361  0
H  H119  1  0.40048273  0.32001540  0.43333067  1  0.21071  0  0.141263  0.134629  0  1.027412  0
H  H120  1  0.54368950  0.31023453  0.90223980  1  0.144006  0  0.13486  0.103195  0  0.989559  0
H  H121  1  0.04364902  0.68976155  0.09776489  1  0.144  0  0.13485  0.103222  0  0.989555  0
H  H122  1  0.54367581  0.81024322  0.59775959  1  0.144338  0  0.134856  0.103173  0  0.98954  0
H  H123  1  0.04362042  0.18975123  0.40223226  1  0.144024  0  0.13481  0.103208  0  0.989484  0
C  C124  1  0.36369089  0.75084865  0.19142898  1  1.562477  0  0.202274  0.641361  0  4.161881  0
C  C125  1  0.86374983  0.24915349  0.80856955  1  1.561376  0  0.202134  0.641265  0  4.161921  0
C  C126  1  0.36368725  0.25084842  0.30856393  1  1.562713  0  0.20236  0.641376  0  4.161774  0
C  C127  1  0.86375154  0.74915645  0.69143924  1  1.5616  0  0.202247  0.641214  0  4.161946  0
C  C128  1  0.51819154  0.68045387  0.19842163  1  -0.036259  0  -0.170463  -0.359822  0  3.943928  0
C  C129  1  0.01825429  0.31954594  0.80156955  1  -0.038367  0  -0.170311  -0.359456  0  3.943667  0
C  C130  1  0.51817857  0.18045152  0.30157383  1  -0.038415  0  -0.170426  -0.359463  0  3.944049  0
C  C131  1  0.01825572  0.81955156  0.69843554  1  -0.038495  0  -0.170392  -0.359578  0  3.94379  0
C  C132  1  0.50868420  0.65495886  0.24964920  1  -0.064112  0  -0.014301  0.135597  0  3.970347  0
C  C133  1  0.00873286  0.34504255  0.75034412  1  -0.063989  0  -0.014206  0.135595  0  3.970205  0
C  C134  1  0.50867717  0.15495314  0.25034671  1  -0.063613  0  -0.014208  0.135717  0  3.970275  0
C  C135  1  0.00874950  0.84504773  0.74966017  1  -0.064138  0  -0.014308  0.135579  0  3.970413  0
C  C136  1  0.70352559  0.67420320  0.28180155  1  -0.008157  0  -0.094931  -0.136967  0  3.98441  0
C  C137  1  0.20355550  0.32580000  0.71818687  1  -0.008249  0  -0.09498  -0.136766  0  3.984087  0
C  C138  1  0.70351410  0.17420158  0.21819366  1  -0.008116  0  -0.094973  -0.137073  0  3.984418  0
C  C139  1  0.20357659  0.82580326  0.78181615  1  -0.008194  0  -0.094927  -0.136703  0  3.984016  0
C  C140  1  0.70197277  0.64767199  0.32842052  1  -0.132163  0  -0.097638  -0.146567  0  4.003308  0
C  C141  1  0.20197498  0.35232957  0.67156968  1  -0.132166  0  -0.097874  -0.147036  0  4.003248  0
C  C142  1  0.70196703  0.14767296  0.17157444  1  -0.132197  0  -0.097746  -0.146831  0  4.003162  0
C  C143  1  0.20201532  0.85232914  0.82843467  1  -0.132288  0  -0.098087  -0.147433  0  4.003687  0
C  C144  1  0.50663578  0.60098230  0.34442049  1  -0.053861  0  -0.016644  0.12023  0  4.00162  0
C  C145  1  0.00662913  0.39901910  0.65557426  1  -0.054241  0  -0.016505  0.120418  0  4.001661  0
C  C146  1  0.50662492  0.10098396  0.15557598  1  -0.054337  0  -0.016542  0.120444  0  4.001353  0
C  C147  1  0.00666497  0.89901690  0.84443233  1  -0.053705  0  -0.016251  0.121008  0  4.001329  0
C  C148  1  0.30707712  0.58394505  0.31272255  1  -0.025377  0  -0.100939  -0.151409  0  4.003139  0
C  C149  1  0.80709059  0.41605471  0.68727535  1  -0.025859  0  -0.100979  -0.15134  0  4.002934  0
C  C150  1  0.30707651  0.08394207  0.18727426  1  -0.025497  0  -0.100982  -0.151453  0  4.003209  0
C  C151  1  0.80712004  0.91605714  0.81273362  1  -0.025835  0  -0.101004  -0.151605  0  4.003338  0
C  C152  1  0.30750349  0.61093087  0.26617635  1  -0.038611  0  -0.10124  -0.147911  0  3.992638  0
C  C153  1  0.80754656  0.38906889  0.73382262  1  -0.037814  0  -0.101319  -0.14807  0  3.992598  0
C  C154  1  0.30750097  0.11092475  0.23381966  1  -0.038669  0  -0.101348  -0.148041  0  3.992631  0
C  C155  1  0.80757406  0.88907337  0.76618644  1  -0.037852  0  -0.101344  -0.147986  0  3.99266  0
C  C156  1  0.51863107  0.56709119  0.39342705  1  -0.066822  0  -0.165612  -0.358382  0  3.928351  0
C  C157  1  0.01859906  0.43291243  0.60656911  1  -0.066718  0  -0.165573  -0.358364  0  3.9282  0
C  C158  1  0.51862798  0.06709547  0.10656596  1  -0.066397  0  -0.165591  -0.358421  0  3.928398  0
C  C159  1  0.01864636  0.93290707  0.89343948  1  -0.066286  0  -0.165712  -0.358696  0  3.928484  0
C  C160  1  0.69770270  0.50070623  0.39287991  1  1.582524  0  0.21286  0.645608  0  4.128072  0
C  C161  1  0.19768508  0.49929804  0.60711921  1  1.582581  0  0.212765  0.645368  0  4.127917  0
C  C162  1  0.69771305  0.00071486  0.10711452  1  1.582436  0  0.212952  0.645925  0  4.127977  0
C  C163  1  0.19773433  0.99928941  0.89289067  1  1.582852  0  0.212925  0.646092  0  4.128095  0
C  C164  1  0.76312032  0.46723685  0.25831230  1  0.976891  0  0.148499  0.143903  0  3.981062  0
C  C165  1  0.26315442  0.53277093  0.74168744  1  0.9776  0  0.148469  0.143793  0  3.980742  0
C  C166  1  0.76314113  0.96723010  0.24168602  1  0.978361  0  0.148398  0.143663  0  3.980856  0
C  C167  1  0.26311439  0.03276950  0.75831978  1  0.978059  0  0.148409  0.143542  0  3.980838  0
C  C168  1  0.11792518  0.41454388  0.24144103  1  0.947158  0  0.166287  0.087036  0  3.879076  0
C  C169  1  0.61796040  0.58546501  0.75855892  1  0.943152  0  0.166402  0.087246  0  3.878745  0
C  C170  1  0.11792992  0.91452935  0.25855662  1  0.946221  0  0.166337  0.087085  0  3.878933  0
C  C171  1  0.61792298  0.08545719  0.74144119  1  0.946749  0  0.166371  0.08721  0  3.87887  0
C  C172  1  0.20266094  0.48132267  0.16353721  1  0.257249  0  -0.046767  -0.138125  0  3.913166  0
C  C173  1  0.70268816  0.51868270  0.83646227  1  0.256843  0  -0.046627  -0.137675  0  3.912877  0
C  C174  1  0.20268365  0.98130909  0.33646151  1  0.257697  0  -0.046677  -0.137871  0  3.912864  0
C  C175  1  0.70260009  0.01867230  0.66353618  1  0.257129  0  -0.046774  -0.138103  0  3.912973  0
C  C176  1  0.14182589  0.43068806  0.12248220  1  -0.049625  0  -0.022057  -0.042624  0  3.951117  0
C  C177  1  0.64184210  0.56931873  0.87751700  1  -0.049341  0  -0.022042  -0.042773  0  3.951162  0
C  C178  1  0.14182963  0.93067412  0.37751393  1  -0.049348  0  -0.022071  -0.042592  0  3.950893  0
C  C179  1  0.64178262  0.06931469  0.62248206  1  -0.049707  0  -0.022096  -0.042845  0  3.950972  0
C  C180  1  0.27619661  0.36414005  0.11822103  1  -0.018223  0  -0.014307  0.063281  0  3.930518  0
C  C181  1  0.77621746  0.63586668  0.88177941  1  -0.018291  0  -0.014332  0.063343  0  3.930825  0
C  C182  1  0.27619633  0.86412553  0.38177980  1  -0.018088  0  -0.014441  0.063065  0  3.931081  0
C  C183  1  0.77616392  0.13586213  0.61822100  1  -0.018067  0  -0.014441  0.063067  0  3.930703  0
C  C184  1  0.48674603  0.34170296  0.15213399  1  -0.048305  0  -0.243999  -0.402648  0  3.950765  0
C  C185  1  0.98677308  0.65830725  0.84786758  1  -0.04845  0  -0.244054  -0.402528  0  3.950927  0
C  C186  1  0.48675482  0.84169092  0.34786733  1  -0.054038  0  -0.243953  -0.402487  0  3.95089  0
C  C187  1  0.98671624  0.15829477  0.65213388  1  -0.048229  0  -0.243935  -0.402501  0  3.950861  0
C  C188  1  0.20753778  0.31522955  0.08157311  1  -0.040282  0  -0.015035  0.057965  0  3.952113  0
C  C189  1  0.70754004  0.68477584  0.91842671  1  -0.040535  0  -0.015008  0.057982  0  3.952062  0
C  C190  1  0.20752255  0.81521688  0.41842621  1  -0.040407  0  -0.014831  0.058389  0  3.952054  0
C  C191  1  0.70750529  0.18477216  0.58157183  1  -0.03983  0  -0.01489  0.058226  0  3.952038  0
C  C192  1  0.34114904  0.24275141  0.07881391  1  -0.118849  0  -0.24141  -0.406488  0  3.96739  0
C  C193  1  0.84115625  0.75725773  0.92118858  1  -0.11874  0  -0.241403  -0.406416  0  3.967355  0
C  C194  1  0.34113177  0.74274090  0.42118691  1  -0.118632  0  -0.241444  -0.406613  0  3.967319  0
C  C195  1  0.84113315  0.25724971  0.57881486  1  -0.119412  0  -0.241466  -0.406578  0  3.967353  0
C  C196  1  0.01530580  0.33461303  0.04864671  1  -0.012185  0  -0.019687  -0.035091  0  3.970167  0
C  C197  1  0.51530972  0.66538840  0.95135232  1  -0.012407  0  -0.019739  -0.035303  0  3.970582  0
C  C198  1  0.01529115  0.83460498  0.45135210  1  -0.012538  0  -0.019854  -0.03544  0  3.970542  0
C  C199  1  0.51528208  0.16538774  0.54864693  1  -0.01233  0  -0.019777  -0.035017  0  3.970416  0
C  C200  1  0.89536150  0.40323860  0.05084344  1  -0.014115  0  -0.012286  0.064104  0  3.941962  0
C  C201  1  0.39537261  0.59676583  0.94915434  1  -0.014269  0  -0.012323  0.064071  0  3.942213  0
C  C202  1  0.89535655  0.90322730  0.44915387  1  -0.014715  0  -0.012354  0.063989  0  3.941867  0
C  C203  1  0.39533527  0.09676569  0.55083891  1  -0.014656  0  -0.012296  0.063879  0  3.942358  0
C  C204  1  0.94884374  0.45000792  0.08948233  1  -0.000566  0  -0.013478  0.067186  0  3.933599  0
C  C205  1  0.44886209  0.54999670  0.91051751  1  9.3e-05  0  -0.013382  0.067317  0  3.933424  0
C  C206  1  0.94884613  0.94999696  0.41051437  1  -5e-06  0  -0.013389  0.067334  0  3.933025  0
C  C207  1  0.44880972  0.04999513  0.58947762  1  -0.001062  0  -0.01338  0.067413  0  3.932958  0
C  C208  1  0.78888349  0.51813667  0.09438411  1  -0.097061  0  -0.249006  -0.413969  0  3.948913  0
C  C209  1  0.28889139  0.48186466  0.90561381  1  -0.097454  0  -0.24894  -0.413838  0  3.948812  0
C  C210  1  0.78888358  0.01812958  0.40561227  1  -0.097502  0  -0.248884  -0.414019  0  3.948945  0
C  C211  1  0.28885285  0.98185757  0.59437960  1  -0.096369  0  -0.24895  -0.413815  0  3.948865  0
C  C212  1  0.70764710  0.42730668  0.01314292  1  -0.07015  0  -0.244535  -0.412342  0  3.965015  0
C  C213  1  0.20764794  0.57269490  0.98685690  1  -0.070102  0  -0.244564  -0.41233  0  3.964958  0
C  C214  1  0.70763292  0.92730377  0.48685599  1  -0.069754  0  -0.244591  -0.412397  0  3.965006  0
C  C215  1  0.20762367  0.07269345  0.51314027  1  -0.069297  0  -0.24462  -0.412381  0  3.965125  0
C  C216  1  0.91944204  0.27897068  0.01323649  1  0.206972  0  -0.045593  -0.132097  0  3.907355  0
C  C217  1  0.41943587  0.72103057  0.98676339  1  0.207012  0  -0.045568  -0.131899  0  3.907341  0
C  C218  1  0.91943171  0.77896286  0.48676445  1  0.206702  0  -0.045485  -0.131995  0  3.907159  0
C  C219  1  0.41942314  0.22103349  0.51323579  1  0.206662  0  -0.045571  -0.132202  0  3.907476  0
C  C220  1  0.05331972  0.22075733  0.93548497  1  0.978281  0  0.162269  0.083088  0  3.848904  0
C  C221  1  0.55330708  0.77924315  0.06451615  1  0.97841  0  0.162166  0.083046  0  3.849194  0
C  C222  1  0.05331892  0.72075759  0.56451937  1  0.978273  0  0.162107  0.082976  0  3.849036  0
C  C223  1  0.55331749  0.27924834  0.43548317  1  0.979152  0  0.162202  0.083078  0  3.849231  0
C  C224  1  0.37774291  0.28796200  0.92064727  1  0.977117  0  0.1419  0.125775  0  4.010193  0
C  C225  1  0.87771713  0.71203419  0.07935446  1  0.976959  0  0.141828  0.125595  0  4.010154  0
C  C226  1  0.37773189  0.78796758  0.57935351  1  0.976502  0  0.141944  0.125829  0  4.010161  0
C  C227  1  0.87769547  0.21203025  0.42064144  1  0.976388  0  0.141966  0.125812  0  4.009958  0
N  N228  1  0.23988290  0.23067259  0.90333016  1  -1.229378  0  -0.341095  -0.30456  0  3.45955  0
N  N229  1  0.73984738  0.76932747  0.09667176  1  -1.229649  0  -0.340903  -0.304335  0  3.459347  0
N  N230  1  0.23987310  0.73067802  0.59667423  1  -1.229448  0  -0.341062  -0.304585  0  3.45952  0
N  N231  1  0.73985525  0.26932640  0.40332483  1  -1.229228  0  -0.341034  -0.304516  0  3.459465  0
N  N232  1  0.08122985  0.27056227  0.97044334  1  -0.809612  0  -0.132106  0.15997  0  3.725762  0
N  N233  1  0.58122224  0.72943722  0.02955702  1  -0.809557  0  -0.132119  0.159829  0  3.726052  0
N  N234  1  0.08122471  0.77056066  0.52955792  1  -0.809417  0  -0.132035  0.160046  0  3.725815  0
N  N235  1  0.58121392  0.22944156  0.47044280  1  -0.809469  0  -0.132084  0.159906  0  3.726077  0
N  N236  1  0.28765441  0.31406857  0.96162360  1  -0.682654  0  -0.217609  -0.262879  0  3.157672  0
N  N237  1  0.78762725  0.68593057  0.03837897  1  -0.682311  0  -0.217551  -0.262719  0  3.157894  0
N  N238  1  0.28763930  0.81406907  0.53837578  1  -0.682375  0  -0.217629  -0.262866  0  3.157712  0
N  N239  1  0.78760392  0.18592789  0.46161929  1  -0.682067  0  -0.217562  -0.262756  0  3.157627  0
N  N240  1  0.05960458  0.46277255  0.20694333  1  -0.799734  0  -0.133277  0.169447  0  3.716126  0
N  N241  1  0.55963822  0.53723395  0.79305563  1  -0.800619  0  -0.13339  0.169333  0  3.716263  0
N  N242  1  0.05962137  0.96276098  0.29305423  1  -0.800466  0  -0.133414  0.169406  0  3.716146  0
N  N243  1  0.55956376  0.03723025  0.70694366  1  -0.7996  0  -0.133348  0.169368  0  3.716693  0
N  N244  1  0.83256270  0.49678473  0.21697743  1  -0.69064  0  -0.219403  -0.267218  0  3.116137  0
N  N245  1  0.33259767  0.50322057  0.78302150  1  -0.690983  0  -0.219409  -0.267199  0  3.116078  0
N  N246  1  0.83258759  0.99677652  0.28301962  1  -0.691667  0  -0.219298  -0.267122  0  3.116173  0
N  N247  1  0.33251703  0.00322115  0.71698288  1  -0.691454  0  -0.219318  -0.267102  0  3.116263  0
N  N248  1  0.93301108  0.41624917  0.27442082  1  -1.18579  0  -0.346703  -0.316976  0  3.497826  0
N  N249  1  0.43304420  0.58375976  0.72557940  1  -1.185777  0  -0.346775  -0.317094  0  3.497483  0
N  N250  1  0.93302102  0.91623711  0.22557710  1  -1.185786  0  -0.346624  -0.316883  0  3.497434  0
N  N251  1  0.43303043  0.08375383  0.77442561  1  -1.185919  0  -0.346753  -0.317022  0  3.497714  0
O  O252  1  0.90754938  0.50511308  0.41524723  1  -1.189245  0  -0.326335  -0.553161  0  2.145671  0
O  O253  1  0.40754402  0.49488976  0.58475445  1  -1.188872  0  -0.326362  -0.553108  0  2.145388  0
O  O254  1  0.90757409  0.00512681  0.08475081  1  -1.189515  0  -0.326408  -0.553365  0  2.145494  0
O  O255  1  0.40759043  0.99487821  0.91525515  1  -1.189707  0  -0.326355  -0.553289  0  2.145639  0
O  O256  1  0.62348806  0.44525667  0.36830476  1  -1.205557  0  -0.336175  -0.595238  0  2.271317  0
O  O257  1  0.12348146  0.55474787  0.63169554  1  -1.205807  0  -0.33611  -0.595145  0  2.27141  0
O  O258  1  0.62349798  0.94526180  0.13168814  1  -1.205518  0  -0.33624  -0.595364  0  2.271387  0
O  O259  1  0.12351960  0.05474275  0.86831787  1  -1.205857  0  -0.336263  -0.59554  0  2.271468  0
O  O260  1  0.17448304  0.39011965  0.39510221  1  -1.283676  0  -0.595974  -0.778625  0  2.111702  0
O  O261  1  0.67448330  0.60988236  0.60489659  1  -1.283152  0  -0.596001  -0.778586  0  2.111643  0
O  O262  1  0.17448829  0.89012501  0.10489331  1  -1.283802  0  -0.595989  -0.778563  0  2.111782  0
O  O263  1  0.67450305  0.10987755  0.89510656  1  -1.284297  0  -0.596029  -0.778549  0  2.111703  0
O  O264  1  0.12487493  0.74314658  0.18171404  1  -1.183241  0  -0.337967  -0.582514  0  2.236519  0
O  O265  1  0.62493958  0.25685580  0.81828769  1  -1.182816  0  -0.337906  -0.582515  0  2.236424  0
O  O266  1  0.12486321  0.24314953  0.31827140  1  -1.183185  0  -0.337973  -0.582553  0  2.236656  0
O  O267  1  0.62493208  0.75685830  0.68172783  1  -1.183097  0  -0.337967  -0.582545  0  2.236326  0
O  O268  1  0.47489671  0.81192322  0.19670010  1  -1.191148  0  -0.340647  -0.591347  0  2.223873  0
O  O269  1  0.97493207  0.18807659  0.80329471  1  -1.190521  0  -0.340686  -0.591399  0  2.223721  0
O  O270  1  0.47489329  0.31192304  0.30329101  1  -1.191153  0  -0.340734  -0.591387  0  2.223794  0
O  O271  1  0.97494318  0.68807950  0.69670808  1  -1.190253  0  -0.340681  -0.59129  0  2.223821  0
