# generated using pymatgen
data_Cd2H7C6SN5O6
_symmetry_space_group_name_H-M   'P 1'
_cell_length_a   7.02272734
_cell_length_b   7.62312818
_cell_length_c   11.47554323
_cell_angle_alpha   102.35930049
_cell_angle_beta   90.00020279
_cell_angle_gamma   89.99956904
_symmetry_Int_Tables_number   1
_chemical_formula_structural   Cd2H7C6SN5O6
_chemical_formula_sum   'Cd4 H14 C12 S2 N10 O12'
_cell_volume   600.10722533
_cell_formula_units_Z   2
loop_
 _symmetry_equiv_pos_site_id
 _symmetry_equiv_pos_as_xyz
  1  'x, y, z'
loop_
 _atom_site_type_symbol
 _atom_site_label
 _atom_site_symmetry_multiplicity
 _atom_site_fract_x
 _atom_site_fract_y
 _atom_site_fract_z
 _atom_site_occupancy
 _atom_site_hle17_bader_spin_density
 _atom_site_hle17_ddec_charge
 _atom_site_hle17_ddec_spin_density
 _atom_site_hle17_ddec_sum_bond_order
 _atom_site_hle17_magmom
 _atom_site_hse06_10hf_bader_spin_density
 _atom_site_hse06_10hf_ddec_charge
 _atom_site_hse06_10hf_ddec_spin_density
 _atom_site_hse06_10hf_ddec_sum_bond_order
 _atom_site_hse06_10hf_magmom
 _atom_site_hse06_bader_spin_density
 _atom_site_hse06_ddec_charge
 _atom_site_hse06_ddec_spin_density
 _atom_site_hse06_ddec_sum_bond_order
 _atom_site_hse06_magmom
 _atom_site_pbe_bader_spin_density
 _atom_site_pbe_cm5_charge
 _atom_site_pbe_ddec_charge
 _atom_site_pbe_ddec_spin_density
 _atom_site_pbe_ddec_sum_bond_order
 _atom_site_pbe_magmom
Cd  Cd0  1  0.74999992  0.05603314  0.83616578  1  0  1.311045  0  1.621784  0  0  1.144986  0  2.0747  0  0  1.196144  0  2.016404  0  0  0.785874  1.108197  0  2.115139  0
Cd  Cd1  1  0.25000056  0.94396709  0.16383598  1  0  1.311048  0  1.621756  0  0  1.144985  0  2.07466  0  0  1.19614  0  2.016367  0  0  0.785876  1.108187  0  2.115096  0
Cd  Cd2  1  0.49999880  0.49999828  0.99999952  1  0  1.188545  0  1.711162  0  0  1.000853  0  2.164803  0  0  1.053227  0  2.112452  0  0  0.780121  0.963203  0  2.200821  0
Cd  Cd3  1  0.00000074  0.50000123  0.99999936  1  0  1.188549  0  1.711066  0  0  1.000862  0  2.164687  0  0  1.053232  0  2.112341  0  0  0.780107  0.963185  0  2.200758  0
H  H4  1  0.74999988  0.39607772  0.81906204  1  0  0.391143  0  0.891945  0  0  0.366166  0  0.958762  0  0  0.374838  0  0.95105  0  0  0.286931  0.359947  0  0.964215  0
H  H5  1  0.24999917  0.60392248  0.18093884  1  0  0.391143  0  0.891933  0  0  0.366165  0  0.958754  0  0  0.374838  0  0.951047  0  0  0.286931  0.359945  0  0.964204  0
H  H6  1  0.86739578  0.70193339  0.73389177  1  0  0.388606  0  0.933107  0  0  0.347016  0  1.014748  0  0  0.35844  0  0.998459  0  0  0.281757  0.338937  0  1.026248  0
H  H7  1  0.36738954  0.29806866  0.26610698  1  0  0.388599  0  0.933121  0  0  0.347009  0  1.014763  0  0  0.358433  0  0.998474  0  0  0.281746  0.338929  0  1.026263  0
H  H8  1  0.13260184  0.29806675  0.26610736  1  0  0.388585  0  0.933125  0  0  0.346998  0  1.014765  0  0  0.358421  0  0.998477  0  0  0.281747  0.338918  0  1.026265  0
H  H9  1  0.63260808  0.70193417  0.73389249  1  0  0.388625  0  0.933085  0  0  0.347039  0  1.014721  0  0  0.358463  0  0.998431  0  0  0.281765  0.338961  0  1.026219  0
H  H10  1  0.04386157  0.16495569  0.64049653  1  0  0.092292  0  0.943991  0  0  0.100229  0  1.006454  0  0  0.102928  0  1.004313  0  0  0.114678  0.098227  0  1.008089  0
H  H11  1  0.54387172  0.83504303  0.35950023  1  0  0.092314  0  0.943803  0  0  0.100243  0  1.006284  0  0  0.102943  0  1.00414  0  0  0.114685  0.098235  0  1.007922  0
H  H12  1  0.95614033  0.83505673  0.35951028  1  0  0.092287  0  0.943942  0  0  0.100226  0  1.006406  0  0  0.102922  0  1.00427  0  0  0.114684  0.098222  0  1.00804  0
H  H13  1  0.45613018  0.16494355  0.64049279  1  0  0.092262  0  0.943952  0  0  0.100189  0  1.006429  0  0  0.102888  0  1.004285  0  0  0.114635  0.098186  0  1.008065  0
H  H14  1  0.05810576  0.27295591  0.44908735  1  0  0.117809  0  0.96112  0  0  0.128409  0  1.020582  0  0  0.131854  0  1.019214  0  0  0.11005  0.125852  0  1.021845  0
H  H15  1  0.55811504  0.72704809  0.55091012  1  0  0.117739  0  0.961367  0  0  0.128269  0  1.020878  0  0  0.131709  0  1.019523  0  0  0.109974  0.125713  0  1.022142  0
H  H16  1  0.94189898  0.72705777  0.55091701  1  0  0.117768  0  0.961304  0  0  0.128319  0  1.020797  0  0  0.131761  0  1.019439  0  0  0.11005  0.125763  0  1.022059  0
H  H17  1  0.44188971  0.27294262  0.44908692  1  0  0.117791  0  0.961451  0  0  0.128296  0  1.02099  0  0  0.131737  0  1.019631  0  0  0.110006  0.12574  0  1.022252  0
C  C18  1  0.91458857  0.19152240  0.59442735  1  0  0.121279  0  3.724096  0  0  0.090952  0  3.982306  0  0  0.097217  0  4.001097  0  0  0.041747  0.086917  0  3.969469  0
C  C19  1  0.41459597  0.80847672  0.40557287  1  0  0.121208  0  3.724046  0  0  0.090871  0  3.982271  0  0  0.097136  0  4.00106  0  0  0.0417  0.08684  0  3.969428  0
C  C20  1  0.08541048  0.80848059  0.40557737  1  0  0.121222  0  3.72402  0  0  0.090888  0  3.982245  0  0  0.097152  0  4.001036  0  0  0.041679  0.086852  0  3.969403  0
C  C21  1  0.58540308  0.19151159  0.59443258  1  0  0.121285  0  3.723996  0  0  0.09096  0  3.982189  0  0  0.097225  0  4.000978  0  0  0.041785  0.086924  0  3.969352  0
C  C22  1  0.92124356  0.25326349  0.48900285  1  0  -0.141884  0  3.687184  0  0  -0.164682  0  3.93757  0  0  -0.171917  0  3.958516  0  0  -0.081965  -0.159912  0  3.923496  0
C  C23  1  0.42127200  0.74674353  0.51099491  1  0  -0.141789  0  3.686772  0  0  -0.164571  0  3.937089  0  0  -0.171816  0  3.95805  0  0  -0.081895  -0.159802  0  3.923018  0
C  C24  1  0.07874695  0.74674745  0.51099941  1  0  -0.141769  0  3.686983  0  0  -0.164603  0  3.93735  0  0  -0.171836  0  3.958284  0  0  -0.081907  -0.159835  0  3.923283  0
C  C25  1  0.57872136  0.25325499  0.48899529  1  0  -0.141849  0  3.68637  0  0  -0.164571  0  3.936784  0  0  -0.171802  0  3.95772  0  0  -0.08191  -0.159804  0  3.922713  0
C  C26  1  0.75000495  0.28543473  0.43406755  1  0  0.06525  0  3.765037  0  0  0.08014  0  3.998985  0  0  0.083629  0  4.019802  0  0  0.020184  0.077913  0  3.984811  0
C  C27  1  0.25000549  0.71456292  0.56593736  1  0  0.065098  0  3.765125  0  0  0.080166  0  3.998736  0  0  0.08366  0  4.01955  0  0  0.020148  0.077936  0  3.984572  0
C  C28  1  0.74999013  0.35094298  0.32342266  1  0  0.273378  0  3.742938  0  0  0.24548  0  4.015339  0  0  0.253467  0  4.030815  0  0  0.227771  0.240078  0  4.004856  0
C  C29  1  0.25000323  0.64906116  0.67657611  1  0  0.27344  0  3.743253  0  0  0.24563  0  4.01537  0  0  0.253615  0  4.030845  0  0  0.227786  0.240221  0  4.004911  0
S  S30  1  0.75000142  0.91185589  0.10327000  1  0  1.623077  0  5.810739  0  0  1.499263  0  6.349755  0  0  1.557212  0  6.312671  0  0  0.558648  1.458852  0  6.374355  0
S  S31  1  0.25000047  0.08814159  0.89672965  1  0  1.623112  0  5.81079  0  0  1.49932  0  6.349764  0  0  1.557272  0  6.312678  0  0  0.558684  1.458909  0  6.374365  0
N  N32  1  0.74999183  0.16052573  0.64689875  1  0  -0.349479  0  3.213778  0  0  -0.277156  0  3.473902  0  0  -0.295087  0  3.491773  0  0  -0.324953  -0.264817  0  3.461494  0
N  N33  1  0.25000580  0.83947438  0.35309950  1  0  -0.349451  0  3.21334  0  0  -0.277137  0  3.473476  0  0  -0.295066  0  3.491343  0  0  -0.324947  -0.264794  0  3.46106  0
N  N34  1  0.65583928  0.44343461  0.17060238  1  0  -0.09939  0  3.168418  0  0  -0.057298  0  3.458207  0  0  -0.064967  0  3.474658  0  0  -0.102777  -0.05171  0  3.446752  0
N  N35  1  0.15584404  0.55656751  0.82939767  1  0  -0.099314  0  3.168339  0  0  -0.057225  0  3.45814  0  0  -0.064891  0  3.474591  0  0  -0.102725  -0.051633  0  3.446685  0
N  N36  1  0.34415549  0.55656293  0.82939903  1  0  -0.099208  0  3.168297  0  0  -0.057095  0  3.458068  0  0  -0.064759  0  3.474516  0  0  -0.102722  -0.051506  0  3.446614  0
N  N37  1  0.84415074  0.44343537  0.17060355  1  0  -0.099123  0  3.168285  0  0  -0.056999  0  3.458039  0  0  -0.064663  0  3.474492  0  0  -0.102642  -0.051412  0  3.446584  0
N  N38  1  0.59246270  0.38674330  0.26502989  1  0  -0.272508  0  3.031078  0  0  -0.233188  0  3.294994  0  0  -0.243447  0  3.30923  0  0  -0.190491  -0.226092  0  3.28532  0
N  N39  1  0.09247072  0.61326054  0.73496937  1  0  -0.272502  0  3.030954  0  0  -0.233243  0  3.294845  0  0  -0.243505  0  3.309083  0  0  -0.190509  -0.226141  0  3.285174  0
N  N40  1  0.40753778  0.61325424  0.73497151  1  0  -0.272495  0  3.030841  0  0  -0.233221  0  3.294705  0  0  -0.24348  0  3.30894  0  0  -0.190351  -0.226122  0  3.285038  0
N  N41  1  0.90752833  0.38674500  0.26503132  1  0  -0.272547  0  3.030914  0  0  -0.233251  0  3.294832  0  0  -0.243513  0  3.309068  0  0  -0.190457  -0.226153  0  3.28516  0
O  O42  1  0.42063061  0.07328244  0.81870600  1  0  -0.763802  0  1.999628  0  0  -0.702955  0  2.28342  0  0  -0.727354  0  2.262795  0  0  -0.371647  -0.685664  0  2.297231  0
O  O43  1  0.92062618  0.92671647  0.18128897  1  0  -0.76375  0  1.999676  0  0  -0.702878  0  2.28339  0  0  -0.727273  0  2.262765  0  0  -0.371617  -0.685588  0  2.2972  0
O  O44  1  0.57937272  0.92672162  0.18129014  1  0  -0.763771  0  1.999559  0  0  -0.702921  0  2.283335  0  0  -0.727316  0  2.262707  0  0  -0.371655  -0.685632  0  2.297145  0
O  O45  1  0.07937572  0.07327027  0.81870930  1  0  -0.763739  0  1.999688  0  0  -0.702919  0  2.283499  0  0  -0.727316  0  2.262871  0  0  -0.371631  -0.68563  0  2.297311  0
O  O46  1  0.75000166  0.36385144  0.89671628  1  0  -0.971383  0  1.905101  0  0  -0.866931  0  2.182752  0  0  -0.905066  0  2.157908  0  0  -0.590753  -0.839588  0  2.19912  0
O  O47  1  0.24999882  0.63614873  0.10328372  1  0  -0.971363  0  1.905064  0  0  -0.866919  0  2.182722  0  0  -0.905054  0  2.157884  0  0  -0.590746  -0.839574  0  2.199086  0
O  O48  1  0.74999948  0.77252217  0.72444060  1  0  -0.84692  0  1.979028  0  0  -0.778956  0  2.204587  0  0  -0.802253  0  2.168163  0  0  -0.588097  -0.76228  0  2.229826  0
O  O49  1  0.24999815  0.22747932  0.27555870  1  0  -0.8469  0  1.979072  0  0  -0.778917  0  2.204608  0  0  -0.802216  0  2.168185  0  0  -0.588077  -0.762244  0  2.22985  0
O  O50  1  0.75000050  0.05626651  0.03447760  1  0  -0.757287  0  2.003197  0  0  -0.694814  0  2.285303  0  0  -0.720013  0  2.265805  0  0  -0.374667  -0.676945  0  2.298301  0
O  O51  1  0.25001563  0.94373232  0.96552223  1  0  -0.757268  0  2.003184  0  0  -0.694818  0  2.285323  0  0  -0.720018  0  2.265827  0  0  -0.374654  -0.676948  0  2.298321  0
O  O52  1  0.24999854  0.26887233  0.98300678  1  0  -0.812489  0  2.02875  0  0  -0.736331  0  2.315975  0  0  -0.76194  0  2.292937  0  0  -0.383991  -0.717985  0  2.331271  0
O  O53  1  0.74999766  0.73112238  0.01698991  1  0  -0.812518  0  2.028893  0  0  -0.736328  0  2.316047  0  0  -0.761936  0  2.293012  0  0  -0.383962  -0.717981  0  2.331345  0
