# generated using pymatgen
data_LiHCN4
_symmetry_space_group_name_H-M   'P 1'
_cell_length_a   9.89856701
_cell_length_b   9.89856732
_cell_length_c   13.94598001
_cell_angle_alpha   90.00022608
_cell_angle_beta   89.99983582
_cell_angle_gamma   93.86950696
_symmetry_Int_Tables_number   1
_chemical_formula_structural   LiHCN4
_chemical_formula_sum   'Li16 H16 C16 N64'
_cell_volume   1363.33483280
_cell_formula_units_Z   16
loop_
 _symmetry_equiv_pos_site_id
 _symmetry_equiv_pos_as_xyz
  1  'x, y, z'
loop_
 _atom_site_type_symbol
 _atom_site_label
 _atom_site_symmetry_multiplicity
 _atom_site_fract_x
 _atom_site_fract_y
 _atom_site_fract_z
 _atom_site_occupancy
 _atom_site_hle17_bader_spin_density
 _atom_site_hle17_ddec_charge
 _atom_site_hle17_ddec_spin_density
 _atom_site_hle17_ddec_sum_bond_order
 _atom_site_hle17_magmom
 _atom_site_hse06_10hf_bader_spin_density
 _atom_site_hse06_10hf_ddec_charge
 _atom_site_hse06_10hf_ddec_spin_density
 _atom_site_hse06_10hf_ddec_sum_bond_order
 _atom_site_hse06_10hf_magmom
 _atom_site_hse06_bader_spin_density
 _atom_site_hse06_ddec_charge
 _atom_site_hse06_ddec_spin_density
 _atom_site_hse06_ddec_sum_bond_order
 _atom_site_hse06_magmom
 _atom_site_pbe_bader_spin_density
 _atom_site_pbe_cm5_charge
 _atom_site_pbe_ddec_charge
 _atom_site_pbe_ddec_spin_density
 _atom_site_pbe_ddec_sum_bond_order
 _atom_site_pbe_magmom
Li  Li0  1  0.52621792  0.47378300  0.75000120  1  0  0.7224  0  0.598476  0  0  0.629826  0  0.780825  0  0  0.641939  0  0.762911  0  0  0.599299  0.621162  0  0.793823  0
Li  Li1  1  0.47377992  0.52621660  0.25000205  1  0  0.722429  0  0.598438  0  0  0.629862  0  0.780765  0  0  0.641967  0  0.762858  0  0  0.599303  0.621197  0  0.793765  0
Li  Li2  1  0.08360560  0.91639250  0.25000011  1  0  0.724786  0  0.586772  0  0  0.633575  0  0.766079  0  0  0.645697  0  0.748309  0  0  0.60617  0.624823  0  0.779089  0
Li  Li3  1  0.91639724  0.08360609  0.74999812  1  0  0.72477  0  0.58679  0  0  0.633518  0  0.766163  0  0  0.645639  0  0.748393  0  0  0.606149  0.624764  0  0.779176  0
Li  Li4  1  0.97628041  0.97627927  0.49999966  1  0  0.721968  0  0.601535  0  0  0.628328  0  0.785917  0  0  0.640367  0  0.767988  0  0  0.604479  0.61975  0  0.79878  0
Li  Li5  1  0.02372021  0.02371660  0.99999857  1  0  0.721982  0  0.601503  0  0  0.628333  0  0.785878  0  0  0.640364  0  0.767966  0  0  0.604469  0.619755  0  0.798747  0
Li  Li6  1  0.58962623  0.97918012  0.50001582  1  0  0.722992  0  0.594051  0  0  0.631596  0  0.77427  0  0  0.643593  0  0.756526  0  0  0.602099  0.622974  0  0.787165  0
Li  Li7  1  0.41037449  0.02081712  0.00001682  1  0  0.722995  0  0.594024  0  0  0.63158  0  0.77428  0  0  0.643575  0  0.756537  0  0  0.602087  0.622956  0  0.787176  0
Li  Li8  1  0.97917869  0.58962671  0.49998262  1  0  0.722937  0  0.594151  0  0  0.63157  0  0.774337  0  0  0.643567  0  0.756592  0  0  0.602096  0.622946  0  0.787232  0
Li  Li9  1  0.02082012  0.41037220  0.99998477  1  0  0.723027  0  0.593991  0  0  0.631611  0  0.774263  0  0  0.643606  0  0.756521  0  0  0.602121  0.622988  0  0.787159  0
Li  Li10  1  0.59051116  0.59051210  0.50000023  1  0  0.726015  0  0.584131  0  0  0.634769  0  0.7633  0  0  0.64689  0  0.745557  0  0  0.605597  0.626146  0  0.77614  0
Li  Li11  1  0.40948755  0.40948515  0.00000016  1  0  0.726001  0  0.584153  0  0  0.634743  0  0.763331  0  0  0.646852  0  0.745608  0  0  0.605586  0.62612  0  0.776172  0
Li  Li12  1  0.91286159  0.47276930  0.74964659  1  0  0.723085  0  0.593952  0  0  0.631198  0  0.775315  0  0  0.64328  0  0.757415  0  0  0.603654  0.622517  0  0.78829  0
Li  Li13  1  0.08714030  0.52723030  0.24964606  1  0  0.723086  0  0.593945  0  0  0.631224  0  0.775293  0  0  0.643306  0  0.757394  0  0  0.603671  0.622547  0  0.788266  0
Li  Li14  1  0.47276823  0.91286054  0.25035394  1  0  0.723084  0  0.593951  0  0  0.631211  0  0.775332  0  0  0.643295  0  0.757429  0  0  0.603662  0.622537  0  0.788304  0
Li  Li15  1  0.52723164  0.08713906  0.75035274  1  0  0.723074  0  0.593967  0  0  0.631197  0  0.775345  0  0  0.643281  0  0.757443  0  0  0.603663  0.622519  0  0.788317  0
H  H16  1  0.67259827  0.29327629  0.42883370  1  0  0.088668  0  0.926383  0  0  0.101389  0  0.983594  0  0  0.103225  0  0.982508  0  0  0.146911  0.100088  0  0.98428  0
H  H17  1  0.32740276  0.70672123  0.92883462  1  0  0.088652  0  0.926386  0  0  0.101375  0  0.983591  0  0  0.10321  0  0.982506  0  0  0.146903  0.10009  0  0.98426  0
H  H18  1  0.29327192  0.67261759  0.57116595  1  0  0.088683  0  0.926217  0  0  0.101307  0  0.983543  0  0  0.103218  0  0.982364  0  0  0.14687  0.100011  0  0.984237  0
H  H19  1  0.70672159  0.32739724  0.07116577  1  0  0.088678  0  0.926342  0  0  0.101393  0  0.983546  0  0  0.103234  0  0.982453  0  0  0.146927  0.100095  0  0.98424  0
H  H20  1  0.77445022  0.83098103  0.17905054  1  0  0.088292  0  0.926053  0  0  0.10109  0  0.983448  0  0  0.103088  0  0.982097  0  0  0.147278  0.099707  0  0.98429  0
H  H21  1  0.22555294  0.16901820  0.67905160  1  0  0.088312  0  0.926067  0  0  0.10109  0  0.983485  0  0  0.103098  0  0.982124  0  0  0.147291  0.09971  0  0.984326  0
H  H22  1  0.83098258  0.77445411  0.82095007  1  0  0.088316  0  0.926013  0  0  0.101114  0  0.983413  0  0  0.103113  0  0.982062  0  0  0.147272  0.09973  0  0.984257  0
H  H23  1  0.16901520  0.22554890  0.32094855  1  0  0.088266  0  0.926072  0  0  0.101099  0  0.983434  0  0  0.103095  0  0.982085  0  0  0.147282  0.099719  0  0.984278  0
H  H24  1  0.21986279  0.51017099  0.67219204  1  0  0.086125  0  0.943394  0  0  0.095562  0  1.007817  0  0  0.098026  0  1.005408  0  0  0.144809  0.093767  0  1.0095  0
H  H25  1  0.78013621  0.48984135  0.17218428  1  0  0.086067  0  0.943319  0  0  0.095464  0  1.007797  0  0  0.097931  0  1.005379  0  0  0.144758  0.093669  0  1.009483  0
H  H26  1  0.51015577  0.21986388  0.32781469  1  0  0.086111  0  0.943319  0  0  0.095522  0  1.007778  0  0  0.097994  0  1.005355  0  0  0.144759  0.09373  0  1.00946  0
H  H27  1  0.48982979  0.78013814  0.82781047  1  0  0.086042  0  0.943445  0  0  0.09548  0  1.007871  0  0  0.097949  0  1.005454  0  0  0.144782  0.093685  0  1.009557  0
H  H28  1  0.28712552  0.01195838  0.57850909  1  0  0.085618  0  0.945361  0  0  0.09459  0  1.010985  0  0  0.09706  0  1.008477  0  0  0.144889  0.092778  0  1.012773  0
H  H29  1  0.71287775  0.98803626  0.07850787  1  0  0.085648  0  0.945336  0  0  0.094578  0  1.011029  0  0  0.097048  0  1.00852  0  0  0.14489  0.092769  0  1.012818  0
H  H30  1  0.01196748  0.28712320  0.42148887  1  0  0.085673  0  0.945277  0  0  0.094598  0  1.010963  0  0  0.097067  0  1.008456  0  0  0.144901  0.092787  0  1.012754  0
H  H31  1  0.98803937  0.71287024  0.92149063  1  0  0.085681  0  0.945393  0  0  0.094615  0  1.011068  0  0  0.097086  0  1.00856  0  0  0.14491  0.092804  0  1.012855  0
C  C32  1  0.77596716  0.87146403  0.25125204  1  0  0.191083  0  3.741223  0  0  0.138648  0  4.026649  0  0  0.146079  0  4.041531  0  0  0.159372  0.133871  0  4.016272  0
C  C33  1  0.22403560  0.12853356  0.75125300  1  0  0.191108  0  3.741584  0  0  0.138688  0  4.02701  0  0  0.146111  0  4.041893  0  0  0.15941  0.133909  0  4.016632  0
C  C34  1  0.87146377  0.77596823  0.74874715  1  0  0.191019  0  3.741189  0  0  0.138578  0  4.026618  0  0  0.146008  0  4.041501  0  0  0.159375  0.133799  0  4.016242  0
C  C35  1  0.12853287  0.22402832  0.24874713  1  0  0.191129  0  3.741168  0  0  0.138662  0  4.026607  0  0  0.146094  0  4.04149  0  0  0.159446  0.133881  0  4.016231  0
C  C36  1  0.21917942  0.48023946  0.74692106  1  0  0.179177  0  3.760088  0  0  0.129091  0  4.040638  0  0  0.136869  0  4.054866  0  0  0.154563  0.124158  0  4.030631  0
C  C37  1  0.78081796  0.51976822  0.24691768  1  0  0.179399  0  3.76013  0  0  0.129355  0  4.040677  0  0  0.137137  0  4.0549  0  0  0.154731  0.124419  0  4.030677  0
C  C38  1  0.48022889  0.21918004  0.25308135  1  0  0.179266  0  3.760272  0  0  0.12921  0  4.040818  0  0  0.136989  0  4.055042  0  0  0.154699  0.124276  0  4.030811  0
C  C39  1  0.51975890  0.78082057  0.75308138  1  0  0.179335  0  3.760043  0  0  0.129246  0  4.040601  0  0  0.137023  0  4.054828  0  0  0.154635  0.12431  0  4.030599  0
C  C40  1  0.63242096  0.28874165  0.50113342  1  0  0.190988  0  3.738957  0  0  0.139126  0  4.023979  0  0  0.146615  0  4.038856  0  0  0.159706  0.13431  0  4.013689  0
C  C41  1  0.36757989  0.71125763  0.00113356  1  0  0.191074  0  3.738948  0  0  0.139217  0  4.023963  0  0  0.146707  0  4.038837  0  0  0.159744  0.13439  0  4.01367  0
C  C42  1  0.28873666  0.63243166  0.49886549  1  0  0.191105  0  3.739  0  0  0.139316  0  4.024029  0  0  0.146745  0  4.038899  0  0  0.159777  0.134489  0  4.013753  0
C  C43  1  0.71125877  0.36757736  0.99886757  1  0  0.19106  0  3.738978  0  0  0.139224  0  4.023982  0  0  0.146709  0  4.038852  0  0  0.15976  0.134404  0  4.013697  0
C  C44  1  0.28381898  0.98321616  0.50353830  1  0  0.180266  0  3.760577  0  0  0.130171  0  4.040787  0  0  0.137996  0  4.055016  0  0  0.155255  0.125203  0  4.030793  0
C  C45  1  0.71618483  0.01678212  0.00353724  1  0  0.180311  0  3.76057  0  0  0.130235  0  4.040791  0  0  0.138062  0  4.055019  0  0  0.155271  0.125265  0  4.030805  0
C  C46  1  0.98321979  0.28381472  0.49645931  1  0  0.180264  0  3.760672  0  0  0.13021  0  4.040884  0  0  0.138035  0  4.055114  0  0  0.155259  0.125238  0  4.030899  0
C  C47  1  0.01678085  0.71618113  0.99646161  1  0  0.180119  0  3.760696  0  0  0.130039  0  4.040918  0  0  0.137862  0  4.055149  0  0  0.155163  0.12507  0  4.030925  0
N  N48  1  0.60329210  0.39770069  0.55220925  1  0  -0.337225  0  3.101621  0  0  -0.29977  0  3.392301  0  0  -0.309318  0  3.404924  0  0  -0.285104  -0.29325  0  3.384167  0
N  N49  1  0.39671039  0.60229582  0.05220903  1  0  -0.3373  0  3.101582  0  0  -0.299847  0  3.392268  0  0  -0.309393  0  3.404888  0  0  -0.285108  -0.293326  0  3.384136  0
N  N50  1  0.39769872  0.60329800  0.44779471  1  0  -0.337355  0  3.101685  0  0  -0.299893  0  3.392326  0  0  -0.309446  0  3.404979  0  0  -0.285144  -0.293374  0  3.384196  0
N  N51  1  0.60229859  0.39670569  0.94779207  1  0  -0.337364  0  3.101759  0  0  -0.299916  0  3.392446  0  0  -0.309463  0  3.40507  0  0  -0.285171  -0.293396  0  3.384315  0
N  N52  1  0.66545764  0.89913892  0.30110527  1  0  -0.344049  0  3.09782  0  0  -0.305412  0  3.390057  0  0  -0.314857  0  3.402045  0  0  -0.289313  -0.29891  0  3.382181  0
N  N53  1  0.33454500  0.10085994  0.80110593  1  0  -0.344061  0  3.097961  0  0  -0.305423  0  3.390203  0  0  -0.314868  0  3.402192  0  0  -0.289327  -0.298921  0  3.382327  0
N  N54  1  0.89913700  0.66545644  0.69889604  1  0  -0.344127  0  3.097829  0  0  -0.305487  0  3.390085  0  0  -0.31493  0  3.402069  0  0  -0.28937  -0.298985  0  3.382208  0
N  N55  1  0.10086211  0.33454390  0.19889352  1  0  -0.344126  0  3.097727  0  0  -0.305495  0  3.389982  0  0  -0.314943  0  3.40197  0  0  -0.289344  -0.298991  0  3.382103  0
N  N56  1  0.28295077  0.41839428  0.88489186  1  0  -0.148322  0  3.105226  0  0  -0.121825  0  3.398504  0  0  -0.122997  0  3.409438  0  0  -0.163677  -0.121059  0  3.391636  0
N  N57  1  0.71704846  0.58160402  0.38488806  1  0  -0.148513  0  3.105185  0  0  -0.122038  0  3.398497  0  0  -0.123214  0  3.409436  0  0  -0.163777  -0.121276  0  3.391632  0
N  N58  1  0.41839317  0.28294942  0.11511056  1  0  -0.148474  0  3.105237  0  0  -0.121993  0  3.398552  0  0  -0.123166  0  3.40949  0  0  -0.163764  -0.121228  0  3.391681  0
N  N59  1  0.58160201  0.71704742  0.61511100  1  0  -0.148436  0  3.105197  0  0  -0.121965  0  3.398505  0  0  -0.12314  0  3.409448  0  0  -0.163757  -0.121201  0  3.391641  0
N  N60  1  0.71290731  0.94308223  0.38682461  1  0  -0.16102  0  3.107677  0  0  -0.132295  0  3.398232  0  0  -0.133549  0  3.408438  0  0  -0.16332  -0.131327  0  3.391703  0
N  N61  1  0.28709495  0.05691608  0.88682524  1  0  -0.160952  0  3.107751  0  0  -0.132217  0  3.3983  0  0  -0.13347  0  3.408507  0  0  -0.163291  -0.131252  0  3.391775  0
N  N62  1  0.94307918  0.71290586  0.61317531  1  0  -0.160891  0  3.107701  0  0  -0.132168  0  3.398243  0  0  -0.133419  0  3.40845  0  0  -0.163248  -0.1312  0  3.391717  0
N  N63  1  0.05692308  0.28709098  0.11317274  1  0  -0.160991  0  3.107704  0  0  -0.132258  0  3.398248  0  0  -0.133507  0  3.408452  0  0  -0.163348  -0.131289  0  3.391718  0
N  N64  1  0.88915362  0.89750076  0.30258719  1  0  -0.334091  0  3.098805  0  0  -0.296468  0  3.389022  0  0  -0.306178  0  3.402289  0  0  -0.285585  -0.289761  0  3.380362  0
N  N65  1  0.11084989  0.10249609  0.80258759  1  0  -0.334092  0  3.099095  0  0  -0.296462  0  3.389302  0  0  -0.306174  0  3.402573  0  0  -0.285586  -0.289755  0  3.380642  0
N  N66  1  0.89750327  0.88915273  0.69741134  1  0  -0.334  0  3.09876  0  0  -0.296362  0  3.388966  0  0  -0.306072  0  3.402234  0  0  -0.285547  -0.289658  0  3.38031  0
N  N67  1  0.10249989  0.11084761  0.19741106  1  0  -0.333973  0  3.098771  0  0  -0.296349  0  3.38899  0  0  -0.306057  0  3.402255  0  0  -0.285575  -0.289643  0  3.380335  0
N  N68  1  0.84629891  0.94196374  0.38758813  1  0  -0.157143  0  3.116826  0  0  -0.129204  0  3.408345  0  0  -0.130378  0  3.419129  0  0  -0.161635  -0.12829  0  3.401441  0
N  N69  1  0.15370429  0.05803356  0.88758760  1  0  -0.157244  0  3.117047  0  0  -0.129303  0  3.408567  0  0  -0.130475  0  3.419351  0  0  -0.161707  -0.128391  0  3.401669  0
N  N70  1  0.94196161  0.84629643  0.61241111  1  0  -0.157221  0  3.116927  0  0  -0.129286  0  3.40845  0  0  -0.130462  0  3.419235  0  0  -0.161698  -0.128375  0  3.401552  0
N  N71  1  0.05804166  0.15370041  0.11241104  1  0  -0.157235  0  3.11691  0  0  -0.129294  0  3.408433  0  0  -0.130469  0  3.419216  0  0  -0.161667  -0.128381  0  3.401533  0
N  N72  1  0.32986283  0.45478643  0.79733329  1  0  -0.352637  0  3.108581  0  0  -0.312674  0  3.400381  0  0  -0.322716  0  3.413052  0  0  -0.295012  -0.305822  0  3.391979  0
N  N73  1  0.67013908  0.54521646  0.29732877  1  0  -0.35259  0  3.108472  0  0  -0.312624  0  3.400261  0  0  -0.322665  0  3.412939  0  0  -0.295011  -0.305772  0  3.391859  0
N  N74  1  0.45477933  0.32985973  0.20266987  1  0  -0.352597  0  3.108655  0  0  -0.312629  0  3.40045  0  0  -0.32267  0  3.413128  0  0  -0.295014  -0.305776  0  3.392043  0
N  N75  1  0.54520947  0.67013756  0.70266954  1  0  -0.352528  0  3.108184  0  0  -0.312543  0  3.399961  0  0  -0.322586  0  3.412639  0  0  -0.294959  -0.305689  0  3.391552  0
N  N76  1  0.39350016  0.96082257  0.45114672  1  0  -0.347778  0  3.117719  0  0  -0.309577  0  3.408898  0  0  -0.319849  0  3.422527  0  0  -0.292965  -0.302566  0  3.399935  0
N  N77  1  0.60649977  0.03917507  0.95114522  1  0  -0.347935  0  3.117655  0  0  -0.309739  0  3.408837  0  0  -0.320013  0  3.422468  0  0  -0.293025  -0.302729  0  3.399876  0
N  N78  1  0.96083162  0.39350216  0.54885165  1  0  -0.34782  0  3.117891  0  0  -0.30963  0  3.409039  0  0  -0.319902  0  3.422668  0  0  -0.29301  -0.302619  0  3.400076  0
N  N79  1  0.03917923  0.60649840  0.04885359  1  0  -0.34777  0  3.117675  0  0  -0.309559  0  3.408836  0  0  -0.319833  0  3.422467  0  0  -0.292933  -0.30255  0  3.399874  0
N  N80  1  0.34486666  0.92482563  0.36420123  1  0  -0.146167  0  3.115461  0  0  -0.119586  0  3.408476  0  0  -0.120622  0  3.41984  0  0  -0.162905  -0.118797  0  3.401298  0
N  N81  1  0.65513278  0.07517458  0.86419974  1  0  -0.146093  0  3.115347  0  0  -0.11949  0  3.408331  0  0  -0.120527  0  3.419699  0  0  -0.162876  -0.118701  0  3.401148  0
N  N82  1  0.92483009  0.34486886  0.63579639  1  0  -0.14627  0  3.115556  0  0  -0.119689  0  3.408581  0  0  -0.120725  0  3.419948  0  0  -0.162938  -0.118898  0  3.4014  0
N  N83  1  0.07517740  0.65513216  0.13579839  1  0  -0.146165  0  3.115448  0  0  -0.119586  0  3.408464  0  0  -0.12062  0  3.419831  0  0  -0.162938  -0.118796  0  3.401284  0
N  N84  1  0.10667009  0.46141480  0.80000670  1  0  -0.346731  0  3.116045  0  0  -0.308394  0  3.407237  0  0  -0.318482  0  3.42033  0  0  -0.292024  -0.30158  0  3.39868  0
N  N85  1  0.89332992  0.53859013  0.30000100  1  0  -0.346838  0  3.116045  0  0  -0.308531  0  3.407255  0  0  -0.31862  0  3.420346  0  0  -0.292073  -0.301723  0  3.398706  0
N  N86  1  0.46140966  0.10666988  0.19999782  1  0  -0.346747  0  3.116022  0  0  -0.308432  0  3.407218  0  0  -0.318521  0  3.420312  0  0  -0.292031  -0.301622  0  3.398668  0
N  N87  1  0.53858231  0.89332944  0.69999597  1  0  -0.346788  0  3.116029  0  0  -0.308473  0  3.407243  0  0  -0.31856  0  3.420336  0  0  -0.292055  -0.301663  0  3.398691  0
N  N88  1  0.60809038  0.17424216  0.55129828  1  0  -0.340072  0  3.093775  0  0  -0.301219  0  3.384883  0  0  -0.310696  0  3.397449  0  0  -0.288227  -0.2947  0  3.376641  0
N  N89  1  0.39191110  0.82575435  0.05129869  1  0  -0.340076  0  3.093821  0  0  -0.301226  0  3.384952  0  0  -0.310701  0  3.397516  0  0  -0.288215  -0.294705  0  3.376713  0
N  N90  1  0.17424157  0.60809843  0.44870130  1  0  -0.340207  0  3.094083  0  0  -0.301363  0  3.385175  0  0  -0.31084  0  3.397767  0  0  -0.288261  -0.29484  0  3.376932  0
N  N91  1  0.82575695  0.39190830  0.94870321  1  0  -0.340154  0  3.093866  0  0  -0.301308  0  3.384989  0  0  -0.310784  0  3.397553  0  0  -0.288314  -0.294789  0  3.37675  0
N  N92  1  0.56037391  0.34821314  0.63736639  1  0  -0.157148  0  3.116725  0  0  -0.128813  0  3.407386  0  0  -0.129874  0  3.417959  0  0  -0.160946  -0.127979  0  3.400659  0
N  N93  1  0.43962738  0.65178586  0.13736621  1  0  -0.157077  0  3.116859  0  0  -0.128738  0  3.407518  0  0  -0.129797  0  3.418093  0  0  -0.160921  -0.127906  0  3.400789  0
N  N94  1  0.34821156  0.56037344  0.36263826  1  0  -0.157083  0  3.116655  0  0  -0.128746  0  3.407328  0  0  -0.129805  0  3.4179  0  0  -0.160939  -0.127912  0  3.4006  0
N  N95  1  0.65178796  0.43962778  0.86263635  1  0  -0.157042  0  3.116772  0  0  -0.128707  0  3.407436  0  0  -0.129769  0  3.418008  0  0  -0.160886  -0.127875  0  3.400708  0
N  N96  1  0.21176869  0.92629294  0.36458069  1  0  -0.148087  0  3.105672  0  0  -0.121471  0  3.398642  0  0  -0.122468  0  3.409171  0  0  -0.162989  -0.120783  0  3.392142  0
N  N97  1  0.78823055  0.07370423  0.86457820  1  0  -0.14803  0  3.105691  0  0  -0.121404  0  3.398639  0  0  -0.1224  0  3.409167  0  0  -0.162963  -0.120714  0  3.392137  0
N  N98  1  0.92629921  0.21177053  0.63541688  1  0  -0.147994  0  3.105609  0  0  -0.121361  0  3.398566  0  0  -0.122358  0  3.409095  0  0  -0.162915  -0.120674  0  3.392066  0
N  N99  1  0.07370822  0.78822948  0.13541854  1  0  -0.148019  0  3.105616  0  0  -0.121398  0  3.398572  0  0  -0.122396  0  3.4091  0  0  -0.162944  -0.120711  0  3.392073  0
N  N100  1  0.15006909  0.42240320  0.88630674  1  0  -0.147729  0  3.118038  0  0  -0.121674  0  3.412483  0  0  -0.122512  0  3.423414  0  0  -0.162758  -0.121027  0  3.40569  0
N  N101  1  0.84993014  0.57759511  0.38630338  1  0  -0.147621  0  3.117981  0  0  -0.121559  0  3.412402  0  0  -0.122395  0  3.423335  0  0  -0.162715  -0.120912  0  3.40561  0
N  N102  1  0.42240205  0.15006642  0.11369563  1  0  -0.147674  0  3.117798  0  0  -0.121601  0  3.412229  0  0  -0.122437  0  3.423161  0  0  -0.162727  -0.120952  0  3.405435  0
N  N103  1  0.57759206  0.84992940  0.61369501  1  0  -0.147741  0  3.117983  0  0  -0.12167  0  3.412412  0  0  -0.12251  0  3.423347  0  0  -0.162734  -0.121024  0  3.40562  0
N  N104  1  0.56313831  0.21491676  0.63698329  1  0  -0.162585  0  3.108399  0  0  -0.13456  0  3.400581  0  0  -0.136102  0  3.411229  0  0  -0.164393  -0.133398  0  3.393748  0
N  N105  1  0.43686198  0.78508223  0.13698349  1  0  -0.162642  0  3.108516  0  0  -0.134622  0  3.400699  0  0  -0.136165  0  3.411346  0  0  -0.164436  -0.133462  0  3.393867  0
N  N106  1  0.21491391  0.56313933  0.36301916  1  0  -0.16251  0  3.10837  0  0  -0.134484  0  3.400555  0  0  -0.136027  0  3.411201  0  0  -0.164369  -0.133322  0  3.39372  0
N  N107  1  0.78508472  0.43686391  0.86301912  1  0  -0.162573  0  3.108418  0  0  -0.134537  0  3.400597  0  0  -0.13608  0  3.411245  0  0  -0.16437  -0.133376  0  3.393764  0
N  N108  1  0.16992680  0.96294390  0.45208987  1  0  -0.353111  0  3.108853  0  0  -0.312773  0  3.400043  0  0  -0.322686  0  3.412274  0  0  -0.295469  -0.306059  0  3.391988  0
N  N109  1  0.83007293  0.03705071  0.95208577  1  0  -0.353141  0  3.108957  0  0  -0.312797  0  3.400125  0  0  -0.322709  0  3.412355  0  0  -0.295461  -0.306086  0  3.392077  0
N  N110  1  0.96295225  0.16992827  0.54790913  1  0  -0.353094  0  3.108972  0  0  -0.31276  0  3.40013  0  0  -0.322673  0  3.412362  0  0  -0.29547  -0.306046  0  3.392081  0
N  N111  1  0.03705551  0.83007127  0.04791098  1  0  -0.353096  0  3.108898  0  0  -0.31275  0  3.40007  0  0  -0.322661  0  3.4123  0  0  -0.295448  -0.306036  0  3.392018  0
