# generated using pymatgen
data_ZnH8C12N4Cl2O
_symmetry_space_group_name_H-M   'P 1'
_cell_length_a   7.32775022
_cell_length_b   11.74172816
_cell_length_c   16.15120548
_cell_angle_alpha   90.00010312
_cell_angle_beta   100.57058209
_cell_angle_gamma   89.99996281
_symmetry_Int_Tables_number   1
_chemical_formula_structural   ZnH8C12N4Cl2O
_chemical_formula_sum   'Zn4 H32 C48 N16 Cl8 O4'
_cell_volume   1366.07406464
_cell_formula_units_Z   4
loop_
 _symmetry_equiv_pos_site_id
 _symmetry_equiv_pos_as_xyz
  1  'x, y, z'
loop_
 _atom_site_type_symbol
 _atom_site_label
 _atom_site_symmetry_multiplicity
 _atom_site_fract_x
 _atom_site_fract_y
 _atom_site_fract_z
 _atom_site_occupancy
 _atom_site_hle17_bader_spin_density
 _atom_site_hle17_ddec_charge
 _atom_site_hle17_ddec_spin_density
 _atom_site_hle17_ddec_sum_bond_order
 _atom_site_hle17_magmom
 _atom_site_hse06_10hf_bader_spin_density
 _atom_site_hse06_10hf_ddec_charge
 _atom_site_hse06_10hf_ddec_spin_density
 _atom_site_hse06_10hf_ddec_sum_bond_order
 _atom_site_hse06_10hf_magmom
 _atom_site_hse06_bader_spin_density
 _atom_site_hse06_ddec_charge
 _atom_site_hse06_ddec_spin_density
 _atom_site_hse06_ddec_sum_bond_order
 _atom_site_hse06_magmom
 _atom_site_pbe_bader_spin_density
 _atom_site_pbe_cm5_charge
 _atom_site_pbe_ddec_charge
 _atom_site_pbe_ddec_spin_density
 _atom_site_pbe_ddec_sum_bond_order
 _atom_site_pbe_magmom
Zn  Zn0  1  0.23579482  0.75850903  0.51329777  1  0  0.8258  0  2.162172  0  0  0.651252  0  2.654543  0  0  0.689647  0  2.610254  0  0  0.556689  0.624813  0  2.684712  0
Zn  Zn1  1  0.73579812  0.74148697  0.01329854  1  0  0.825773  0  2.162247  0  0  0.651208  0  2.654634  0  0  0.689607  0  2.610347  0  0  0.556655  0.624765  0  2.684797  0
Zn  Zn2  1  0.76420341  0.24149130  0.48670227  1  0  0.825752  0  2.162251  0  0  0.651203  0  2.654624  0  0  0.689607  0  2.610342  0  0  0.556671  0.624764  0  2.684793  0
Zn  Zn3  1  0.26420707  0.25851081  0.98670086  1  0  0.825793  0  2.162257  0  0  0.651201  0  2.654625  0  0  0.689599  0  2.61034  0  0  0.556668  0.624764  0  2.684791  0
H  H4  1  0.31810292  0.99044158  0.45015777  1  0  0.081648  0  0.952377  0  0  0.085773  0  1.024993  0  0  0.088757  0  1.021894  0  0  0.107521  0.083556  0  1.027209  0
H  H5  1  0.81809457  0.50954951  0.95016269  1  0  0.081589  0  0.952389  0  0  0.085714  0  1.025018  0  0  0.088715  0  1.021902  0  0  0.107504  0.08349  0  1.027254  0
H  H6  1  0.68190230  0.00955535  0.54983916  1  0  0.081631  0  0.952379  0  0  0.085748  0  1.025004  0  0  0.088739  0  1.021899  0  0  0.107531  0.083522  0  1.027242  0
H  H7  1  0.18190226  0.49044742  0.04983785  1  0  0.081633  0  0.952364  0  0  0.085741  0  1.024986  0  0  0.088734  0  1.02188  0  0  0.107531  0.083511  0  1.027238  0
H  H8  1  0.15132516  0.14020464  0.35558469  1  0  0.125639  0  0.951505  0  0  0.131374  0  1.013615  0  0  0.134963  0  1.01255  0  0  0.1027  0.128774  0  1.014604  0
H  H9  1  0.65131527  0.35978782  0.85558747  1  0  0.125626  0  0.951544  0  0  0.131433  0  1.013535  0  0  0.135022  0  1.012473  0  0  0.102714  0.128833  0  1.014523  0
H  H10  1  0.84868145  0.85979143  0.64441235  1  0  0.125605  0  0.951563  0  0  0.131403  0  1.013577  0  0  0.134992  0  1.012512  0  0  0.102709  0.128803  0  1.014567  0
H  H11  1  0.34868017  0.64020995  0.14441357  1  0  0.125598  0  0.951556  0  0  0.131388  0  1.013578  0  0  0.134979  0  1.012513  0  0  0.102697  0.128787  0  1.014566  0
H  H12  1  0.82023868  0.10532880  0.28642621  1  0  0.114398  0  0.923792  0  0  0.12393  0  0.982265  0  0  0.127335  0  0.97935  0  0  0.113906  0.121393  0  0.984494  0
H  H13  1  0.32023251  0.39467109  0.78642722  1  0  0.114453  0  0.923871  0  0  0.123942  0  0.982364  0  0  0.127342  0  0.979453  0  0  0.11393  0.121416  0  0.984577  0
H  H14  1  0.17976653  0.89467238  0.71357196  1  0  0.114409  0  0.923772  0  0  0.123945  0  0.982247  0  0  0.127346  0  0.979334  0  0  0.113925  0.121419  0  0.984463  0
H  H15  1  0.67976432  0.60532925  0.21357394  1  0  0.114371  0  0.923813  0  0  0.123887  0  0.982303  0  0  0.127285  0  0.979395  0  0  0.113902  0.121359  0  0.984516  0
H  H16  1  0.85491304  0.78004565  0.41406159  1  0  0.088254  0  0.950842  0  0  0.093538  0  1.020647  0  0  0.09656  0  1.017632  0  0  0.11566  0.091351  0  1.02274  0
H  H17  1  0.35491951  0.71995640  0.91405975  1  0  0.088247  0  0.950837  0  0  0.093498  0  1.020678  0  0  0.09652  0  1.017663  0  0  0.115628  0.091314  0  1.022766  0
H  H18  1  0.14508097  0.21995809  0.58594180  1  0  0.08823  0  0.95086  0  0  0.093487  0  1.020691  0  0  0.096509  0  1.017675  0  0  0.115636  0.091303  0  1.022777  0
H  H19  1  0.64508427  0.28004563  0.08594077  1  0  0.088261  0  0.950823  0  0  0.093508  0  1.020666  0  0  0.09653  0  1.017652  0  0  0.115641  0.091324  0  1.022756  0
H  H20  1  0.98130323  0.89970660  0.18723420  1  0  0.10746  0  0.939008  0  0  0.115202  0  1.00239  0  0  0.118144  0  1.000086  0  0  0.108726  0.113017  0  1.004091  0
H  H21  1  0.48129166  0.60029569  0.68723436  1  0  0.107451  0  0.938921  0  0  0.115156  0  1.002346  0  0  0.118099  0  1.000043  0  0  0.108738  0.112973  0  1.004049  0
H  H22  1  0.01869913  0.10029458  0.81276805  1  0  0.107435  0  0.939007  0  0  0.115186  0  1.002363  0  0  0.118129  0  1.000057  0  0  0.108737  0.113005  0  1.00407  0
H  H23  1  0.51869963  0.39970379  0.31276508  1  0  0.107453  0  0.938942  0  0  0.115187  0  1.002324  0  0  0.11813  0  1.000021  0  0  0.108719  0.113003  0  1.00403  0
H  H24  1  0.75656078  0.01787296  0.08556358  1  0  0.11291  0  0.966485  0  0  0.116153  0  1.036205  0  0  0.119722  0  1.03522  0  0  0.096752  0.113543  0  1.037154  0
H  H25  1  0.25655319  0.48212817  0.58556335  1  0  0.112924  0  0.966436  0  0  0.116137  0  1.036199  0  0  0.119703  0  1.035219  0  0  0.096788  0.113529  0  1.037148  0
H  H26  1  0.24344298  0.98212993  0.91443818  1  0  0.112881  0  0.96646  0  0  0.116102  0  1.036202  0  0  0.119669  0  1.03522  0  0  0.096747  0.113492  0  1.03715  0
H  H27  1  0.74344225  0.51786961  0.41443707  1  0  0.112901  0  0.966448  0  0  0.116128  0  1.036186  0  0  0.119695  0  1.035205  0  0  0.096762  0.113519  0  1.037135  0
H  H28  1  0.42200421  0.10737012  0.12450586  1  0  0.087136  0  0.932635  0  0  0.093419  0  1.001491  0  0  0.096631  0  0.997682  0  0  0.118923  0.091011  0  1.00434  0
H  H29  1  0.92199845  0.39263359  0.62451028  1  0  0.08722  0  0.932629  0  0  0.093499  0  1.001453  0  0  0.096696  0  0.997663  0  0  0.118955  0.091089  0  1.0043  0
H  H30  1  0.57800105  0.89262255  0.87548859  1  0  0.087089  0  0.93271  0  0  0.093419  0  1.0015  0  0  0.096589  0  0.997737  0  0  0.118916  0.09101  0  1.004349  0
H  H31  1  0.07799980  0.60737271  0.37548791  1  0  0.087177  0  0.932618  0  0  0.093488  0  1.001428  0  0  0.096674  0  0.99765  0  0  0.118936  0.091079  0  1.004276  0
H  H32  1  0.88128329  0.17679237  0.00802419  1  0  0.081313  0  0.959293  0  0  0.085213  0  1.033301  0  0  0.087863  0  1.030552  0  0  0.106074  0.08319  0  1.035365  0
H  H33  1  0.38128132  0.32320851  0.50802548  1  0  0.081302  0  0.95926  0  0  0.085211  0  1.033268  0  0  0.087861  0  1.03052  0  0  0.106075  0.083187  0  1.035331  0
H  H34  1  0.11872048  0.82320881  0.99197694  1  0  0.081277  0  0.959284  0  0  0.085184  0  1.03329  0  0  0.087836  0  1.030545  0  0  0.106066  0.083159  0  1.035352  0
H  H35  1  0.61871829  0.67678927  0.49197530  1  0  0.081295  0  0.959303  0  0  0.085197  0  1.033311  0  0  0.087846  0  1.030564  0  0  0.106089  0.083172  0  1.035375  0
C  C36  1  0.17427259  0.97852084  0.41907030  1  0  0.145822  0  3.653505  0  0  0.107945  0  3.908272  0  0  0.116279  0  3.925773  0  0  0.051325  0.102713  0  3.896348  0
C  C37  1  0.67426844  0.52147364  0.91907250  1  0  0.146109  0  3.653364  0  0  0.108173  0  3.908174  0  0  0.116494  0  3.925673  0  0  0.051387  0.102939  0  3.896241  0
C  C38  1  0.82572704  0.02147865  0.58092863  1  0  0.14595  0  3.65357  0  0  0.108051  0  3.908365  0  0  0.11638  0  3.925865  0  0  0.051313  0.102818  0  3.896434  0
C  C39  1  0.32572838  0.47852329  0.08092865  1  0  0.146003  0  3.653618  0  0  0.108096  0  3.908356  0  0  0.116423  0  3.925857  0  0  0.051355  0.102859  0  3.896426  0
C  C40  1  0.08073844  0.06136960  0.36592820  1  0  -0.10454  0  3.70336  0  0  -0.115413  0  3.957242  0  0  -0.123749  0  3.9791  0  0  -0.078162  -0.110232  0  3.942761  0
C  C41  1  0.58073406  0.43862718  0.86593155  1  0  -0.104779  0  3.703532  0  0  -0.115704  0  3.957419  0  0  -0.124032  0  3.979251  0  0  -0.078248  -0.110529  0  3.942963  0
C  C42  1  0.91926539  0.93862989  0.63406861  1  0  -0.104659  0  3.703581  0  0  -0.115524  0  3.957406  0  0  -0.123858  0  3.979256  0  0  -0.078166  -0.110341  0  3.942926  0
C  C43  1  0.41926693  0.56137145  0.13406935  1  0  -0.104695  0  3.703589  0  0  -0.115592  0  3.957448  0  0  -0.123922  0  3.979283  0  0  -0.078194  -0.110406  0  3.942963  0
C  C44  1  0.89784525  0.04150689  0.32737775  1  0  -0.013389  0  3.668623  0  0  -0.045398  0  3.923665  0  0  -0.039964  0  3.939145  0  0  -0.054711  -0.048609  0  3.913185  0
C  C45  1  0.39784046  0.45849222  0.82737711  1  0  -0.013427  0  3.668567  0  0  -0.04536  0  3.923521  0  0  -0.03992  0  3.938999  0  0  -0.054708  -0.048583  0  3.913038  0
C  C46  1  0.10215576  0.95849515  0.67262191  1  0  -0.013386  0  3.668494  0  0  -0.045431  0  3.923553  0  0  -0.039993  0  3.93903  0  0  -0.054727  -0.04865  0  3.91307  0
C  C47  1  0.60215914  0.54150641  0.17262428  1  0  -0.013268  0  3.668607  0  0  -0.045277  0  3.923632  0  0  -0.039834  0  3.939112  0  0  -0.054707  -0.048494  0  3.913141  0
C  C48  1  0.81325660  0.93825737  0.34289066  1  0  -0.062169  0  3.801547  0  0  -0.040377  0  4.03655  0  0  -0.049143  0  4.060679  0  0  -0.000958  -0.035542  0  4.02146  0
C  C49  1  0.31325339  0.56174367  0.84289025  1  0  -0.062165  0  3.801503  0  0  -0.040429  0  4.036464  0  0  -0.049197  0  4.060593  0  0  -0.000978  -0.035593  0  4.021377  0
C  C50  1  0.18674440  0.06174552  0.65711024  1  0  -0.062108  0  3.801394  0  0  -0.040313  0  4.036412  0  0  -0.049079  0  4.06054  0  0  -0.000954  -0.035479  0  4.021329  0
C  C51  1  0.68674342  0.43825667  0.15711152  1  0  -0.062276  0  3.801667  0  0  -0.040498  0  4.036648  0  0  -0.049266  0  4.060773  0  0  -0.00096  -0.035664  0  4.021562  0
C  C52  1  0.91580029  0.86000063  0.39807212  1  0  0.116484  0  3.64051  0  0  0.07875  0  3.880155  0  0  0.086362  0  3.897539  0  0  0.059089  0.074149  0  3.868173  0
C  C53  1  0.41580261  0.63999795  0.89807105  1  0  0.11647  0  3.640708  0  0  0.078769  0  3.880334  0  0  0.086381  0  3.897716  0  0  0.059106  0.074169  0  3.86835  0
C  C54  1  0.08419792  0.14000141  0.60192916  1  0  0.116419  0  3.640631  0  0  0.078729  0  3.880283  0  0  0.08634  0  3.897665  0  0  0.059066  0.074129  0  3.8683  0
C  C55  1  0.58419842  0.36000238  0.10192737  1  0  0.116469  0  3.640655  0  0  0.078756  0  3.880243  0  0  0.086368  0  3.897627  0  0  0.059072  0.074155  0  3.868264  0
C  C56  1  0.62258638  0.91290590  0.30491241  1  0  0.355949  0  3.738841  0  0  0.320167  0  4.020466  0  0  0.336946  0  4.030833  0  0  0.220015  0.309094  0  4.013267  0
C  C57  1  0.12258315  0.58709683  0.80491265  1  0  0.355892  0  3.738905  0  0  0.320175  0  4.020456  0  0  0.336951  0  4.030821  0  0  0.219977  0.309104  0  4.013258  0
C  C58  1  0.37741321  0.08709869  0.69509023  1  0  0.355941  0  3.738719  0  0  0.320114  0  4.020409  0  0  0.336891  0  4.030773  0  0  0.219914  0.309043  0  4.013212  0
C  C59  1  0.87741228  0.41290095  0.19508900  1  0  0.355981  0  3.738724  0  0  0.320206  0  4.020352  0  0  0.336986  0  4.030715  0  0  0.219933  0.309135  0  4.013156  0
C  C60  1  0.35645017  0.93881857  0.22684302  1  0  0.361851  0  3.722914  0  0  0.327098  0  4.004568  0  0  0.343709  0  4.014994  0  0  0.222974  0.316095  0  3.997491  0
C  C61  1  0.85644462  0.56118387  0.72684454  1  0  0.361867  0  3.722837  0  0  0.327149  0  4.004448  0  0  0.343755  0  4.014878  0  0  0.222985  0.316146  0  3.997373  0
C  C62  1  0.64355222  0.06118176  0.77315799  1  0  0.36182  0  3.722874  0  0  0.327082  0  4.004549  0  0  0.343691  0  4.014972  0  0  0.222979  0.316078  0  3.997475  0
C  C63  1  0.14355221  0.43881646  0.27315662  1  0  0.362065  0  3.722794  0  0  0.327261  0  4.004469  0  0  0.343867  0  4.014899  0  0  0.223027  0.316256  0  3.997398  0
C  C64  1  0.21836430  0.99830125  0.16657562  1  0  -0.055312  0  3.78002  0  0  -0.033532  0  4.013675  0  0  -0.042218  0  4.037276  0  0  0.00101  -0.028437  0  3.998291  0
C  C65  1  0.71835600  0.50170365  0.66657744  1  0  -0.055444  0  3.780318  0  0  -0.033661  0  4.013883  0  0  -0.042343  0  4.037485  0  0  0.001025  -0.028563  0  3.998498  0
C  C66  1  0.78163811  0.00169653  0.83342354  1  0  -0.055323  0  3.779992  0  0  -0.033581  0  4.01369  0  0  -0.04228  0  4.037312  0  0  0.000905  -0.028485  0  3.99831  0
C  C67  1  0.28163806  0.49829923  0.33342286  1  0  -0.055413  0  3.780263  0  0  -0.033553  0  4.013805  0  0  -0.042222  0  4.03738  0  0  0.001  -0.028455  0  3.998424  0
C  C68  1  0.02869372  0.97134442  0.15391179  1  0  -0.003979  0  3.656109  0  0  -0.03171  0  3.901439  0  0  -0.026698  0  3.919482  0  0  -0.052004  -0.034508  0  3.889018  0
C  C69  1  0.52868956  0.52865797  0.65391401  1  0  -0.003921  0  3.656148  0  0  -0.031616  0  3.901494  0  0  -0.026608  0  3.91954  0  0  -0.052039  -0.034418  0  3.889081  0
C  C70  1  0.97130316  0.02865676  0.84608566  1  0  -0.003919  0  3.655867  0  0  -0.031642  0  3.901199  0  0  -0.026628  0  3.91924  0  0  -0.051958  -0.034452  0  3.888797  0
C  C71  1  0.47130311  0.47134236  0.34608556  1  0  -0.003971  0  3.656057  0  0  -0.031711  0  3.901375  0  0  -0.026704  0  3.919426  0  0  -0.051991  -0.034513  0  3.888964  0
C  C72  1  0.90484157  0.03662657  0.09748852  1  0  -0.120793  0  3.711455  0  0  -0.130667  0  3.965553  0  0  -0.139973  0  3.987689  0  0  -0.083416  -0.12482  0  3.950802  0
C  C73  1  0.40483257  0.46337367  0.59749062  1  0  -0.120724  0  3.711241  0  0  -0.130565  0  3.96535  0  0  -0.139868  0  3.987487  0  0  -0.0834  -0.124718  0  3.950602  0
C  C74  1  0.09516223  0.96337206  0.90251014  1  0  -0.120744  0  3.711139  0  0  -0.130573  0  3.965223  0  0  -0.139875  0  3.987359  0  0  -0.083379  -0.124722  0  3.950473  0
C  C75  1  0.59516288  0.53662496  0.40250918  1  0  -0.120735  0  3.711138  0  0  -0.130575  0  3.965212  0  0  -0.139882  0  3.987351  0  0  -0.083384  -0.124728  0  3.950464  0
C  C76  1  0.27544640  0.08663810  0.11907195  1  0  0.13657  0  3.633017  0  0  0.089034  0  3.88581  0  0  0.098358  0  3.90078  0  0  0.061324  0.083167  0  3.875555  0
C  C77  1  0.77544066  0.41336480  0.61907392  1  0  0.136524  0  3.633263  0  0  0.089064  0  3.88596  0  0  0.098395  0  3.900938  0  0  0.061363  0.083198  0  3.875706  0
C  C78  1  0.72455882  0.91335882  0.88092559  1  0  0.136708  0  3.633047  0  0  0.089186  0  3.885833  0  0  0.098539  0  3.900827  0  0  0.061443  0.08332  0  3.875583  0
C  C79  1  0.22455620  0.58663809  0.38092477  1  0  0.136543  0  3.633069  0  0  0.088994  0  3.885839  0  0  0.098331  0  3.900821  0  0  0.061352  0.083135  0  3.875569  0
C  C80  1  0.97269922  0.12439893  0.05366789  1  0  0.14806  0  3.677851  0  0  0.10801  0  3.936394  0  0  0.117356  0  3.952921  0  0  0.053742  0.102072  0  3.925153  0
C  C81  1  0.47269445  0.37560203  0.55366839  1  0  0.14804  0  3.677616  0  0  0.107983  0  3.936205  0  0  0.117326  0  3.952733  0  0  0.05373  0.102049  0  3.924963  0
C  C82  1  0.02730458  0.87559970  0.94633139  1  0  0.14808  0  3.67785  0  0  0.108024  0  3.936409  0  0  0.11736  0  3.952947  0  0  0.053705  0.102092  0  3.925158  0
C  C83  1  0.52730378  0.62439746  0.44633166  1  0  0.148054  0  3.677744  0  0  0.108013  0  3.93629  0  0  0.117356  0  3.952823  0  0  0.053697  0.102078  0  3.925046  0
N  N84  1  0.09218704  0.88014949  0.43509340  1  0  -0.309228  0  3.331133  0  0  -0.223637  0  3.606746  0  0  -0.242827  0  3.623124  0  0  -0.329553  -0.210805  0  3.595296  0
N  N85  1  0.59218564  0.61984761  0.93509411  1  0  -0.309268  0  3.331212  0  0  -0.22363  0  3.606767  0  0  -0.242825  0  3.623159  0  0  -0.329536  -0.210792  0  3.595309  0
N  N86  1  0.90781258  0.11984999  0.56490615  1  0  -0.309189  0  3.331182  0  0  -0.223622  0  3.6068  0  0  -0.242816  0  3.62319  0  0  -0.329513  -0.210787  0  3.595348  0
N  N87  1  0.40781537  0.38015273  0.06490555  1  0  -0.309248  0  3.331298  0  0  -0.223556  0  3.60674  0  0  -0.242757  0  3.623149  0  0  -0.329522  -0.210721  0  3.59529  0
N  N88  1  0.51601172  0.82898474  0.32093039  1  0  -0.267916  0  2.890709  0  0  -0.247663  0  3.173744  0  0  -0.258527  0  3.18825  0  0  -0.218613  -0.240268  0  3.163804  0
N  N89  1  0.01601260  0.67101808  0.82093172  1  0  -0.267808  0  2.89075  0  0  -0.247567  0  3.17375  0  0  -0.258428  0  3.188254  0  0  -0.218573  -0.24017  0  3.163809  0
N  N90  1  0.48398786  0.17101901  0.67907224  1  0  -0.267834  0  2.890639  0  0  -0.247557  0  3.173669  0  0  -0.258418  0  3.188174  0  0  -0.218523  -0.240161  0  3.163729  0
N  N91  1  0.98398700  0.32898055  0.17906967  1  0  -0.267871  0  2.890593  0  0  -0.247616  0  3.17362  0  0  -0.258479  0  3.188124  0  0  -0.218573  -0.240221  0  3.163681  0
N  N92  1  0.34291212  0.84616787  0.27068177  1  0  -0.256769  0  2.866899  0  0  -0.244187  0  3.152101  0  0  -0.253403  0  3.165181  0  0  -0.221914  -0.237989  0  3.143193  0
N  N93  1  0.84290789  0.65383639  0.77068477  1  0  -0.256834  0  2.866716  0  0  -0.24428  0  3.151922  0  0  -0.253495  0  3.165  0  0  -0.221916  -0.23808  0  3.143015  0
N  N94  1  0.65709025  0.15383502  0.72931986  1  0  -0.256797  0  2.866812  0  0  -0.244228  0  3.152012  0  0  -0.253441  0  3.165088  0  0  -0.221931  -0.238027  0  3.143104  0
N  N95  1  0.15708893  0.34616480  0.22931639  1  0  -0.25689  0  2.866801  0  0  -0.244304  0  3.152022  0  0  -0.253522  0  3.165103  0  0  -0.221935  -0.238103  0  3.143115  0
N  N96  1  0.15566732  0.14693838  0.06342696  1  0  -0.310298  0  3.34208  0  0  -0.222248  0  3.616624  0  0  -0.241783  0  3.631844  0  0  -0.329493  -0.209183  0  3.60604  0
N  N97  1  0.65566021  0.35306443  0.56342997  1  0  -0.31031  0  3.342139  0  0  -0.222318  0  3.616711  0  0  -0.241852  0  3.631932  0  0  -0.329582  -0.209253  0  3.606122  0
N  N98  1  0.84433929  0.85305769  0.93657070  1  0  -0.310372  0  3.342053  0  0  -0.222396  0  3.616696  0  0  -0.241924  0  3.631894  0  0  -0.329536  -0.209328  0  3.606103  0
N  N99  1  0.34433802  0.64693761  0.43657007  1  0  -0.310293  0  3.341996  0  0  -0.222308  0  3.616624  0  0  -0.241839  0  3.631835  0  0  -0.329547  -0.209242  0  3.606039  0
Cl  Cl100  1  0.01081682  0.66072966  0.55922975  1  0  -0.567386  0  0.937965  0  0  -0.506961  0  1.215346  0  0  -0.522463  0  1.195238  0  0  -0.31809  -0.495597  0  1.229043  0
Cl  Cl101  1  0.51081732  0.83926825  0.05922856  1  0  -0.567359  0  0.937935  0  0  -0.50693  0  1.21531  0  0  -0.522432  0  1.1952  0  0  -0.31809  -0.495568  0  1.229004  0
Cl  Cl102  1  0.98918418  0.33926897  0.44077053  1  0  -0.567375  0  0.937958  0  0  -0.506938  0  1.21531  0  0  -0.522443  0  1.195206  0  0  -0.318089  -0.495574  0  1.229006  0
Cl  Cl103  1  0.48918924  0.16072953  0.94077220  1  0  -0.56738  0  0.93796  0  0  -0.506953  0  1.215341  0  0  -0.522453  0  1.195233  0  0  -0.318096  -0.495588  0  1.229038  0
Cl  Cl104  1  0.47309881  0.83225974  0.60154178  1  0  -0.552321  0  0.959565  0  0  -0.493804  0  1.240993  0  0  -0.507961  0  1.217618  0  0  -0.311795  -0.483311  0  1.256886  0
Cl  Cl105  1  0.97309796  0.66773894  0.10154396  1  0  -0.552321  0  0.959608  0  0  -0.49379  0  1.241026  0  0  -0.507955  0  1.217662  0  0  -0.311787  -0.483304  0  1.256925  0
Cl  Cl106  1  0.52690079  0.16773975  0.39845900  1  0  -0.552324  0  0.959609  0  0  -0.493804  0  1.241037  0  0  -0.507964  0  1.217667  0  0  -0.311796  -0.483309  0  1.256925  0
Cl  Cl107  1  0.02690301  0.33226224  0.89845879  1  0  -0.552316  0  0.959611  0  0  -0.493799  0  1.241048  0  0  -0.507956  0  1.217669  0  0  -0.311789  -0.483297  0  1.256929  0
O  O108  1  0.53088703  0.98533130  0.24538872  1  0  -0.265185  0  2.342945  0  0  -0.191249  0  2.561562  0  0  -0.209906  0  2.563944  0  0  -0.097707  -0.178629  0  2.559656  0
O  O109  1  0.03087966  0.51467302  0.74538975  1  0  -0.26512  0  2.342875  0  0  -0.191239  0  2.561485  0  0  -0.20989  0  2.563859  0  0  -0.097711  -0.17862  0  2.559581  0
O  O110  1  0.46911536  0.01467159  0.75461168  1  0  -0.26522  0  2.343018  0  0  -0.191281  0  2.561655  0  0  -0.209933  0  2.564028  0  0  -0.097687  -0.178661  0  2.55975  0
O  O111  1  0.96911716  0.48532731  0.25461202  1  0  -0.265234  0  2.342893  0  0  -0.191321  0  2.561552  0  0  -0.209974  0  2.563923  0  0  -0.097692  -0.178701  0  2.559647  0
