# generated using pymatgen
data_Cu5As2H12C12(SO8)2
_symmetry_space_group_name_H-M   'P 1'
_cell_length_a   6.22478047
_cell_length_b   7.30957664
_cell_length_c   12.00113141
_cell_angle_alpha   85.83959427
_cell_angle_beta   80.29424974
_cell_angle_gamma   73.88860421
_symmetry_Int_Tables_number   1
_chemical_formula_structural   Cu5As2H12C12(SO8)2
_chemical_formula_sum   'Cu5 As2 H12 C12 S2 O16'
_cell_volume   516.91021585
_cell_formula_units_Z   1
loop_
 _symmetry_equiv_pos_site_id
 _symmetry_equiv_pos_as_xyz
  1  'x, y, z'
loop_
 _atom_site_type_symbol
 _atom_site_label
 _atom_site_symmetry_multiplicity
 _atom_site_fract_x
 _atom_site_fract_y
 _atom_site_fract_z
 _atom_site_occupancy
 _atom_site_hle17_ddec_charge
 _atom_site_hle17_ddec_spin_density
 _atom_site_hle17_ddec_sum_bond_order
 _atom_site_hle17_magmom
 _atom_site_hse06_10hf_bader_charge
 _atom_site_hse06_10hf_bader_spin_density
 _atom_site_hse06_10hf_ddec_charge
 _atom_site_hse06_10hf_ddec_spin_density
 _atom_site_hse06_10hf_ddec_sum_bond_order
 _atom_site_hse06_10hf_magmom
 _atom_site_hse06_ddec_charge
 _atom_site_hse06_ddec_spin_density
 _atom_site_hse06_ddec_sum_bond_order
 _atom_site_hse06_magmom
 _atom_site_pbe_cm5_charge
 _atom_site_pbe_ddec_charge
 _atom_site_pbe_ddec_spin_density
 _atom_site_pbe_ddec_sum_bond_order
 _atom_site_pbe_magmom
Cu  Cu0  1  0.04294569  0.67705582  0.12569481  1  1.073705  -0.674457  1.669869  -0.515  1.177537  -0.659269  1.096587  -0.788692  2.059144  -0.657  1.189858  -0.863228  1.988184  -0.745  0.693211  1.021017  -0.712872  2.12769  -0.581
Cu  Cu1  1  0.95922712  0.32221740  0.87286244  1  1.068715  0.645894  1.677103  0.484  1.174386  0.648412  1.091024  0.786007  2.068273  0.646  1.187191  0.874605  1.994662  0.742  0.689869  1.012621  0.672041  2.138314  0.543
Cu  Cu2  1  0.49708385  0.50045586  0.00082787  1  1.115638  -0.649563  1.72732  -0.491  1.193322  -0.651791  1.131239  -0.789557  2.128997  -0.65  1.220082  -0.863596  2.058143  -0.737  0.704494  1.052259  -0.675178  2.201885  -0.544
Cu  Cu3  1  0.24690192  0.91684396  0.90840666  1  1.080469  0.672106  1.734114  0.5  1.176668  0.650798  1.08669  0.792716  2.141114  0.649  1.1822  0.873094  2.057828  0.738  0.68229  1.019113  0.685062  2.207615  0.55
Cu  Cu4  1  0.75259871  0.08496195  0.08972294  1  1.072158  -0.691617  1.714549  -0.524  1.176071  -0.655697  1.077871  -0.789918  2.120364  -0.654  1.175975  -0.860806  2.03544  -0.739  0.677371  1.008952  -0.722789  2.187985  -0.585
As  As5  1  0.19735574  0.21482887  0.14430635  1  1.577385  -0.009863  3.834949  -0.007  2.277746  -0.015837  1.552072  -0.021648  4.261995  -0.017  1.610215  -0.017609  4.234084  -0.015  0.600178  1.508926  -0.024656  4.279887  -0.018
As  As6  1  0.80183703  0.78288310  0.85629308  1  1.566835  2.1e-05  3.821312  -0.001  2.270001  0.00488  1.541886  0.007399  4.251042  0.005  1.600156  0.006137  4.22443  0.004  0.597234  1.497889  0.007931  4.266594  0.005
H  H7  1  0.67901741  0.47591059  0.51274573  1  0.106964  5e-06  0.960246  0.0  0.112649  -4.5e-05  0.115974  1e-05  1.023312  0.0  0.118807  0.0  1.022242  0.0  0.107791  0.113656  2.5e-05  1.024598  0.0
H  H8  1  0.32266337  0.52581799  0.48738602  1  0.107687  -4.5e-05  0.960509  0.0  0.130781  -1e-05  0.116125  -4.8e-05  1.024331  0.0  0.11907  -3.2e-05  1.023084  0.0  0.107722  0.11378  -6.2e-05  1.025635  0.0
H  H9  1  0.93092350  0.25904429  0.63285856  1  0.096517  0.000372  0.952617  0.0  0.111896  0.000414  0.102633  0.000373  1.022372  0.0  0.106578  0.000254  1.018306  0.0  0.101935  0.099899  0.000451  1.025181  0.0
H  H10  1  0.06940086  0.74166978  0.36749236  1  0.096646  -0.00025  0.950963  0.0  0.116507  -0.000423  0.102614  -0.000355  1.020628  0.0  0.106567  -0.000244  1.016588  0.0  0.102043  0.0999  -0.00044  1.023458  0.0
H  H11  1  0.28707769  0.03237327  0.54372507  1  0.103116  4.6e-05  0.928341  0.0  0.090687  5.1e-05  0.117717  9.2e-05  0.979318  0.0  0.120325  7.1e-05  0.978671  0.0  0.110056  0.115729  0.000106  0.980067  0.0
H  H12  1  0.71159930  0.96612765  0.45685025  1  0.103201  -0.000147  0.929165  0.0  0.071217  -0.000253  0.117739  -0.000174  0.980355  0.0  0.120419  -0.000122  0.979609  0.0  0.110316  0.115765  -0.000209  0.981081  0.0
H  H13  1  0.38134277  0.01864430  0.33495159  1  0.110619  2.2e-05  0.97746  0.0  0.145373  -0.000134  0.117637  -8.9e-05  1.042218  0.0  0.121662  -6e-05  1.039203  0.0  0.106408  0.114644  -0.000106  1.044624  0.0
H  H14  1  0.61631590  0.97777097  0.66567798  1  0.11071  -2.6e-05  0.976494  0.0  0.140544  -7e-06  0.117855  2.7e-05  1.041069  0.0  0.12189  1.7e-05  1.038042  0.0  0.106439  0.114706  2.7e-05  1.043653  0.0
H  H15  1  0.60865774  0.16629956  0.91279958  1  0.424781  0.000495  0.86039  0.001  0.657235  0.000352  0.40359  -0.000149  0.926262  0.0  0.418032  -8.6e-05  0.906222  0.0  0.285938  0.392698  -0.000222  0.938945  0.0
H  H16  1  0.39171614  0.83447232  0.08601819  1  0.424949  1.7e-05  0.862287  0.001  0.664328  -0.000266  0.404468  -0.000696  0.925412  -0.001  0.418973  -0.000501  0.905068  -0.001  0.286222  0.39371  -0.000736  0.939332  -0.001
H  H17  1  0.75170909  0.86711636  0.25226672  1  0.397347  0.001303  0.902178  0.005  0.63547  0.001047  0.377398  -0.000678  0.965563  0.0  0.388502  -0.000314  0.95066  0.001  0.279524  0.36962  -0.000971  0.976014  0.0
H  H18  1  0.24973717  0.13355133  0.74603897  1  0.396963  -0.001182  0.903355  -0.004  0.626  -0.001055  0.376389  0.000656  0.967553  0.0  0.387398  0.000295  0.952765  -0.001  0.279478  0.368783  0.000917  0.977758  0.0
C  C19  1  0.08232600  0.23773008  0.30575025  1  -0.206821  -0.006169  3.67518  -0.007  -0.342555  -0.007367  -0.200035  -0.004205  3.93797  -0.005  -0.209489  -0.00288  3.965492  -0.004  -0.035497  -0.193658  -0.00502  3.919948  -0.006
C  C20  1  0.91670688  0.76028679  0.69464532  1  -0.208505  -0.002138  3.677436  -0.002  -0.314087  -0.002218  -0.20098  -0.001606  3.939517  -0.002  -0.210066  -0.001489  3.966962  -0.002  -0.036255  -0.195483  -0.001134  3.922215  -0.001
C  C21  1  0.88266941  0.36608992  0.35582110  1  -0.118099  -0.000248  3.776578  0.0  -0.208088  -0.000589  -0.098788  -0.000277  4.027126  0.0  -0.104548  -6.5e-05  4.05225  0.0  -0.018008  -0.095237  -0.000551  4.010551  -0.001
C  C22  1  0.11758680  0.63366944  0.64441950  1  -0.118207  -0.000671  3.780955  0.0  -0.210223  -0.000366  -0.098008  -0.000308  4.030242  0.0  -0.103908  -0.000314  4.055521  0.0  -0.017887  -0.094468  -0.00029  4.013916  0.0
C  C23  1  0.83077739  0.37325464  0.47369076  1  -0.050198  -0.000234  3.71095  0.0  0.023406  1e-05  -0.07232  -3.5e-05  3.953205  0.0  -0.073606  5.3e-05  3.975263  0.0  -0.077221  -0.071526  -0.000209  3.938747  0.0
C  C24  1  0.17001268  0.62734307  0.52655146  1  -0.050292  -0.000101  3.710046  0.0  0.005567  -0.000106  -0.072718  -5.4e-05  3.952644  0.0  -0.07396  -2e-05  3.974613  0.0  -0.076745  -0.071874  -4.4e-05  3.938087  0.0
C  C25  1  0.97536399  0.25373629  0.54118125  1  -0.027256  -0.001522  3.704607  -0.001  -0.056325  -0.000158  -0.041815  -2.1e-05  3.952904  0.0  -0.042827  6.3e-05  3.97274  0.0  -0.074811  -0.0409  -0.000233  3.939131  0.0
C  C26  1  0.02477980  0.74637059  0.45918387  1  -0.027335  -0.001085  3.705494  -0.001  -0.058794  -0.00116  -0.041434  -0.000764  3.954315  -0.001  -0.04229  -0.000552  3.973935  -0.001  -0.074799  -0.040515  -0.000871  3.940356  -0.001
C  C27  1  0.17427967  0.12749593  0.49137079  1  -0.028511  5.4e-05  3.6846  0.0  -0.018966  0.000104  -0.040945  0.000127  3.928112  0.0  -0.041433  0.000168  3.94656  0.0  -0.073128  -0.040696  2.8e-05  3.915721  0.0
C  C28  1  0.82491449  0.87135607  0.50908164  1  -0.028636  -3e-05  3.687307  0.0  0.01127  -0.000417  -0.041922  -0.000313  3.93178  0.0  -0.042305  -0.000219  3.950016  0.0  -0.073156  -0.041641  -0.000356  3.919294  0.0
C  C29  1  0.22810458  0.11927972  0.37403038  1  -0.035776  -0.00091  3.737936  -0.001  0.05734  -0.001131  -0.058118  -0.000807  3.990942  -0.001  -0.057552  -0.000539  4.01105  0.0  -0.076933  -0.058553  -0.001093  3.977618  -0.001
C  C30  1  0.77047546  0.87843032  0.62646002  1  -0.033884  -0.000818  3.73705  -0.001  0.026315  -0.000709  -0.055878  -0.000378  3.989555  -0.001  -0.055419  -0.0003  4.009739  0.0  -0.076766  -0.056273  -0.000373  3.976491  -0.001
S  S31  1  0.67686867  0.51947614  0.28000899  1  1.272998  0.002244  5.646036  0.003  3.219907  7.3e-05  1.183333  -0.000977  6.169728  0.001  1.235099  -0.000775  6.147848  0.0  0.510338  1.147724  -0.001339  6.18145  0.001
S  S32  1  0.32344928  0.48169378  0.72060303  1  1.2728  -0.001874  5.640481  -0.003  3.213135  -0.000241  1.183071  0.000894  6.163544  -0.001  1.234608  0.000794  6.141751  0.0  0.510064  1.147724  0.001047  6.175324  -0.001
O  O33  1  0.24989621  0.42916377  0.09086049  1  -0.893506  -0.098585  2.087129  -0.135  -1.10949  -0.116741  -0.882206  -0.072647  2.459933  -0.104  -0.934728  -0.058746  2.431953  -0.088  -0.468435  -0.839383  -0.07602  2.477358  -0.105
O  O34  1  0.75164411  0.56839895  0.91342015  1  -0.870414  0.000981  2.050682  0.001  -1.096833  -0.000136  -0.864733  -0.000663  2.421345  0.0  -0.920517  -0.000682  2.396151  -0.001  -0.458283  -0.817336  0.000764  2.435716  0.002
O  O35  1  0.03676382  0.16235772  0.05418572  1  -0.877238  -0.08049  1.906129  -0.107  -1.11799  -0.084459  -0.868284  -0.052254  2.243969  -0.073  -0.915955  -0.039478  2.216671  -0.057  -0.435118  -0.83154  -0.060518  2.262007  -0.082
O  O36  1  0.96369217  0.83869639  0.94460071  1  -0.87644  0.069761  1.907848  0.091  -1.119714  0.072472  -0.86976  0.045455  2.247291  0.063  -0.917363  0.035714  2.220314  0.051  -0.434709  -0.830926  0.049521  2.263845  0.067
O  O37  1  0.45039577  0.03937560  0.13150752  1  -0.846358  -0.07122  1.78439  -0.098  -1.124751  -0.075112  -0.811494  -0.045953  2.067841  -0.066  -0.852775  -0.034516  2.0434  -0.052  -0.425006  -0.782694  -0.052484  2.08564  -0.073
O  O38  1  0.54964077  0.95961427  0.86837578  1  -0.845693  0.0668  1.786711  0.089  -1.124508  0.072979  -0.812394  0.045798  2.072165  0.065  -0.853427  0.035726  2.048138  0.053  -0.425143  -0.781739  0.047568  2.088025  0.065
O  O39  1  0.80144464  0.54068530  0.16240404  1  -0.7067  -0.062502  2.148035  -0.089  -1.312148  -0.074369  -0.687816  -0.045453  2.484061  -0.069  -0.723875  -0.033749  2.462372  -0.054  -0.348255  -0.659977  -0.05141  2.496958  -0.075
O  O40  1  0.19753557  0.46065588  0.83802178  1  -0.708935  0.05587  2.151359  0.077  -1.310801  0.06931  -0.690187  0.043125  2.488921  0.064  -0.726551  0.033562  2.467234  0.052  -0.348991  -0.662213  0.044506  2.501727  0.064
O  O41  1  0.50537893  0.42106483  0.27598884  1  -0.619733  -0.016944  1.966168  -0.024  -1.333555  -0.015988  -0.596019  -0.009688  2.244033  -0.015  -0.622158  -0.005219  2.230483  -0.009  -0.319141  -0.57589  -0.01365  2.250859  -0.02
O  O42  1  0.49376282  0.58100557  0.72544161  1  -0.622267  0.015689  1.966172  0.021  -1.333733  0.015661  -0.599037  0.009754  2.245676  0.015  -0.624806  0.005717  2.231818  0.009  -0.319177  -0.579216  0.012235  2.25267  0.017
O  O43  1  0.59766374  0.70128036  0.33724446  1  -0.632583  -0.001291  1.989031  -0.002  -1.353506  -0.001345  -0.572345  -0.000643  2.226319  -0.001  -0.595149  0.000175  2.214712  0.0  -0.317423  -0.556007  -0.001792  2.233481  -0.003
O  O44  1  0.40464554  0.29977590  0.66355370  1  -0.631227  0.000656  1.986878  0.001  -1.352567  0.000758  -0.570183  0.000284  2.222916  0.001  -0.59288  -0.000353  2.211534  0.0  -0.316818  -0.554053  0.001071  2.229955  0.002
O  O45  1  0.67882058  0.24578832  0.95247967  1  -0.895472  -0.076885  2.020806  -0.104  -1.158379  -0.078715  -0.897163  -0.04903  2.36267  -0.071  -0.969926  -0.038685  2.326898  -0.058  -0.571101  -0.839863  -0.053726  2.385939  -0.075
O  O46  1  0.32101526  0.75793361  0.04446638  1  -0.904141  -0.075406  2.037734  -0.106  -1.170016  -0.085745  -0.905107  -0.05253  2.379266  -0.08  -0.975276  -0.041079  2.34259  -0.066  -0.575085  -0.847955  -0.056439  2.403181  -0.082
O  O47  1  0.87696648  0.90552534  0.20323021  1  -0.856608  -0.208969  1.86933  -0.282  -1.143966  -0.203511  -0.881105  -0.124151  2.188624  -0.179  -0.950152  -0.092333  2.159867  -0.139  -0.586864  -0.833875  -0.140464  2.210954  -0.195
O  O48  1  0.12430919  0.09442431  0.79449110  1  -0.859368  0.202907  1.875229  0.269  -1.134364  0.198047  -0.883119  0.12204  2.196666  0.174  -0.950668  0.092145  2.166959  0.137  -0.588169  -0.835624  0.132955  2.218796  0.184
