# generated using pymatgen
data_Cd3H50C54(N3O4)4
_symmetry_space_group_name_H-M   'P 1'
_cell_length_a   8.48187005
_cell_length_b   10.52070690
_cell_length_c   16.33952907
_cell_angle_alpha   97.04994652
_cell_angle_beta   101.78945543
_cell_angle_gamma   101.06601056
_symmetry_Int_Tables_number   1
_chemical_formula_structural   Cd3H50C54(N3O4)4
_chemical_formula_sum   'Cd3 H50 C54 N12 O16'
_cell_volume   1380.71949795
_cell_formula_units_Z   1
loop_
 _symmetry_equiv_pos_site_id
 _symmetry_equiv_pos_as_xyz
  1  'x, y, z'
loop_
 _atom_site_type_symbol
 _atom_site_label
 _atom_site_symmetry_multiplicity
 _atom_site_fract_x
 _atom_site_fract_y
 _atom_site_fract_z
 _atom_site_occupancy
 _atom_site_hle17_bader_spin_density
 _atom_site_hle17_ddec_charge
 _atom_site_hle17_ddec_spin_density
 _atom_site_hle17_ddec_sum_bond_order
 _atom_site_hle17_magmom
 _atom_site_hse06_10hf_bader_spin_density
 _atom_site_hse06_10hf_ddec_charge
 _atom_site_hse06_10hf_ddec_spin_density
 _atom_site_hse06_10hf_ddec_sum_bond_order
 _atom_site_hse06_10hf_magmom
 _atom_site_hse06_bader_spin_density
 _atom_site_hse06_ddec_charge
 _atom_site_hse06_ddec_spin_density
 _atom_site_hse06_ddec_sum_bond_order
 _atom_site_hse06_magmom
 _atom_site_pbe_bader_spin_density
 _atom_site_pbe_cm5_charge
 _atom_site_pbe_ddec_charge
 _atom_site_pbe_ddec_spin_density
 _atom_site_pbe_ddec_sum_bond_order
 _atom_site_pbe_magmom
Cd  Cd0  1  0.49999977  0.50000326  0.49999777  1  0  1.16208  0  1.653446  0  0  0.977919  0  2.089765  0  0  1.031475  0  2.038493  0  0  0.76995  0.939672  0  2.125191  0
Cd  Cd1  1  0.43541179  0.35949503  0.11411557  1  0  1.171986  0  1.717456  0  0  0.991058  0  2.174028  0  0  1.043336  0  2.120492  0  0  0.787484  0.95399  0  2.210619  0
Cd  Cd2  1  0.56458387  0.64050676  0.88588778  1  0  1.171994  0  1.717433  0  0  0.991083  0  2.174004  0  0  1.043361  0  2.120466  0  0  0.787484  0.954046  0  2.210513  0
H  H3  1  0.50460672  0.39090701  0.77079198  1  0  0.094171  0  0.996171  0  0  0.103112  0  1.065179  0  0  0.106298  0  1.06221  0  0  0.103945  0.100975  0  1.066911  0
H  H4  1  0.49539640  0.60909956  0.22920701  1  0  0.09407  0  0.996096  0  0  0.10302  0  1.065111  0  0  0.106206  0  1.062141  0  0  0.10387  0.100883  0  1.066869  0
H  H5  1  0.54313912  0.02128334  0.64034899  1  0  0.113403  0  0.942894  0  0  0.118819  0  1.011723  0  0  0.12395  0  1.006208  0  0  0.106333  0.114887  0  1.016083  0
H  H6  1  0.45686194  0.97872031  0.35965079  1  0  0.113418  0  0.942945  0  0  0.118828  0  1.011768  0  0  0.123959  0  1.006256  0  0  0.106357  0.114913  0  1.016107  0
H  H7  1  0.54408177  0.06910381  0.90603410  1  0  0.104714  0  0.955109  0  0  0.11366  0  1.020691  0  0  0.117716  0  1.016947  0  0  0.106226  0.110752  0  1.023315  0
H  H8  1  0.45592041  0.93090378  0.09396669  1  0  0.104733  0  0.955128  0  0  0.113661  0  1.020725  0  0  0.117716  0  1.016983  0  0  0.106268  0.110784  0  1.023313  0
H  H9  1  0.75895386  0.36888598  0.29047365  1  0  0.10811  0  0.948344  0  0  0.119225  0  1.00639  0  0  0.121799  0  1.004957  0  0  0.119395  0.1172  0  1.007909  0
H  H10  1  0.24104159  0.63111091  0.70952994  1  0  0.108155  0  0.948406  0  0  0.119243  0  1.006485  0  0  0.121811  0  1.005068  0  0  0.119391  0.117188  0  1.008021  0
H  H11  1  0.06643027  0.53931731  0.31392087  1  0  0.125805  0  0.936987  0  0  0.138921  0  0.989801  0  0  0.141783  0  0.988308  0  0  0.128359  0.1368  0  0.991075  0
H  H12  1  0.93356701  0.46067761  0.68608339  1  0  0.125855  0  0.936962  0  0  0.138952  0  0.989795  0  0  0.141813  0  0.988302  0  0  0.128322  0.136784  0  0.99114  0
H  H13  1  0.74697668  0.58352408  0.08828976  1  0  0.106243  0  0.946407  0  0  0.115403  0  1.0114  0  0  0.118006  0  1.008313  0  0  0.13727  0.113317  0  1.013872  0
H  H14  1  0.25301838  0.41646289  0.91170942  1  0  0.106222  0  0.946405  0  0  0.115427  0  1.011348  0  0  0.118005  0  1.008292  0  0  0.137243  0.113277  0  1.013877  0
H  H15  1  0.08224113  0.69142453  0.12369089  1  0  0.080662  0  0.941285  0  0  0.091586  0  1.011145  0  0  0.091978  0  1.012014  0  0  0.108674  0.091318  0  1.010552  0
H  H16  1  0.91775947  0.30856941  0.87631428  1  0  0.080905  0  0.941156  0  0  0.091723  0  1.011188  0  0  0.09211  0  1.01206  0  0  0.10858  0.09128  0  1.010601  0
H  H17  1  0.18089811  0.70880477  0.23228919  1  0  0.090266  0  0.953682  0  0  0.106302  0  1.01144  0  0  0.106369  0  1.01271  0  0  0.114565  0.106148  0  1.010705  0
H  H18  1  0.81909466  0.29119113  0.76771342  1  0  0.090305  0  0.953683  0  0  0.106357  0  1.011471  0  0  0.10642  0  1.012751  0  0  0.11454  0.106118  0  1.010761  0
H  H19  1  0.91216961  0.83884617  0.07424610  1  0  0.094058  0  1.00269  0  0  0.099192  0  1.076888  0  0  0.101599  0  1.077001  0  0  0.097737  0.097587  0  1.076728  0
H  H20  1  0.08781581  0.16114087  0.92575325  1  0  0.09399  0  1.002685  0  0  0.099196  0  1.076803  0  0  0.101601  0  1.07691  0  0  0.097721  0.097563  0  1.076666  0
H  H21  1  0.82009629  0.13613901  0.25195452  1  0  0.102451  0  0.939893  0  0  0.113866  0  1.002505  0  0  0.116378  0  1.001838  0  0  0.105809  0.111599  0  1.004084  0
H  H22  1  0.17990834  0.86386847  0.74804103  1  0  0.102397  0  0.939968  0  0  0.11385  0  1.002545  0  0  0.116359  0  1.001882  0  0  0.105834  0.111587  0  1.004131  0
H  H23  1  0.07341875  0.84471617  0.34237888  1  0  0.097332  0  0.949079  0  0  0.107531  0  1.013499  0  0  0.110389  0  1.012441  0  0  0.103166  0.105509  0  1.014413  0
H  H24  1  0.92657786  0.15528455  0.65762021  1  0  0.097362  0  0.949047  0  0  0.107557  0  1.013476  0  0  0.110417  0  1.012417  0  0  0.103167  0.105504  0  1.014415  0
H  H25  1  0.81911791  0.04318436  0.40313947  1  0  0.098059  0  0.89951  0  0  0.117805  0  0.952683  0  0  0.118255  0  0.952356  0  0  0.123752  0.117467  0  0.952936  0
H  H26  1  0.18088884  0.95682214  0.59685746  1  0  0.098085  0  0.899429  0  0  0.117826  0  0.952608  0  0  0.118275  0  0.952283  0  0  0.123731  0.117482  0  0.952869  0
H  H27  1  0.99884699  0.98342248  0.43792198  1  0  0.073692  0  0.941904  0  0  0.088317  0  1.006484  0  0  0.088982  0  1.005623  0  0  0.11006  0.087761  0  1.007147  0
H  H28  1  0.00115118  0.01657528  0.56207707  1  0  0.073675  0  0.941909  0  0  0.088289  0  1.006505  0  0  0.088954  0  1.005644  0  0  0.110027  0.087723  0  1.007169  0
H  H29  1  0.87189546  0.25519903  0.49567634  1  0  0.122328  0  0.966177  0  0  0.131841  0  1.027608  0  0  0.13528  0  1.024904  0  0  0.121151  0.12932  0  1.029797  0
H  H30  1  0.12811058  0.74479670  0.50432221  1  0  0.122384  0  0.966163  0  0  0.131911  0  1.027557  0  0  0.135351  0  1.024851  0  0  0.121152  0.12937  0  1.029732  0
H  H31  1  0.13186777  0.47834553  0.53900149  1  0  0.103034  0  0.977696  0  0  0.111119  0  1.041794  0  0  0.112963  0  1.041933  0  0  0.113693  0.109727  0  1.04188  0
H  H32  1  0.86813908  0.52165324  0.46100165  1  0  0.102986  0  0.977769  0  0  0.111087  0  1.04184  0  0  0.112931  0  1.041979  0  0  0.113681  0.109672  0  1.041964  0
H  H33  1  0.25609312  0.18855136  0.37688707  1  0  0.107974  0  0.961114  0  0  0.113158  0  1.030321  0  0  0.116441  0  1.026304  0  0  0.134265  0.110735  0  1.03325  0
H  H34  1  0.74391131  0.81145119  0.62310750  1  0  0.107997  0  0.961285  0  0  0.113224  0  1.030416  0  0  0.116507  0  1.0264  0  0  0.134288  0.110823  0  1.033319  0
H  H35  1  0.73912353  0.98540714  0.02464817  1  0  0.096275  0  0.916384  0  0  0.109048  0  0.981717  0  0  0.110415  0  0.979952  0  0  0.113892  0.107979  0  0.983147  0
H  H36  1  0.26088541  0.01459448  0.97535050  1  0  0.096271  0  0.916284  0  0  0.109015  0  0.981664  0  0  0.110382  0  0.979898  0  0  0.113782  0.107872  0  0.983126  0
H  H37  1  0.68449059  0.10042118  0.09703185  1  0  0.1075  0  0.927061  0  0  0.121293  0  0.988888  0  0  0.123055  0  0.987309  0  0  0.119426  0.119902  0  0.990225  0
H  H38  1  0.31550336  0.89957848  0.90296259  1  0  0.107505  0  0.927054  0  0  0.12131  0  0.988861  0  0  0.123072  0  0.987285  0  0  0.119449  0.119949  0  0.99019  0
H  H39  1  0.76833849  0.30841723  0.04199299  1  0  0.120288  0  0.99619  0  0  0.127603  0  1.061786  0  0  0.130004  0  1.061209  0  0  0.121319  0.125738  0  1.062547  0
H  H40  1  0.23165544  0.69158252  0.95800574  1  0  0.120338  0  0.99619  0  0  0.127678  0  1.061743  0  0  0.130082  0  1.06117  0  0  0.121356  0.125809  0  1.062488  0
H  H41  1  0.08140166  0.45887881  0.04195672  1  0  0.101106  0  0.973485  0  0  0.110986  0  1.036425  0  0  0.113244  0  1.035537  0  0  0.115136  0.109367  0  1.037103  0
H  H42  1  0.91859373  0.54112197  0.95804469  1  0  0.101106  0  0.973495  0  0  0.110986  0  1.036431  0  0  0.113244  0  1.035544  0  0  0.115124  0.109349  0  1.037113  0
H  H43  1  0.13288192  0.08888695  0.10010383  1  0  0.096209  0  0.954213  0  0  0.105018  0  1.018771  0  0  0.106989  0  1.017114  0  0  0.134042  0.103519  0  1.020065  0
H  H44  1  0.86712248  0.91111567  0.89989441  1  0  0.096192  0  0.954227  0  0  0.105018  0  1.018769  0  0  0.106989  0  1.017111  0  0  0.134039  0.103529  0  1.020079  0
H  H45  1  0.41298405  0.72770771  0.51885343  1  0  0.404919  0  0.916125  0  0  0.371719  0  0.9843  0  0  0.384081  0  0.966544  0  0  0.272212  0.363007  0  0.996788  0
H  H46  1  0.58702634  0.27229496  0.48114914  1  0  0.405076  0  0.915922  0  0  0.371845  0  0.984128  0  0  0.384208  0  0.966371  0  0  0.27226  0.363137  0  0.996609  0
H  H47  1  0.44722111  0.72030355  0.61750171  1  0  0.41674  0  0.889084  0  0  0.385987  0  0.953145  0  0  0.396401  0  0.937971  0  0  0.283453  0.378613  0  0.9639  0
H  H48  1  0.55278503  0.27970111  0.38250115  1  0  0.416832  0  0.888936  0  0  0.386089  0  0.952981  0  0  0.396502  0  0.937809  0  0  0.283449  0.378676  0  0.963785  0
H  H49  1  0.39609072  0.47717328  0.29290149  1  0  0.416347  0  0.891841  0  0  0.385256  0  0.957296  0  0  0.396214  0  0.941201  0  0  0.276584  0.37752  0  0.968654  0
H  H50  1  0.60391246  0.52282937  0.70709846  1  0  0.416302  0  0.891898  0  0  0.385204  0  0.957369  0  0  0.396162  0  0.941273  0  0  0.276549  0.377443  0  0.968757  0
H  H51  1  0.37349282  0.32171086  0.26768587  1  0  0.399197  0  0.919171  0  0  0.366022  0  0.987874  0  0  0.377486  0  0.9712  0  0  0.272973  0.358061  0  0.999417  0
H  H52  1  0.62651006  0.67829089  0.73231765  1  0  0.399178  0  0.919183  0  0  0.365996  0  0.987894  0  0  0.37746  0  0.97122  0  0  0.272943  0.358024  0  0.999455  0
C  C53  1  0.53358931  0.32478909  0.92995610  1  0  0.650056  0  3.939961  0  0  0.596611  0  4.241622  0  0  0.63162  0  4.233118  0  0  0.20073  0.572789  0  4.246873  0
C  C54  1  0.46640935  0.67521456  0.07004281  1  0  0.649956  0  3.939916  0  0  0.59651  0  4.241601  0  0  0.631519  0  4.233101  0  0  0.200713  0.572644  0  4.24688  0
C  C55  1  0.52448106  0.23940553  0.84725980  1  0  -0.072328  0  3.761204  0  0  -0.043694  0  3.996989  0  0  -0.053784  0  4.019808  0  0  -0.020502  -0.037445  0  3.981749  0
C  C56  1  0.47552206  0.76060104  0.15273919  1  0  -0.072094  0  3.761103  0  0  -0.043485  0  3.996917  0  0  -0.053574  0  4.019737  0  0  -0.020458  -0.037245  0  3.981725  0
C  C57  1  0.51435322  0.28953400  0.77142846  1  0  -0.058301  0  3.685479  0  0  -0.096299  0  3.927281  0  0  -0.091172  0  3.943899  0  0  -0.076638  -0.098769  0  3.915368  0
C  C58  1  0.48564721  0.71047160  0.22857017  1  0  -0.05834  0  3.685328  0  0  -0.096314  0  3.927181  0  0  -0.091186  0  3.943801  0  0  -0.076665  -0.098836  0  3.915348  0
C  C59  1  0.52176068  0.21168913  0.69693439  1  0  -0.085007  0  3.753201  0  0  -0.056868  0  3.991112  0  0  -0.066541  0  4.012457  0  0  -0.025195  -0.050984  0  3.976933  0
C  C60  1  0.47824307  0.78831552  0.30306698  1  0  -0.084928  0  3.753036  0  0  -0.056851  0  3.99102  0  0  -0.066527  0  4.012368  0  0  -0.02517  -0.050994  0  3.976877  0
C  C61  1  0.53483670  0.08092702  0.69808891  1  0  -0.065453  0  3.697772  0  0  -0.107761  0  3.955329  0  0  -0.102954  0  3.971399  0  0  -0.078254  -0.110398  0  3.944586  0
C  C62  1  0.46516797  0.91907663  0.30191188  1  0  -0.065501  0  3.697848  0  0  -0.107758  0  3.955437  0  0  -0.10296  0  3.971522  0  0  -0.078347  -0.110446  0  3.944706  0
C  C63  1  0.54115952  0.02895895  0.77321600  1  0  -0.087663  0  3.780895  0  0  -0.061611  0  4.023117  0  0  -0.072146  0  4.047027  0  0  -0.02632  -0.054923  0  4.006881  0
C  C64  1  0.45884181  0.97104570  0.22678511  1  0  -0.087597  0  3.780882  0  0  -0.061588  0  4.023194  0  0  -0.072123  0  4.047104  0  0  -0.026299  -0.054947  0  4.007019  0
C  C65  1  0.53681672  0.10901507  0.84737338  1  0  -0.061101  0  3.702601  0  0  -0.100236  0  3.950208  0  0  -0.095608  0  3.967666  0  0  -0.077215  -0.10281  0  3.938239  0
C  C66  1  0.46318074  0.89098860  0.15262601  1  0  -0.061176  0  3.702603  0  0  -0.100287  0  3.950247  0  0  -0.095656  0  3.967701  0  0  -0.077223  -0.102846  0  3.938252  0
C  C67  1  0.53267284  0.27065032  0.61795836  1  0  0.650086  0  3.91198  0  0  0.596582  0  4.209207  0  0  0.630897  0  4.20276  0  0  0.203228  0.57345  0  4.21273  0
C  C68  1  0.46733240  0.72935530  0.38204263  1  0  0.650092  0  3.911993  0  0  0.59658  0  4.209276  0  0  0.630897  0  4.202829  0  0  0.203233  0.573428  0  4.21283  0
C  C69  1  0.55320271  0.88861183  0.77647707  1  0  0.653594  0  3.914802  0  0  0.599852  0  4.212343  0  0  0.6342  0  4.204951  0  0  0.206774  0.576818  0  4.216209  0
C  C70  1  0.44679896  0.11138994  0.22352693  1  0  0.653564  0  3.914852  0  0  0.599774  0  4.212493  0  0  0.63412  0  4.205104  0  0  0.206762  0.576716  0  4.216385  0
C  C71  1  0.80217385  0.43863801  0.25186859  1  0  0.004107  0  3.750766  0  0  -0.030724  0  4.018831  0  0  -0.028972  0  4.039167  0  0  -0.002797  -0.03202  0  4.005867  0
C  C72  1  0.19782103  0.56135691  0.74813480  1  0  0.004145  0  3.751024  0  0  -0.030647  0  4.019041  0  0  -0.028896  0  4.039372  0  0  -0.002917  -0.032058  0  4.006148  0
C  C73  1  0.95348464  0.52368109  0.26514929  1  0  -0.054858  0  3.661698  0  0  -0.095262  0  3.916997  0  0  -0.093308  0  3.935367  0  0  0.007307  -0.096742  0  3.904991  0
C  C74  1  0.04651173  0.47631481  0.73485434  1  0  -0.055001  0  3.661873  0  0  -0.095404  0  3.917153  0  0  -0.093449  0  3.935522  0  0  0.007185  -0.09692  0  3.90526  0
C  C75  1  0.78955704  0.54856503  0.14684440  1  0  0.161771  0  3.659366  0  0  0.099747  0  3.925704  0  0  0.113106  0  3.939832  0  0  0.141514  0.091563  0  3.915659  0
C  C76  1  0.21044274  0.45142589  0.85315680  1  0  0.161791  0  3.659205  0  0  0.099691  0  3.925614  0  0  0.113067  0  3.939752  0  0  0.14141  0.091484  0  3.915648  0
C  C77  1  0.06357362  0.70600381  0.18841112  1  0  -0.043539  0  3.644723  0  0  -0.107857  0  3.88475  0  0  -0.103348  0  3.895402  0  0  -0.046851  -0.110647  0  3.877489  0
C  C78  1  0.93641830  0.29398916  0.81159181  1  0  -0.043521  0  3.644461  0  0  -0.107921  0  3.884727  0  0  -0.103403  0  3.89537  0  0  -0.046966  -0.110792  0  3.877481  0
C  C79  1  0.00286043  0.82998758  0.20620371  1  0  0.083251  0  3.772066  0  0  0.104411  0  4.013242  0  0  0.103299  0  4.038725  0  0  -0.012128  0.104971  0  3.996312  0
C  C80  1  0.99712520  0.17000438  0.79379601  1  0  0.083143  0  3.771763  0  0  0.104363  0  4.012984  0  0  0.103249  0  4.038466  0  0  -0.012272  0.104883  0  3.995978  0
C  C81  1  0.92522411  0.88427654  0.13961589  1  0  -0.164007  0  3.707364  0  0  -0.194276  0  3.9556  0  0  -0.197727  0  3.977365  0  0  -0.091414  -0.191729  0  3.9409  0
C  C82  1  0.07476190  0.11571243  0.86038182  1  0  -0.163826  0  3.707185  0  0  -0.194145  0  3.955398  0  0  -0.197585  0  3.977169  0  0  -0.091361  -0.191615  0  3.940754  0
C  C83  1  0.86070432  0.99515819  0.15558720  1  0  0.085419  0  3.774934  0  0  0.107242  0  4.016625  0  0  0.106236  0  4.041521  0  0  -0.007764  0.107805  0  3.999679  0
C  C84  1  0.13929117  0.00483856  0.84440965  1  0  0.08531  0  3.775009  0  0  0.107151  0  4.016717  0  0  0.106146  0  4.041611  0  0  -0.007741  0.107739  0  3.999851  0
C  C85  1  0.87187730  0.05047245  0.23923023  1  0  -0.143374  0  3.688003  0  0  -0.17659  0  3.937559  0  0  -0.179664  0  3.959736  0  0  -0.083207  -0.174667  0  3.92338  0
C  C86  1  0.12812924  0.94952916  0.76076695  1  0  -0.143299  0  3.687925  0  0  -0.176604  0  3.937492  0  0  -0.179676  0  3.959667  0  0  -0.083267  -0.174733  0  3.923343  0
C  C87  1  0.94622108  0.99541344  0.30652179  1  0  0.077701  0  3.781883  0  0  0.099456  0  4.02624  0  0  0.098069  0  4.051855  0  0  -0.011006  0.100595  0  4.008763  0
C  C88  1  0.05378064  0.00458819  0.69347548  1  0  0.077638  0  3.781777  0  0  0.099502  0  4.02601  0  0  0.098114  0  4.051627  0  0  -0.011169  0.100518  0  4.008529  0
C  C89  1  0.01375523  0.88675124  0.28969684  1  0  -0.150846  0  3.704524  0  0  -0.181268  0  3.949018  0  0  -0.184668  0  3.97125  0  0  -0.084862  -0.178978  0  3.934093  0
C  C90  1  0.98623636  0.11324457  0.71030135  1  0  -0.150876  0  3.704426  0  0  -0.18131  0  3.948864  0  0  -0.18471  0  3.971098  0  0  -0.084828  -0.178954  0  3.933885  0
C  C91  1  0.94641072  0.04711610  0.39653313  1  0  -0.034884  0  3.656912  0  0  -0.103736  0  3.908569  0  0  -0.09817  0  3.91798  0  0  -0.040855  -0.107233  0  3.901939  0
C  C92  1  0.05359220  0.95288554  0.60346488  1  0  -0.034925  0  3.656856  0  0  -0.103797  0  3.908498  0  0  -0.098235  0  3.917919  0  0  -0.040836  -0.10729  0  3.901851  0
C  C93  1  0.99146424  0.27486372  0.48005800  1  0  -0.084755  0  3.697612  0  0  -0.125927  0  3.955545  0  0  -0.125207  0  3.974339  0  0  -0.007747  -0.126449  0  3.943159  0
C  C94  1  0.00854630  0.72513108  0.51994403  1  0  -0.08485  0  3.697483  0  0  -0.126046  0  3.955418  0  0  -0.125327  0  3.974208  0  0  -0.007763  -0.126533  0  3.943025  0
C  C95  1  0.11852984  0.38452267  0.49957048  1  0  -0.003487  0  3.776061  0  0  -0.034477  0  4.036162  0  0  -0.032704  0  4.058104  0  0  -0.008843  -0.035564  0  4.021369  0
C  C96  1  0.88147737  0.61547316  0.50043310  1  0  -0.003417  0  3.776069  0  0  -0.034404  0  4.036159  0  0  -0.03263  0  4.058103  0  0  -0.008829  -0.035498  0  4.021437  0
C  C97  1  0.18986110  0.23854858  0.41618091  1  0  0.167474  0  3.628407  0  0  0.107194  0  3.890053  0  0  0.121489  0  3.902152  0  0  0.13918  0.097997  0  3.881656  0
C  C98  1  0.81014360  0.76145499  0.58381620  1  0  0.167139  0  3.628803  0  0  0.106824  0  3.890435  0  0  0.121118  0  3.902537  0  0  0.139047  0.097684  0  3.881966  0
C  C99  1  0.78685913  0.05796175  0.08332912  1  0  -0.048648  0  3.612799  0  0  -0.11571  0  3.858607  0  0  -0.110813  0  3.867405  0  0  -0.044616  -0.118813  0  3.852632  0
C  C100  1  0.21313692  0.94203699  0.91666916  1  0  -0.048611  0  3.61272  0  0  -0.115667  0  3.858536  0  0  -0.110773  0  3.867335  0  0  -0.044606  -0.118786  0  3.852619  0
C  C101  1  0.88947580  0.28618503  0.05151360  1  0  -0.062464  0  3.656918  0  0  -0.103569  0  3.91435  0  0  -0.101996  0  3.933579  0  0  0.000458  -0.104559  0  3.901613  0
C  C102  1  0.11051519  0.71381266  0.94847976  1  0  -0.062469  0  3.65694  0  0  -0.103603  0  3.914377  0  0  -0.102038  0  3.933611  0  0  0.000431  -0.104612  0  3.901669  0
C  C103  1  0.04291861  0.35840542  0.05113998  1  0  -0.005722  0  3.754485  0  0  -0.039378  0  4.02194  0  0  -0.037273  0  4.040824  0  0  -0.006457  -0.040736  0  4.008989  0
C  C104  1  0.95707503  0.64159333  0.94885804  1  0  -0.005688  0  3.754442  0  0  -0.039347  0  4.021884  0  0  -0.037242  0  4.040771  0  0  -0.006548  -0.040798  0  4.009021  0
C  C105  1  0.07729780  0.16861327  0.08163360  1  0  0.150151  0  3.672463  0  0  0.090498  0  3.934259  0  0  0.103807  0  3.947617  0  0  0.136854  0.081862  0  3.92497  0
C  C106  1  0.92269555  0.83138454  0.91836677  1  0  0.150145  0  3.672597  0  0  0.090481  0  3.934359  0  0  0.103785  0  3.947722  0  0  0.136805  0.081822  0  3.925094  0
N  N107  1  0.70167165  0.45534418  0.17784731  1  0  -0.405619  0  3.307535  0  0  -0.327187  0  3.59265  0  0  -0.349042  0  3.610365  0  0  -0.363131  -0.312345  0  3.58013  0
N  N108  1  0.29832843  0.54464771  0.82215338  1  0  -0.405539  0  3.30746  0  0  -0.32711  0  3.592576  0  0  -0.348962  0  3.610282  0  0  -0.363238  -0.312473  0  3.580124  0
N  N109  1  0.94293833  0.59215198  0.19799358  1  0  -0.058045  0  3.575848  0  0  0.037127  0  3.791939  0  0  0.022113  0  3.818321  0  0  -0.240628  0.04685  0  3.773726  0
N  N110  1  0.05705840  0.40784095  0.80200926  1  0  -0.05829  0  3.575718  0  0  0.036987  0  3.791784  0  0  0.021973  0  3.818161  0  0  -0.240648  0.046683  0  3.7736  0
N  N111  1  0.24078013  0.36077369  0.45929812  1  0  -0.391877  0  3.243251  0  0  -0.315465  0  3.521336  0  0  -0.33693  0  3.538666  0  0  -0.358004  -0.300753  0  3.509098  0
N  N112  1  0.75922583  0.63922600  0.54070131  1  0  -0.391729  0  3.243185  0  0  -0.315323  0  3.521286  0  0  -0.336788  0  3.53862  0  0  -0.357887  -0.30056  0  3.509037  0
N  N113  1  0.03826740  0.18337531  0.42707746  1  0  -0.065647  0  3.567653  0  0  0.030333  0  3.786458  0  0  0.015258  0  3.812467  0  0  -0.242648  0.040251  0  3.768684  0
N  N114  1  0.96173857  0.81662434  0.57292013  1  0  -0.065418  0  3.567519  0  0  0.030573  0  3.786319  0  0  0.0155  0  3.812329  0  0  -0.242412  0.040591  0  3.768472  0
N  N115  1  0.15797959  0.28352179  0.06934997  1  0  -0.375407  0  3.281341  0  0  -0.29689  0  3.557406  0  0  -0.317247  0  3.573658  0  0  -0.363421  -0.282989  0  3.546065  0
N  N116  1  0.84201526  0.71647696  0.93064818  1  0  -0.375531  0  3.281618  0  0  -0.296978  0  3.55764  0  0  -0.317334  0  3.573894  0  0  -0.36351  -0.283151  0  3.546349  0
N  N117  1  0.91363182  0.16631239  0.07095982  1  0  -0.055213  0  3.553702  0  0  0.042112  0  3.768056  0  0  0.027026  0  3.794472  0  0  -0.237438  0.052033  0  3.750083  0
N  N118  1  0.08636210  0.83368736  0.92903891  1  0  -0.055194  0  3.553761  0  0  0.042137  0  3.768108  0  0  0.027057  0  3.794523  0  0  -0.23739  0.052067  0  3.750147  0
O  O119  1  0.47654538  0.26621237  0.98523540  1  0  -0.648814  0  1.984957  0  0  -0.588458  0  2.247049  0  0  -0.615848  0  2.234755  0  0  -0.333832  -0.569136  0  2.254947  0
O  O120  1  0.52345088  0.73379126  0.01476202  1  0  -0.648759  0  1.985048  0  0  -0.58839  0  2.24713  0  0  -0.615782  0  2.234842  0  0  -0.333865  -0.569101  0  2.255022  0
O  O121  1  0.60463067  0.44550569  0.94114097  1  0  -0.669086  0  2.004091  0  0  -0.609792  0  2.268712  0  0  -0.636212  0  2.25571  0  0  -0.33909  -0.591191  0  2.276883  0
O  O122  1  0.39536623  0.55449600  0.05885761  1  0  -0.669103  0  2.003953  0  0  -0.609807  0  2.268582  0  0  -0.636228  0  2.255581  0  0  -0.339097  -0.591185  0  2.27677  0
O  O123  1  0.53469944  0.39384628  0.62218520  1  0  -0.676753  0  2.0355  0  0  -0.603177  0  2.27803  0  0  -0.632679  0  2.266316  0  0  -0.330701  -0.582371  0  2.285387  0
O  O124  1  0.46530671  0.60615835  0.37781582  1  0  -0.676804  0  2.035484  0  0  -0.603216  0  2.278042  0  0  -0.63271  0  2.266312  0  0  -0.330761  -0.582445  0  2.285448  0
O  O125  1  0.54540110  0.19618027  0.55377648  1  0  -0.620036  0  1.941057  0  0  -0.568414  0  2.151461  0  0  -0.592498  0  2.140372  0  0  -0.328898  -0.551625  0  2.158711  0
O  O126  1  0.45460534  0.80382533  0.44622403  1  0  -0.620018  0  1.941192  0  0  -0.568403  0  2.151608  0  0  -0.592488  0  2.140519  0  0  -0.328854  -0.551548  0  2.158839  0
O  O127  1  0.57226713  0.82032524  0.71044923  1  0  -0.664172  0  2.02395  0  0  -0.596857  0  2.243508  0  0  -0.622734  0  2.232206  0  0  -0.322305  -0.578839  0  2.250689  0
O  O128  1  0.42773963  0.17967752  0.28955662  1  0  -0.664199  0  2.023828  0  0  -0.596875  0  2.243415  0  0  -0.622752  0  2.232115  0  0  -0.322278  -0.578754  0  2.250574  0
O  O129  1  0.54436202  0.84803449  0.84605293  1  0  -0.649515  0  1.98862  0  0  -0.588257  0  2.244169  0  0  -0.61499  0  2.232135  0  0  -0.330214  -0.569591  0  2.251621  0
O  O130  1  0.45564318  0.15197121  0.15395235  1  0  -0.649549  0  1.988811  0  0  -0.588187  0  2.24428  0  0  -0.61492  0  2.232246  0  0  -0.330013  -0.5693  0  2.251664  0
O  O131  1  0.34697888  0.40159622  0.24589243  1  0  -0.856483  0  1.847979  0  0  -0.802158  0  2.033307  0  0  -0.823064  0  1.999859  0  0  -0.610129  -0.787119  0  2.056158  0
O  O132  1  0.65302225  0.59840353  0.75410892  1  0  -0.856474  0  1.848007  0  0  -0.802153  0  2.033367  0  0  -0.823054  0  1.99991  0  0  -0.610173  -0.787142  0  2.056222  0
O  O133  1  0.38558535  0.66855538  0.56154176  1  0  -0.854393  0  1.825328  0  0  -0.792088  0  2.013355  0  0  -0.814976  0  1.979844  0  0  -0.598267  -0.775661  0  2.036549  0
O  O134  1  0.61442469  0.33145024  0.43846099  1  0  -0.854594  0  1.825074  0  0  -0.792274  0  2.013169  0  0  -0.815161  0  1.979653  0  0  -0.598341  -0.775855  0  2.036409  0
