# generated using pymatgen
data_NiP2H18C20(NO2)3
_symmetry_space_group_name_H-M   'P 1'
_cell_length_a   10.80179192
_cell_length_b   10.94229682
_cell_length_c   11.22627969
_cell_angle_alpha   64.02657178
_cell_angle_beta   66.24726605
_cell_angle_gamma   72.53970546
_symmetry_Int_Tables_number   1
_chemical_formula_structural   NiP2H18C20(NO2)3
_chemical_formula_sum   'Ni2 P4 H36 C40 N6 O12'
_cell_volume   1079.44202773
_cell_formula_units_Z   2
loop_
 _symmetry_equiv_pos_site_id
 _symmetry_equiv_pos_as_xyz
  1  'x, y, z'
loop_
 _atom_site_type_symbol
 _atom_site_label
 _atom_site_symmetry_multiplicity
 _atom_site_fract_x
 _atom_site_fract_y
 _atom_site_fract_z
 _atom_site_occupancy
 _atom_site_hle17_ddec_charge
 _atom_site_hle17_ddec_spin_density
 _atom_site_hle17_ddec_sum_bond_order
 _atom_site_hle17_magmom
 _atom_site_hse06_10hf_ddec_charge
 _atom_site_hse06_10hf_ddec_spin_density
 _atom_site_hse06_10hf_ddec_sum_bond_order
 _atom_site_hse06_10hf_magmom
 _atom_site_hse06_ddec_charge
 _atom_site_hse06_ddec_spin_density
 _atom_site_hse06_ddec_sum_bond_order
 _atom_site_hse06_magmom
 _atom_site_pbe_cm5_charge
 _atom_site_pbe_ddec_charge
 _atom_site_pbe_ddec_spin_density
 _atom_site_pbe_ddec_sum_bond_order
 _atom_site_pbe_magmom
Ni  Ni0  1  0.06803816  0.02602059  0.24572559  1  0.930742  -1.776519  2.141664  -1.518  0.931711  -1.808911  2.537608  -1.607  0.997525  -1.865843  2.475881  -1.699  0.728113  0.885333  -1.749098  2.583763  -1.515
Ni  Ni1  1  0.93196082  0.97398324  0.75427369  1  0.930676  -1.776517  2.141693  -1.518  0.931631  -1.808909  2.53767  -1.607  0.997504  -1.865842  2.47584  -1.699  0.728093  0.885252  -1.749102  2.583806  -1.515
P  P2  1  0.85680842  0.67936164  0.00400454  1  1.499917  -0.001039  4.761465  0.0  1.353006  -0.002859  5.2697  -0.003  1.40226  -0.001763  5.232288  -0.002  0.352375  1.318235  -0.004194  5.293346  -0.003
P  P3  1  0.14319246  0.32063601  0.99599311  1  1.499778  -0.001041  4.761643  0.0  1.352841  -0.002858  5.269877  -0.003  1.402094  -0.001764  5.232465  -0.002  0.352319  1.31807  -0.004192  5.293518  -0.003
P  P4  1  0.87957352  0.84152125  0.56737103  1  1.489644  -0.006025  4.802355  -0.006  1.357829  -0.007519  5.303509  -0.009  1.408546  -0.00546  5.267157  -0.007  0.348003  1.322216  -0.009702  5.324878  -0.01
P  P5  1  0.12042302  0.15847849  0.43263008  1  1.489609  -0.006023  4.802512  -0.006  1.357832  -0.007518  5.303609  -0.009  1.408544  -0.005464  5.267271  -0.007  0.348084  1.322217  -0.009702  5.324977  -0.01
H  H6  1  0.04650544  0.54601919  0.05568682  1  0.43244  0.000123  0.877612  0.0  0.397612  6.5e-05  0.946817  0.0  0.409449  4.6e-05  0.929976  0.0  0.299544  0.3893  6.7e-05  0.958562  0.0
H  H7  1  0.95349904  0.45398151  0.94430722  1  0.432601  0.000123  0.877375  0.0  0.397677  6.5e-05  0.946721  0.0  0.409508  4.6e-05  0.92989  0.0  0.299588  0.389363  6.7e-05  0.958468  0.0
H  H8  1  0.89639786  0.65831468  0.76196926  1  0.434174  -0.000271  0.873376  -0.001  0.398924  -0.000239  0.943202  -0.001  0.41015  -0.000153  0.927107  -0.001  0.299479  0.391152  -0.000329  0.954326  -0.001
H  H9  1  0.10359969  0.34168505  0.23802968  1  0.434316  -0.000271  0.873173  -0.001  0.398987  -0.000239  0.943149  -0.001  0.410221  -0.000153  0.927039  -0.001  0.299512  0.391215  -0.000329  0.954275  -0.001
H  H10  1  0.31530523  0.84058962  0.34167638  1  0.090381  -0.000615  0.935612  -0.001  0.09745  -0.000486  1.001616  -0.001  0.099585  -0.000302  0.999551  -0.001  0.123775  0.095373  -0.000701  1.004227  -0.001
H  H11  1  0.68469334  0.15941013  0.65832839  1  0.090304  -0.000614  0.935674  -0.001  0.09737  -0.000486  1.001671  -0.001  0.099505  -0.000302  0.99961  -0.001  0.123755  0.095307  -0.0007  1.004267  -0.001
H  H12  1  0.41541821  0.59204593  0.36948110  1  0.098638  -0.000324  0.945834  0.0  0.10978  -0.000346  1.004592  0.0  0.112283  -0.000239  1.004811  0.0  0.107574  0.108089  -0.000392  1.00454  0.0
H  H13  1  0.58457660  0.40795178  0.63052689  1  0.098621  -0.000325  0.945873  0.0  0.109803  -0.000346  1.004592  0.0  0.112315  -0.000239  1.004788  0.0  0.107584  0.108112  -0.000392  1.00454  0.0
H  H14  1  0.35479907  0.48547798  0.24563326  1  0.08897  -5.7e-05  0.953574  0.0  0.102563  6.8e-05  1.009382  0.0  0.104899  7.1e-05  1.007788  0.0  0.108465  0.100326  9.9e-05  1.011721  0.0
H  H15  1  0.64519934  0.51452277  0.75436580  1  0.089009  -5.6e-05  0.953593  0.0  0.102576  6.8e-05  1.009421  0.0  0.104909  7.1e-05  1.007827  0.0  0.108491  0.100338  9.9e-05  1.01176  0.0
H  H16  1  0.21208843  0.63069704  0.09019139  1  0.132505  -0.000529  0.943122  -0.001  0.141665  -0.000493  1.000324  -0.001  0.144825  -0.000355  0.99948  0.0  0.117618  0.13919  -0.000626  1.001416  -0.001
H  H17  1  0.78791026  0.36930886  0.90980801  1  0.132495  -0.00053  0.943102  -0.001  0.14165  -0.000493  1.000316  -0.001  0.144846  -0.000355  0.999425  0.0  0.117615  0.139175  -0.000626  1.001403  -0.001
H  H18  1  0.63575286  0.20549115  0.11711699  1  0.110731  -0.000469  0.950704  -0.001  0.123036  -0.000499  1.003282  -0.001  0.125639  -0.000355  1.003272  0.0  0.1129  0.121174  -0.000673  1.003786  -0.001
H  H19  1  0.36424583  0.79451474  0.88288153  1  0.110743  -0.00047  0.950657  -0.001  0.123052  -0.000499  1.003232  -0.001  0.125655  -0.000355  1.003221  0.0  0.1129  0.121192  -0.000673  1.003732  -0.001
H  H20  1  0.50229282  0.31125840  0.29817947  1  0.086983  -9.2e-05  0.973821  0.0  0.099173  0.000113  1.032341  0.0  0.10134  9.9e-05  1.031001  0.0  0.106611  0.097121  0.00012  1.03426  0.0
H  H21  1  0.49770616  0.68874544  0.70182249  1  0.086963  -9.1e-05  0.973835  0.0  0.099138  0.000113  1.03237  0.0  0.101305  9.8e-05  1.03103  0.0  0.106615  0.097086  0.00012  1.034287  0.0
H  H22  1  0.61584286  0.30935997  0.45351247  1  0.099825  -0.000343  0.952257  0.0  0.111025  -0.000396  1.01098  0.0  0.113392  -0.000277  1.011343  0.0  0.109826  0.10938  -0.000474  1.011041  0.0
H  H23  1  0.38415356  0.69063363  0.54649578  1  0.099817  -0.000344  0.95229  0.0  0.110963  -0.000396  1.011067  0.0  0.113353  -0.000277  1.011405  0.0  0.109832  0.10932  -0.000475  1.011122  0.0
H  H24  1  0.86117146  0.19648743  0.42503449  1  0.09908  -0.000627  0.954064  -0.002  0.101522  -0.000446  1.024876  -0.001  0.105135  -0.000263  1.020514  -0.001  0.127666  0.098188  -0.00066  1.029238  -0.001
H  H25  1  0.13882710  0.80351230  0.57496850  1  0.099038  -0.000626  0.954024  -0.002  0.1015  -0.000446  1.02485  -0.001  0.105114  -0.000263  1.020486  -0.001  0.127665  0.098166  -0.00066  1.029211  -0.001
H  H26  1  0.65171003  0.79587802  0.66706485  1  0.116825  0.000253  0.945771  0.0  0.132645  0.00015  1.002162  0.0  0.134238  0.000148  1.001576  0.0  0.100361  0.131471  0.000103  1.003014  0.0
H  H27  1  0.34829100  0.20411860  0.33293407  1  0.116801  0.000255  0.945768  0.0  0.132631  0.00015  1.002162  0.0  0.134226  0.000148  1.001573  0.0  0.10035  0.131458  0.000103  1.003015  0.0
H  H28  1  0.66610781  0.95533703  0.52732900  1  0.120902  0.000218  0.955162  0.0  0.135018  -3.2e-05  1.016216  0.0  0.136718  -1.4e-05  1.016723  0.0  0.099486  0.134326  -5.8e-05  1.015134  0.0
H  H29  1  0.33388887  0.04466167  0.47266983  1  0.120961  0.000219  0.955052  0.0  0.135054  -3.2e-05  1.016158  0.0  0.136754  -1.4e-05  1.016664  0.0  0.099504  0.134361  -5.8e-05  1.015078  0.0
H  H30  1  0.85661019  0.60257214  0.52504096  1  0.105428  -7e-06  0.956259  0.0  0.118043  -2.8e-05  1.01122  0.0  0.121295  -1.7e-05  1.009518  0.0  0.103175  0.115633  -2.2e-05  1.012448  0.0
H  H31  1  0.14339070  0.39742551  0.47495935  1  0.105407  -5e-06  0.956306  0.0  0.118039  -2.8e-05  1.01125  0.0  0.121293  -1.7e-05  1.009542  0.0  0.103162  0.115629  -2.2e-05  1.012479  0.0
H  H32  1  0.57541866  0.95533178  0.36950041  1  0.079844  5.7e-05  0.973704  0.0  0.09119  1e-06  1.038683  0.0  0.093469  1e-06  1.038817  0.0  0.08905  0.089682  1e-05  1.038176  0.0
H  H33  1  0.42458741  0.04467200  0.63049347  1  0.079883  6e-05  0.973728  0.0  0.091227  0.0  1.038703  0.0  0.093504  1e-06  1.038841  0.0  0.089068  0.089717  1e-05  1.038197  0.0
H  H34  1  0.85778215  0.50568070  0.36355373  1  0.106489  5.3e-05  0.949788  0.0  0.117351  1.5e-05  1.009121  0.0  0.120668  1e-05  1.007466  0.0  0.099926  0.114813  2.6e-05  1.010398  0.0
H  H35  1  0.14222320  0.49432104  0.63644220  1  0.106432  5.1e-05  0.94983  0.0  0.117254  1.5e-05  1.009212  0.0  0.120569  1e-05  1.00756  0.0  0.099919  0.114717  2.6e-05  1.010484  0.0
H  H36  1  0.58001803  0.86076540  0.20316447  1  0.09693  2e-06  0.942466  0.0  0.110393  -4.4e-05  0.997017  0.0  0.113565  -2.7e-05  0.995572  0.0  0.099318  0.107955  -6.8e-05  0.998447  0.0
H  H37  1  0.41999152  0.13923527  0.79682761  1  0.096895  -1e-06  0.942426  0.0  0.110386  -4.4e-05  0.996949  0.0  0.113557  -2.7e-05  0.995504  0.0  0.099335  0.107944  -6.8e-05  0.998381  0.0
H  H38  1  0.62700314  0.64938777  0.14563102  1  0.125235  0.000416  0.952139  0.0  0.138857  0.000113  1.009906  0.0  0.140845  8.2e-05  1.009837  0.0  0.100923  0.137499  0.000126  1.010288  0.0
H  H39  1  0.37300075  0.35061706  0.85436415  1  0.125231  0.000415  0.952251  0.0  0.13885  0.000113  1.010005  0.0  0.14083  8.2e-05  1.009943  0.0  0.100927  0.137491  0.000126  1.010389  0.0
H  H40  1  0.74604438  0.50661042  0.20896228  1  0.121463  -0.000733  0.968349  -0.001  0.13305  -0.00057  1.030856  -0.001  0.133849  -0.000378  1.032596  -0.001  0.098703  0.132978  -0.000747  1.029183  -0.001
H  H41  1  0.25395895  0.49339133  0.79103532  1  0.121425  -0.000733  0.968381  -0.001  0.13301  -0.000569  1.030891  -0.001  0.13381  -0.000378  1.032628  -0.001  0.098695  0.132937  -0.000747  1.029217  -0.001
C  C42  1  0.29927233  0.78911254  0.28614803  1  0.146065  0.009284  3.667428  0.006  0.115251  0.00166  3.926113  0.001  0.124226  0.002194  3.941313  0.001  0.063264  0.107911  0.001126  3.917476  0.0
C  C43  1  0.70072174  0.21089031  0.71385715  1  0.146214  0.00925  3.667357  0.006  0.115409  0.001658  3.92603  0.001  0.124379  0.002194  3.941242  0.001  0.063316  0.108055  0.001125  3.917393  0.0
C  C44  1  0.35318225  0.65240309  0.30088624  1  -0.110512  -0.004113  3.734183  -0.006  -0.124803  -0.000783  3.989107  -0.002  -0.130698  -0.000656  4.009641  -0.001  -0.07348  -0.121251  -0.000905  3.976065  -0.002
C  C45  1  0.64681156  0.34759464  0.69912481  1  -0.110567  -0.004091  3.734394  -0.006  -0.12491  -0.000781  3.989321  -0.002  -0.130802  -0.000656  4.009857  -0.001  -0.073536  -0.121357  -0.000904  3.976283  -0.002
C  C46  1  0.32127974  0.59400056  0.23045292  1  -0.001144  0.008405  3.734394  0.005  -0.019817  0.001039  3.983274  0.0  -0.016318  0.001294  4.001165  0.001  -0.062787  -0.022946  0.000719  3.973007  0.0
C  C47  1  0.67871651  0.40600125  0.76955186  1  -0.001157  0.008368  3.734631  0.005  -0.019804  0.001036  3.983507  0.0  -0.016304  0.001294  4.001406  0.001  -0.062811  -0.022934  0.000719  3.973239  0.0
C  C48  1  0.24205534  0.67454685  0.14302781  1  -0.133911  -0.002917  3.686937  -0.004  -0.152094  -0.000418  3.929369  -0.001  -0.157454  -0.000524  3.948384  -0.001  -0.071455  -0.148863  -0.000419  3.917847  -0.001
C  C49  1  0.75794118  0.32546009  0.85697288  1  -0.13396  -0.002898  3.686959  -0.004  -0.152143  -0.000416  3.929393  -0.001  -0.157531  -0.000524  3.948392  -0.001  -0.071491  -0.148913  -0.000419  3.91787  -0.001
C  C50  1  0.19499889  0.81185816  0.13081576  1  0.184988  0.003047  3.723549  0.001  0.18188  -0.001747  3.967873  -0.003  0.187396  -0.000616  3.987137  -0.002  0.129381  0.177826  -0.00306  3.956363  -0.004
C  C51  1  0.80499938  0.18814365  0.86918913  1  0.185029  0.003019  3.723159  0.001  0.181907  -0.001751  3.9675  -0.003  0.187422  -0.000618  3.986776  -0.002  0.129392  0.17785  -0.003062  3.955991  -0.004
C  C52  1  0.10009723  0.90637227  0.05285462  1  0.160237  0.006197  3.637602  0.003  0.150554  -0.000678  3.885645  -0.001  0.160415  0.000277  3.894124  0.0  0.152336  0.141612  -0.001185  3.884617  -0.002
C  C53  1  0.89990786  0.09362434  0.94714629  1  0.160244  0.00621  3.637509  0.003  0.150598  -0.000679  3.885609  -0.001  0.160446  0.000276  3.894083  0.0  0.152318  0.141657  -0.001186  3.884579  -0.002
C  C54  1  0.90933868  0.08159378  0.07325945  1  0.149409  0.008339  3.660274  0.004  0.138544  0.000978  3.912341  0.0  0.147914  0.000931  3.921148  0.0  0.147117  0.129319  -0.000155  3.910704  -0.001
C  C55  1  0.09066060  0.91840800  0.92674060  1  0.149334  0.00835  3.660221  0.004  0.138588  0.00098  3.912151  0.0  0.147926  0.000933  3.921002  0.0  0.147083  0.12936  -0.000156  3.910523  -0.001
C  C56  1  0.82074400  0.15276887  0.17085655  1  0.199897  0.009355  3.727583  0.005  0.19442  0.000979  3.977951  0.0  0.2012  0.001922  3.996695  0.001  0.13307  0.190428  0.000502  3.965934  -0.001
C  C57  1  0.17925572  0.84722982  0.82914466  1  0.199937  0.009324  3.727588  0.005  0.194424  0.00098  3.977938  0.0  0.201211  0.001926  3.996686  0.001  0.133105  0.190433  0.000503  3.965921  -0.001
C  C58  1  0.68375679  0.20928646  0.18374076  1  -0.1433  -0.005449  3.715532  -0.007  -0.162213  -0.001463  3.96299  -0.002  -0.168204  -0.001574  3.982233  -0.002  -0.076117  -0.158794  -0.001522  3.950943  -0.002
C  C59  1  0.31624293  0.79071223  0.81625867  1  -0.143346  -0.00543  3.715518  -0.007  -0.162254  -0.001463  3.962986  -0.002  -0.16824  -0.001574  3.98222  -0.002  -0.076156  -0.158838  -0.001523  3.950936  -0.002
C  C60  1  0.60938658  0.26733715  0.28516429  1  -0.003083  0.016241  3.733098  0.01  -0.022561  0.005336  3.983226  0.003  -0.017783  0.005014  3.999541  0.003  -0.065969  -0.026491  0.00613  3.973653  0.003
C  C61  1  0.39060969  0.73265747  0.71484358  1  -0.003059  0.0162  3.733035  0.01  -0.022526  0.005336  3.983153  0.003  -0.017748  0.005015  3.999472  0.003  -0.065938  -0.026456  0.00613  3.973582  0.003
C  C62  1  0.67221902  0.26561079  0.37264702  1  -0.110177  -0.006927  3.721314  -0.009  -0.121298  -0.002065  3.969814  -0.003  -0.126942  -0.00209  3.9885  -0.003  -0.075267  -0.118744  -0.002322  3.95892  -0.003
C  C63  1  0.32777871  0.73438074  0.62736250  1  -0.110193  -0.006905  3.721244  -0.009  -0.121254  -0.002065  3.96978  -0.003  -0.126918  -0.00209  3.988459  -0.003  -0.075354  -0.118702  -0.002322  3.958888  -0.003
C  C64  1  0.80820015  0.20410835  0.35685743  1  0.148305  0.017167  3.651191  0.011  0.118106  0.005825  3.913764  0.004  0.128151  0.006223  3.926267  0.004  0.063856  0.110413  0.005481  3.907456  0.003
C  C65  1  0.19180103  0.79588725  0.64314276  1  0.148358  0.017129  3.650936  0.011  0.118103  0.005825  3.913542  0.004  0.128146  0.006225  3.926055  0.004  0.06387  0.110411  0.00548  3.907233  0.003
C  C66  1  0.71288365  0.84662922  0.55805173  1  -0.482156  -0.005301  3.726995  -0.007  -0.507578  -0.003025  3.967847  -0.004  -0.516274  -0.002039  3.975868  -0.003  -0.170704  -0.500932  -0.003891  3.961459  -0.005
C  C67  1  0.28711491  0.15337049  0.44194504  1  -0.482168  -0.005304  3.72709  -0.007  -0.507583  -0.003025  3.967942  -0.004  -0.516276  -0.002039  3.975957  -0.003  -0.170721  -0.500936  -0.003892  3.961556  -0.005
C  C68  1  0.71400542  0.78508600  0.46104311  1  0.136432  -0.001213  3.778531  -0.001  0.153627  -0.000569  4.017856  -0.001  0.154244  -0.000322  4.044219  0.0  -0.01725  0.152832  -0.00088  3.999697  -0.001
C  C69  1  0.28599430  0.21491267  0.53895366  1  0.136372  -0.00118  3.778411  -0.001  0.15357  -0.000569  4.017782  -0.001  0.154186  -0.000323  4.044147  0.0  -0.017239  0.152775  -0.000881  3.999621  -0.001
C  C70  1  0.79270630  0.65797020  0.45741965  1  -0.121328  0.000146  3.737121  0.0  -0.140661  -7.6e-05  3.985234  0.0  -0.143477  -5.2e-05  4.006598  0.0  -0.095644  -0.138421  -0.000472  3.970418  0.0
C  C71  1  0.20729399  0.34203155  0.54257468  1  -0.121357  8.8e-05  3.737051  0.0  -0.140711  -7.6e-05  3.985178  0.0  -0.143525  -5.1e-05  4.006538  0.0  -0.095678  -0.138475  -0.000472  3.970365  0.0
C  C72  1  0.63677682  0.85594051  0.36906039  1  -0.145049  -0.000822  3.78342  -0.001  -0.165148  -0.000429  4.038271  0.0  -0.169692  -0.000285  4.063295  0.0  -0.108162  -0.161111  -0.000546  4.020063  -0.001
C  C73  1  0.36322695  0.14405816  0.63093836  1  -0.145095  -0.000856  3.783477  -0.001  -0.165206  -0.000429  4.038354  0.0  -0.169749  -0.000285  4.063379  0.0  -0.108231  -0.161168  -0.000546  4.020142  -0.001
C  C74  1  0.79308110  0.60337926  0.36600690  1  -0.125342  -0.000423  3.738789  0.0  -0.144614  -0.0  3.988272  0.0  -0.147509  8.4e-05  4.009573  0.0  -0.097919  -0.142267  -0.000199  3.973764  0.0
C  C75  1  0.20692369  0.39661940  0.63398969  1  -0.125247  -0.00039  3.738699  0.0  -0.144459  0.0  3.9882  0.0  -0.147353  8.5e-05  4.0095  0.0  -0.097863  -0.142113  -0.000199  3.973692  0.0
C  C76  1  0.63789574  0.80225145  0.27645631  1  -0.135582  -0.000456  3.768002  0.0  -0.155984  -0.000266  4.020995  0.0  -0.159017  -0.000134  4.043298  0.0  -0.104778  -0.153882  -0.000383  4.005714  0.0
C  C77  1  0.36210773  0.19774926  0.72353901  1  -0.135532  -0.00042  3.76802  0.0  -0.15593  -0.000266  4.021031  0.0  -0.158966  -0.000134  4.043343  0.0  -0.104783  -0.153829  -0.000383  4.005747  0.0
C  C78  1  0.71559961  0.67464395  0.27416523  1  0.132392  3.3e-05  3.801481  0.0  0.150644  -1.5e-05  4.038083  0.0  0.151721  -8e-06  4.063541  0.0  -0.017945  0.149377  -0.000355  4.021491  0.0
C  C79  1  0.28440301  0.32535575  0.72583353  1  0.132384  -1.1e-05  3.801442  0.0  0.150563  -1.5e-05  4.038129  0.0  0.151637  -9e-06  4.063588  0.0  -0.017973  0.149297  -0.000355  4.021535  0.0
C  C80  1  0.72312116  0.61936918  0.17014063  1  -0.487212  -0.005655  3.743767  -0.007  -0.509295  -0.003434  3.983686  -0.004  -0.518674  -0.002282  3.992525  -0.003  -0.171121  -0.50254  -0.004708  3.977224  -0.005
C  C81  1  0.27688434  0.38063152  0.82985480  1  -0.487133  -0.005653  3.743806  -0.007  -0.509169  -0.003435  3.983706  -0.004  -0.518539  -0.002281  3.992542  -0.003  -0.171123  -0.502415  -0.004709  3.977242  -0.005
N  N82  1  0.22033203  0.86594190  0.20517015  1  -0.272492  -0.045775  3.216396  -0.071  -0.234419  -0.031119  3.486868  -0.049  -0.255773  -0.023532  3.503476  -0.04  -0.305995  -0.219381  -0.038464  3.476024  -0.057
N  N83  1  0.77966567  0.13405682  0.79483718  1  -0.272548  -0.04576  3.2162  -0.071  -0.234435  -0.031117  3.486617  -0.049  -0.255797  -0.023531  3.503224  -0.04  -0.305969  -0.219398  -0.038463  3.475779  -0.057
N  N84  1  0.01066830  0.99008205  0.11895619  1  -0.276639  -0.044378  3.303587  -0.071  -0.251147  -0.036004  3.587771  -0.058  -0.26542  -0.027586  3.596758  -0.047  -0.309701  -0.24363  -0.045381  3.584457  -0.069
N  N85  1  0.98933039  0.00992383  0.88103965  1  -0.276471  -0.044382  3.303538  -0.071  -0.251063  -0.036003  3.587763  -0.058  -0.26533  -0.027583  3.596754  -0.047  -0.309688  -0.243545  -0.045378  3.584445  -0.069
N  N86  1  0.88064435  0.14955764  0.25823351  1  -0.311049  -0.051108  3.264335  -0.083  -0.275978  -0.032975  3.548109  -0.054  -0.298949  -0.025633  3.564017  -0.045  -0.308166  -0.260088  -0.040057  3.537411  -0.062
N  N87  1  0.11935320  0.85044209  0.74176899  1  -0.311076  -0.051094  3.264113  -0.083  -0.275977  -0.032976  3.547896  -0.054  -0.298957  -0.025635  3.563799  -0.045  -0.308167  -0.260089  -0.040058  3.537197  -0.062
O  O88  1  0.82141236  0.83333018  0.93706123  1  -0.815391  -0.041432  1.992804  -0.07  -0.777118  -0.027564  2.278215  -0.047  -0.81216  -0.019592  2.262544  -0.035  -0.371207  -0.748612  -0.036016  2.286281  -0.058
O  O89  1  0.17859011  0.16667055  0.06293626  1  -0.815356  -0.041427  1.992893  -0.07  -0.777091  -0.027562  2.278318  -0.047  -0.812118  -0.019589  2.262644  -0.035  -0.371209  -0.748588  -0.036012  2.286384  -0.058
O  O90  1  0.84993059  0.93756816  0.64402027  1  -0.832472  -0.036199  2.052371  -0.062  -0.788237  -0.022765  2.348422  -0.038  -0.822892  -0.016337  2.32934  -0.029  -0.376991  -0.76023  -0.028754  2.358774  -0.045
O  O91  1  0.15006740  0.06242848  0.35598160  1  -0.832433  -0.036203  2.05237  -0.062  -0.788211  -0.022769  2.348411  -0.038  -0.822872  -0.016337  2.329383  -0.029  -0.377023  -0.760201  -0.028756  2.358761  -0.045
O  O92  1  0.98479910  0.86916950  0.42358778  1  -0.826837  -0.038813  2.042587  -0.065  -0.784254  -0.027258  2.329396  -0.046  -0.820412  -0.019523  2.314392  -0.035  -0.374539  -0.75536  -0.035399  2.337382  -0.056
O  O93  1  0.01520164  0.13082919  0.57641304  1  -0.826826  -0.038808  2.042631  -0.065  -0.784267  -0.027256  2.329453  -0.046  -0.82043  -0.019521  2.314445  -0.035  -0.374566  -0.755373  -0.035396  2.337439  -0.056
O  O94  1  0.99358848  0.64489764  0.04114902  1  -0.773677  0.001001  2.023995  0.0  -0.704026  0.000688  2.256045  0.0  -0.727157  0.00061  2.2347  0.0  -0.394316  -0.686659  0.00082  2.270605  0.0
O  O95  1  0.00641701  0.35510306  0.95884463  1  -0.773754  0.001  2.023953  0.0  -0.704023  0.000687  2.256091  0.0  -0.727151  0.00061  2.23475  0.0  -0.394306  -0.686657  0.00082  2.270652  0.0
O  O96  1  0.86832859  0.59346383  0.92077213  1  -0.851912  0.000313  1.967257  0.0  -0.764951  0.000196  2.193949  0.0  -0.789787  0.000266  2.172001  0.0  -0.373097  -0.746722  7e-05  2.208601  0.0
O  O97  1  0.13167098  0.40653588  0.07922692  1  -0.851864  0.000312  1.967256  0.0  -0.76489  0.000196  2.193937  0.0  -0.789732  0.000266  2.17198  0.0  -0.373053  -0.746661  7e-05  2.208587  0.0
O  O98  1  0.92620180  0.68585761  0.65574863  1  -0.765612  -0.001968  1.988957  -0.003  -0.698651  -0.001706  2.210386  -0.003  -0.720342  -0.001047  2.185771  -0.002  -0.399228  -0.682195  -0.002584  2.226208  -0.004
O  O99  1  0.07379184  0.31414110  0.34424870  1  -0.765725  -0.001967  1.988872  -0.003  -0.698745  -0.001706  2.210323  -0.003  -0.720441  -0.001046  2.185709  -0.002  -0.399296  -0.682289  -0.002583  2.226146  -0.004
