# generated using pymatgen
data_CuH7(C7O2)2
_symmetry_space_group_name_H-M   'P 1'
_cell_length_a   18.26832219
_cell_length_b   18.26829637
_cell_length_c   24.50661893
_cell_angle_alpha   105.41227547
_cell_angle_beta   105.41229068
_cell_angle_gamma   106.68504870
_symmetry_Int_Tables_number   1
_chemical_formula_structural   CuH7(C7O2)2
_chemical_formula_sum   'Cu8 H56 C112 O32'
_cell_volume   7015.28682314
_cell_formula_units_Z   8
loop_
 _symmetry_equiv_pos_site_id
 _symmetry_equiv_pos_as_xyz
  1  'x, y, z'
loop_
 _atom_site_type_symbol
 _atom_site_label
 _atom_site_symmetry_multiplicity
 _atom_site_fract_x
 _atom_site_fract_y
 _atom_site_fract_z
 _atom_site_occupancy
 _atom_site_pbe_bader_charge
 _atom_site_pbe_bader_spin_density
 _atom_site_pbe_cm5_charge
 _atom_site_pbe_ddec_charge
 _atom_site_pbe_ddec_spin_density
 _atom_site_pbe_ddec_sum_bond_order
 _atom_site_pbe_magmom
Cu  Cu0  1  0.99586331  0.54884131  0.04282397  1  1.063458  0.545484  0.704308  0.836067  0.708414  2.21394  0.547
Cu  Cu1  1  0.54697086  0.49395663  0.04279484  1  1.065022  0.545486  0.704364  0.836351  0.708282  2.213331  0.547
Cu  Cu2  1  0.95115664  0.50413767  0.45717446  1  1.063446  0.545501  0.704337  0.83621  0.708434  2.213865  0.547
Cu  Cu3  1  0.00604297  0.95302875  0.45720385  1  1.064996  0.545499  0.704439  0.836413  0.708299  2.21342  0.547
Cu  Cu4  1  0.00413358  0.45115247  0.95716812  1  1.064313  0.545558  0.704464  0.836469  0.70848  2.213985  0.547
Cu  Cu5  1  0.45302542  0.50604222  0.95719849  1  1.065926  0.545557  0.704502  0.836432  0.708346  2.213743  0.547
Cu  Cu6  1  0.04884632  0.49586616  0.54282923  1  1.064184  0.545537  0.704347  0.836116  0.708452  2.214118  0.547
Cu  Cu7  1  0.99395739  0.04697399  0.54279970  1  1.065906  0.545545  0.704484  0.836414  0.70833  2.213603  0.547
H  H8  1  0.56254739  0.76900829  0.99053638  1  0.109818  0.000408  0.10945  0.116485  0.000333  0.986684  0.0
H  H9  1  0.82167872  0.88001997  0.17102590  1  0.063879  0.000274  0.103688  0.103692  0.000144  0.999682  0.0
H  H10  1  0.64808964  0.91871675  0.03474782  1  0.056105  0.000291  0.103606  0.104551  0.000151  0.997436  0.0
H  H11  1  0.73432599  0.73120747  0.12765713  1  0.110051  0.000393  0.109163  0.117506  0.000341  0.989671  0.0
H  H12  1  0.80610047  0.99251922  0.22623778  1  0.058797  7e-06  0.102748  0.103836  -1.6e-05  1.021267  0.0
H  H13  1  0.91183496  0.03911480  0.31145085  1  0.111273  0.000407  0.108935  0.115738  0.000339  1.001524  0.0
H  H14  1  0.92800787  0.22163510  0.99056723  1  0.098023  0.000407  0.10899  0.115334  0.000332  0.986487  0.0
H  H15  1  0.84935054  0.29095014  0.17105006  1  0.062076  0.000274  0.104242  0.105073  0.000143  0.998766  0.0
H  H16  1  0.88666085  0.11608435  0.03471708  1  0.06335  0.000291  0.103736  0.105198  0.000151  0.998068  0.0
H  H17  1  0.89330375  0.39644634  0.12772356  1  0.118517  0.000385  0.109115  0.117183  0.000341  0.989115  0.0
H  H18  1  0.92018801  0.23378849  0.22625107  1  0.053428  7e-06  0.103076  0.10328  -1.6e-05  1.021824  0.0
H  H19  1  0.89974044  0.27239280  0.31149599  1  0.111158  0.000417  0.108711  0.115182  0.000341  0.999782  0.0
H  H20  1  0.73099203  0.93745243  0.50946385  1  0.109824  0.000408  0.109441  0.116462  0.000333  0.986749  0.0
H  H21  1  0.61997981  0.67832092  0.32897418  1  0.06386  0.000274  0.103689  0.103703  0.000144  0.999643  0.0
H  H22  1  0.58128231  0.85191058  0.46525182  1  0.056093  0.000291  0.103595  0.104539  0.000151  0.997399  0.0
H  H23  1  0.76879230  0.76567366  0.37234357  1  0.11007  0.000393  0.109167  0.117539  0.000341  0.989661  0.0
H  H24  1  0.50748015  0.69389865  0.27376205  1  0.058808  7e-06  0.102766  0.103874  -1.6e-05  1.021215  0.0
H  H25  1  0.46088519  0.58816423  0.18854913  1  0.111169  0.000408  0.108942  0.115718  0.00034  1.00154  0.0
H  H26  1  0.27836516  0.57199232  0.50943341  1  0.098018  0.000407  0.108998  0.115321  0.000332  0.9865  0.0
H  H27  1  0.20904873  0.65064987  0.32895017  1  0.062078  0.000274  0.104219  0.10503  0.000143  0.998736  0.0
H  H28  1  0.38391613  0.61333913  0.46528257  1  0.063347  0.000291  0.103756  0.105212  0.000151  0.998127  0.0
H  H29  1  0.10355300  0.60669664  0.37227726  1  0.118348  0.000385  0.109118  0.117193  0.000341  0.989056  0.0
H  H30  1  0.26621219  0.57981272  0.27374902  1  0.053434  7e-06  0.103077  0.10328  -1.6e-05  1.021859  0.0
H  H31  1  0.22760669  0.60025881  0.18850300  1  0.111143  0.000417  0.108699  0.115158  0.000341  0.999735  0.0
H  H32  1  0.43745245  0.23099337  0.00946296  1  0.109857  0.000408  0.109457  0.116476  0.000333  0.986751  0.0
H  H33  1  0.17831756  0.11997624  0.82897234  1  0.064008  0.000274  0.103671  0.103591  0.000144  0.999703  0.0
H  H34  1  0.35191072  0.08128486  0.96525204  1  0.056149  0.000291  0.103587  0.104522  0.000151  0.997527  0.0
H  H35  1  0.26566902  0.26879031  0.87234169  1  0.109626  0.000393  0.109159  0.117464  0.00034  0.989638  0.0
H  H36  1  0.19389893  0.00748048  0.77376235  1  0.058807  7e-06  0.102765  0.103862  -1.6e-05  1.02121  0.0
H  H37  1  0.08816499  0.96088452  0.68854923  1  0.111264  0.000407  0.108951  0.115776  0.000339  1.001505  0.0
H  H38  1  0.07199082  0.77836333  0.00943220  1  0.098028  0.000407  0.10899  0.115323  0.000332  0.986521  0.0
H  H39  1  0.15065113  0.70904767  0.82894927  1  0.062029  0.000274  0.104214  0.105012  0.000143  0.998693  0.0
H  H40  1  0.11333833  0.88391380  0.96528160  1  0.063404  0.00029  0.10375  0.105222  0.000151  0.998045  0.0
H  H41  1  0.10669676  0.60355258  0.87227646  1  0.118429  0.000385  0.109134  0.117225  0.000341  0.989141  0.0
H  H42  1  0.07981329  0.76621102  0.77374850  1  0.053418  7e-06  0.103088  0.103314  -1.6e-05  1.021768  0.0
H  H43  1  0.10026218  0.72760805  0.68850676  1  0.111109  0.000417  0.108677  0.115184  0.000341  0.999773  0.0
H  H44  1  0.26900773  0.06254802  0.49053727  1  0.10986  0.000408  0.109462  0.116513  0.000333  0.986743  0.0
H  H45  1  0.38002148  0.32168106  0.67102661  1  0.063992  0.000274  0.103681  0.103673  0.000144  0.999671  0.0
H  H46  1  0.41871738  0.14808999  0.53474860  1  0.056095  0.000291  0.103584  0.104508  0.000151  0.997491  0.0
H  H47  1  0.23120855  0.23432825  0.62765739  1  0.110039  0.000393  0.109163  0.117487  0.00034  0.989664  0.0
H  H48  1  0.49252044  0.30610205  0.72623804  1  0.058826  7e-06  0.102753  0.103858  -1.6e-05  1.021213  0.0
H  H49  1  0.53911588  0.41183620  0.81145022  1  0.111213  0.000407  0.108941  0.115744  0.000339  1.001566  0.0
H  H50  1  0.72163397  0.42800863  0.49056708  1  0.098097  0.000407  0.109013  0.115399  0.000332  0.986444  0.0
H  H51  1  0.79095323  0.34935125  0.67105068  1  0.062067  0.000274  0.104216  0.104989  0.000143  0.998716  0.0
H  H52  1  0.61608489  0.38666221  0.53471920  1  0.063371  0.000291  0.103754  0.10519  0.000151  0.99807  0.0
H  H53  1  0.89644803  0.39330413  0.62772267  1  0.118281  0.000385  0.109145  0.117223  0.000341  0.989085  0.0
H  H54  1  0.73378977  0.42018840  0.72625183  1  0.053396  7e-06  0.103068  0.103272  -1.6e-05  1.021785  0.0
H  H55  1  0.77239167  0.39973797  0.81149302  1  0.111137  0.000417  0.108663  0.115148  0.000341  0.99977  0.0
H  H56  1  0.77826029  0.02823648  0.05647953  1  0.036685  1.1e-05  0.102231  0.103492  7e-06  1.010501  0.0
H  H57  1  0.99010964  0.24008874  0.48024488  1  0.099742  0.000572  0.11499  0.130587  0.000486  0.986484  0.0
H  H58  1  0.47176430  0.72173974  0.44352070  1  0.036719  1.1e-05  0.102234  0.103503  7e-06  1.010432  0.0
H  H59  1  0.25991130  0.50988895  0.01975538  1  0.099707  0.000572  0.114986  0.130603  0.000486  0.986504  0.0
H  H60  1  0.22174041  0.97176376  0.94352068  1  0.036706  1.1e-05  0.102227  0.103486  7e-06  1.01045  0.0
H  H61  1  0.00988890  0.75991105  0.51975685  1  0.099837  0.000572  0.114997  0.130615  0.000486  0.98647  0.0
H  H62  1  0.52823651  0.27826005  0.55647961  1  0.036711  1.1e-05  0.102233  0.103511  7e-06  1.010461  0.0
H  H63  1  0.74008851  0.49011059  0.98024331  1  0.099851  0.000573  0.114994  0.130602  0.000486  0.986464  0.0
C  C64  1  0.64230020  0.74097354  0.05707091  1  0.009617  0.01681  -0.019803  -0.032379  0.012114  3.969382  0.013
C  C65  1  0.61951015  0.79387448  0.03009428  1  -0.081454  0.000572  -0.079699  -0.084503  0.00015  3.96853  0.001
C  C66  1  0.76424057  0.85627747  0.13197208  1  -0.05998  0.001081  -0.090786  -0.135989  0.000638  3.991073  0.001
C  C67  1  0.74029512  0.91068268  0.10701462  1  -0.020149  -0.001288  -0.000642  0.079835  -0.00146  3.99139  -0.001
C  C68  1  0.66806013  0.87776055  0.05482120  1  0.011413  0.001148  -0.089389  -0.135974  0.000683  3.979107  0.001
C  C69  1  0.71598908  0.77279420  0.10766117  1  -0.099284  0.000801  -0.081115  -0.084205  0.000338  3.98276  0.001
C  C70  1  0.78904973  0.00017670  0.13800073  1  0.002591  8.3e-05  -0.007248  0.077852  3.7e-05  4.024534  0.0
C  C71  1  0.82080883  0.03329504  0.20193910  1  0.009283  0.000188  -0.086883  -0.178627  0.00011  3.929475  0.0
C  C72  1  0.91986044  0.10218885  0.33498278  1  0.004752  0.001389  -0.070496  -0.123903  0.000888  3.895361  0.001
C  C73  1  0.94964923  0.13340568  0.39865185  1  -0.107293  0.01773  -0.014916  -0.021052  0.012582  3.986976  0.014
C  C74  1  0.58884649  0.65210808  0.03434899  1  1.515516  -0.001713  0.217057  0.579876  -0.002138  4.145505  -0.005
C  C75  1  0.96586469  0.08065711  0.43373410  1  1.532069  -0.001845  0.220288  0.587003  -0.002356  4.138426  -0.005
C  C76  1  0.91488649  0.31620375  0.05718833  1  -0.060927  0.016827  -0.019919  -0.035557  0.012128  3.973574  0.013
C  C77  1  0.91065884  0.23632100  0.03014881  1  -0.02386  0.000569  -0.079298  -0.08092  0.000154  3.967748  0.001
C  C78  1  0.86776142  0.27567822  0.13201151  1  0.014864  0.001093  -0.090592  -0.13757  0.000638  3.989383  0.001
C  C79  1  0.86673675  0.19633398  0.10701082  1  -0.091063  -0.001283  -0.000905  0.081019  -0.001454  3.989802  -0.001
C  C80  1  0.88675434  0.17710164  0.05480618  1  -0.035535  0.001156  -0.090333  -0.139057  0.000684  3.977545  0.001
C  C81  1  0.89171028  0.33488541  0.10773273  1  -0.017567  0.000725  -0.080691  -0.081851  0.000335  3.980971  0.001
C  C82  1  0.84900613  0.13784436  0.13799970  1  -0.075767  8.2e-05  -0.006284  0.077376  3.7e-05  4.026918  0.0
C  C83  1  0.88120997  0.16870410  0.20193670  1  0.053199  0.000187  -0.08709  -0.178303  0.00011  3.931225  0.0
C  C84  1  0.91527601  0.23284367  0.33501015  1  0.05117  0.001395  -0.069844  -0.121838  0.000879  3.893401  0.001
C  C85  1  0.94906578  0.26525442  0.39867902  1  -0.124221  0.017778  -0.014636  -0.021796  0.012579  3.990307  0.014
C  C86  1  0.94557735  0.38234790  0.03445579  1  1.509422  -0.001653  0.215723  0.578335  -0.002129  4.143762  -0.005
C  C87  1  0.96792273  0.35308824  0.43376705  1  1.550789  -0.001913  0.220197  0.58788  -0.002363  4.14055  -0.005
C  C88  1  0.75902659  0.85770083  0.44292998  1  0.009624  0.01681  -0.019771  -0.032316  0.012114  3.969369  0.013
C  C89  1  0.70612466  0.88048946  0.46990545  1  -0.081455  0.000572  -0.079738  -0.084564  0.00015  3.968661  0.001
C  C90  1  0.64372262  0.73576018  0.36802892  1  -0.05992  0.001081  -0.090766  -0.13592  0.000638  3.99093  0.001
C  C91  1  0.58931654  0.75970352  0.39298472  1  -0.020197  -0.001288  -0.000631  0.080467  -0.00146  3.991741  -0.001
C  C92  1  0.62223817  0.83193891  0.44517821  1  0.011435  0.001148  -0.089352  -0.135888  0.000683  3.978921  0.001
C  C93  1  0.72720569  0.78401100  0.39233941  1  -0.099267  0.000801  -0.081144  -0.084313  0.000338  3.982793  0.001
C  C94  1  0.49982199  0.71094982  0.36199896  1  0.002608  8.3e-05  -0.00724  0.075791  3.7e-05  4.027623  0.0
C  C95  1  0.46670567  0.67919266  0.29806199  1  0.009232  0.000188  -0.086919  -0.178038  0.00011  3.930179  0.0
C  C96  1  0.39781081  0.58013902  0.16501727  1  0.004854  0.001389  -0.070408  -0.123676  0.000888  3.895442  0.001
C  C97  1  0.36659398  0.55034881  0.10134866  1  -0.107222  0.01773  -0.014958  -0.021139  0.012582  3.98714  0.014
C  C98  1  0.84789231  0.91115450  0.46565112  1  1.515471  -0.001714  0.217087  0.579978  -0.002139  4.145415  -0.005
C  C99  1  0.41934101  0.53413654  0.06626445  1  1.532057  -0.001845  0.220412  0.587185  -0.002357  4.138185  -0.005
C  C100  1  0.18379895  0.58511845  0.44281453  1  -0.061133  0.016827  -0.019904  -0.035526  0.012128  3.973431  0.013
C  C101  1  0.26368139  0.58934294  0.46985173  1  -0.023643  0.00057  -0.079295  -0.080873  0.000154  3.967725  0.001
C  C102  1  0.22432147  0.63223942  0.36798896  1  0.014882  0.001093  -0.090612  -0.137591  0.000638  3.989301  0.001
C  C103  1  0.30366572  0.63326449  0.39298876  1  -0.091253  -0.001283  -0.000902  0.081053  -0.001454  3.989801  -0.001
C  C104  1  0.32289919  0.61324730  0.44519354  1  -0.03554  0.001157  -0.090321  -0.139061  0.000684  3.977577  0.001
C  C105  1  0.16511399  0.60829215  0.39226869  1  -0.017448  0.000725  -0.080711  -0.081885  0.000335  3.980805  0.001
C  C106  1  0.36215508  0.65099427  0.36199954  1  -0.075717  8.2e-05  -0.006298  0.077377  3.7e-05  4.026881  0.0
C  C107  1  0.33129555  0.61879110  0.29806292  1  0.053267  0.000187  -0.087115  -0.178343  0.00011  3.931333  0.0
C  C108  1  0.26715607  0.58472152  0.16498928  1  0.051515  0.001395  -0.069802  -0.121748  0.000879  3.893326  0.001
C  C109  1  0.23474383  0.55092959  0.10132092  1  -0.124241  0.017778  -0.014635  -0.021815  0.012578  3.990434  0.014
C  C110  1  0.11765286  0.55442746  0.46554508  1  1.509499  -0.001653  0.215829  0.578449  -0.00213  4.143531  -0.005
C  C111  1  0.14691086  0.53207071  0.06622925  1  1.5508  -0.001913  0.220079  0.587823  -0.002362  4.140681  -0.005
C  C112  1  0.35769701  0.25902491  0.94292764  1  0.010051  0.016809  -0.019732  -0.032366  0.012115  3.969238  0.013
C  C113  1  0.38048966  0.20612506  0.96990442  1  -0.081546  0.000572  -0.079714  -0.084529  0.000151  3.968808  0.001
C  C114  1  0.23575879  0.14372200  0.86802679  1  -0.059797  0.001081  -0.090769  -0.136522  0.000638  3.990369  0.001
C  C115  1  0.25970220  0.08931721  0.89298343  1  -0.020592  -0.001288  -0.000596  0.082729  -0.001459  3.988627  -0.001
C  C116  1  0.33193875  0.12223863  0.94517657  1  0.011467  0.001148  -0.089383  -0.136666  0.000683  3.978485  0.001
C  C117  1  0.28400902  0.22720439  0.89233705  1  -0.098974  0.000801  -0.08117  -0.084291  0.000338  3.982916  0.001
C  C118  1  0.21095174  0.99982224  0.86199965  1  0.002548  8.3e-05  -0.007288  0.075104  3.6e-05  4.027176  0.0
C  C119  1  0.17919153  0.96670468  0.79806139  1  0.009283  0.000188  -0.086869  -0.177982  0.00011  3.930184  0.0
C  C120  1  0.08013955  0.89781258  0.66501794  1  0.004736  0.001389  -0.070554  -0.123983  0.000888  3.895286  0.001
C  C121  1  0.05035136  0.86659502  0.60134824  1  -0.107347  0.017729  -0.014933  -0.021119  0.012581  3.986958  0.014
C  C122  1  0.41114526  0.34789153  0.96564286  1  1.515101  -0.001709  0.217307  0.580322  -0.002139  4.144588  -0.005
C  C123  1  0.03413771  0.91934466  0.56626842  1  1.531981  -0.001846  0.220372  0.587176  -0.002356  4.138218  -0.005
C  C124  1  0.08511581  0.68379790  0.94281224  1  -0.060185  0.016818  -0.019883  -0.035461  0.012127  3.973379  0.013
C  C125  1  0.08934157  0.76368027  0.96985047  1  -0.023817  0.00057  -0.079357  -0.080961  0.000155  3.967776  0.001
C  C126  1  0.13224062  0.72432034  0.86798881  1  0.014892  0.001092  -0.090544  -0.137494  0.000638  3.989464  0.001
C  C127  1  0.13326506  0.80366303  0.89298805  1  -0.091045  -0.001283  -0.000857  0.081125  -0.001454  3.99003  -0.001
C  C128  1  0.11324788  0.82289767  0.94519248  1  -0.035512  0.001157  -0.090343  -0.139118  0.000684  3.97758  0.001
C  C129  1  0.10829060  0.66511181  0.89226705  1  -0.017488  0.000724  -0.08073  -0.08198  0.000334  3.98106  0.001
C  C130  1  0.15099535  0.86215458  0.86200068  1  -0.075854  8.2e-05  -0.006227  0.077498  3.7e-05  4.026699  0.0
C  C131  1  0.11879140  0.83129530  0.79806356  1  0.053133  0.000187  -0.087144  -0.178406  0.00011  3.93116  0.0
C  C132  1  0.08472324  0.76715494  0.66499107  1  0.051312  0.001395  -0.069815  -0.121871  0.000879  3.893379  0.001
C  C133  1  0.05093279  0.73474503  0.60132213  1  -0.123999  0.017777  -0.014665  -0.021852  0.012579  3.990354  0.014
C  C134  1  0.05442831  0.61764782  0.96553954  1  1.508872  -0.001647  0.215857  0.578607  -0.00213  4.143208  -0.005
C  C135  1  0.03207673  0.64691191  0.56623561  1  1.550432  -0.001912  0.22029  0.588096  -0.002365  4.140212  -0.005
C  C136  1  0.24097417  0.14230175  0.55707213  1  0.009789  0.01681  -0.019814  -0.032467  0.012114  3.969308  0.013
C  C137  1  0.29387555  0.11951105  0.53009549  1  -0.081542  0.000572  -0.079715  -0.084549  0.00015  3.968615  0.001
C  C138  1  0.35627845  0.26424081  0.63197226  1  -0.060136  0.001081  -0.090767  -0.135949  0.000638  3.99097  0.001
C  C139  1  0.41068330  0.24029625  0.60701524  1  -0.020095  -0.001288  -0.000593  0.080535  -0.00146  3.991739  -0.001
C  C140  1  0.37776141  0.16806022  0.55482272  1  0.01144  0.001148  -0.089384  -0.1359  0.000683  3.979095  0.001
C  C141  1  0.27279545  0.21598988  0.60766247  1  -0.099312  0.000801  -0.081142  -0.084196  0.000338  3.982812  0.001
C  C142  1  0.50017775  0.28904795  0.63799967  1  0.002466  8.3e-05  -0.007272  0.075773  3.6e-05  4.027626  0.0
C  C143  1  0.53329507  0.32080724  0.70193763  1  0.009271  0.000188  -0.086875  -0.177956  0.00011  3.930179  0.0
C  C144  1  0.60218725  0.41986237  0.83498275  1  0.004879  0.001389  -0.070535  -0.123936  0.000888  3.895388  0.001
C  C145  1  0.63340567  0.44964831  0.89865359  1  -0.107372  0.01773  -0.014989  -0.021159  0.012582  3.98704  0.014
C  C146  1  0.15210830  0.08885191  0.53435452  1  1.515342  -0.001711  0.217346  0.580384  -0.00214  4.144728  -0.005
C  C147  1  0.58065308  0.46586221  0.93373098  1  1.532014  -0.001846  0.220439  0.587275  -0.002358  4.138118  -0.005
C  C148  1  0.81620078  0.41488424  0.55718654  1  -0.060709  0.016822  -0.019879  -0.035523  0.012127  3.973478  0.013
C  C149  1  0.73631848  0.41065894  0.53014888  1  -0.023801  0.00057  -0.079332  -0.081048  0.000155  3.967813  0.001
C  C150  1  0.77567967  0.36776089  0.63201108  1  0.014851  0.001092  -0.090521  -0.137447  0.000638  3.989387  0.001
C  C151  1  0.69633714  0.36673677  0.60701175  1  -0.091005  -0.001283  -0.000908  0.081041  -0.001454  3.989969  -0.001
C  C152  1  0.67710188  0.38675369  0.55480765  1  -0.035534  0.001156  -0.090371  -0.139014  0.000684  3.977566  0.001
C  C153  1  0.83488771  0.39171023  0.60773251  1  -0.017411  0.000725  -0.080776  -0.081948  0.000335  3.980891  0.001
C  C154  1  0.63784655  0.34900577  0.63799975  1  -0.076005  8.2e-05  -0.006214  0.077382  3.7e-05  4.026819  0.0
C  C155  1  0.66870496  0.38120972  0.70193649  1  0.05328  0.000187  -0.08709  -0.17823  0.00011  3.931246  0.0
C  C156  1  0.73284444  0.41527684  0.83500890  1  0.051327  0.001394  -0.06979  -0.121805  0.000879  3.893421  0.001
C  C157  1  0.76525486  0.44907073  0.89867789  1  -0.124437  0.017778  -0.014627  -0.021846  0.012579  3.990471  0.014
C  C158  1  0.88234735  0.44557117  0.53445649  1  1.509291  -0.001648  0.215826  0.57858  -0.002129  4.143238  -0.005
C  C159  1  0.85308717  0.46792252  0.93376399  1  1.550981  -0.001914  0.220266  0.58803  -0.002365  4.14021  -0.005
C  C160  1  0.80315278  0.05312663  0.10624469  1  -0.010593  0.000186  -0.086422  -0.178044  0.000123  3.923791  0.0
C  C161  1  0.86741898  0.11740275  0.23473775  1  -0.023508  0.000414  -0.009056  0.078199  0.000259  4.034523  0.0
C  C162  1  0.90119023  0.15113027  0.30218603  1  -0.045263  0.002038  -0.002418  0.068793  0.001242  3.998886  0.001
C  C163  1  0.96537582  0.21534446  0.43070689  1  0.073201  0.003097  -0.067721  -0.092067  0.002243  3.899277  0.002
C  C164  1  0.44687061  0.69684614  0.39375436  1  -0.010604  0.000187  -0.0864  -0.17737  0.000123  3.924376  0.0
C  C165  1  0.38259791  0.63258224  0.26526213  1  -0.023558  0.000414  -0.009056  0.078267  0.000259  4.034485  0.0
C  C166  1  0.34887069  0.59880925  0.19781500  1  -0.045513  0.002039  -0.002495  0.068641  0.001242  3.999064  0.001
C  C167  1  0.28465286  0.53461978  0.06929255  1  0.073166  0.003097  -0.067766  -0.092183  0.002242  3.899413  0.002
C  C168  1  0.19684773  0.94687229  0.89375533  1  -0.010577  0.000187  -0.086401  -0.177426  0.000123  3.924511  0.0
C  C169  1  0.13258171  0.88259750  0.76526245  1  -0.023511  0.000414  -0.009084  0.078175  0.000259  4.03446  0.0
C  C170  1  0.09881143  0.84887000  0.69781453  1  -0.045498  0.002039  -0.002393  0.068816  0.001242  3.998827  0.001
C  C171  1  0.03462684  0.78465605  0.56929529  1  0.073246  0.003098  -0.067728  -0.092072  0.002243  3.899315  0.002
C  C172  1  0.55312841  0.30315282  0.60624479  1  -0.010578  0.000186  -0.08644  -0.177424  0.000123  3.924407  0.0
C  C173  1  0.61740194  0.36741942  0.73473722  1  -0.058504  0.000425  -0.009065  0.078161  0.000259  4.034498  0.0
C  C174  1  0.65112985  0.40118991  0.80218629  1  -0.010509  0.002028  -0.002435  0.068755  0.001242  3.998959  0.001
C  C175  1  0.71534301  0.46537356  0.93070407  1  0.073453  0.003097  -0.067697  -0.092028  0.002244  3.899371  0.002
O  O176  1  0.61143925  0.61115241  0.06598017  1  -1.096613  0.104858  -0.319058  -0.527666  0.067268  2.334253  0.095
O  O177  1  0.97734777  0.01679874  0.40736061  1  -1.090992  0.103027  -0.315366  -0.515134  0.066343  2.294572  0.094
O  O178  1  0.52443394  0.62314160  0.98591139  1  -1.084505  0.104183  -0.316149  -0.517601  0.066918  2.303703  0.094
O  O179  1  0.96701527  0.10457723  0.48813110  1  -1.0944  0.102531  -0.314326  -0.521362  0.06587  2.332052  0.094
O  O180  1  0.95466745  0.45494768  0.06610442  1  -1.093854  0.105011  -0.318564  -0.52634  0.067519  2.334478  0.096
O  O181  1  0.93007409  0.39055234  0.40736180  1  -1.091035  0.103118  -0.315166  -0.515718  0.06652  2.297891  0.094
O  O182  1  0.96142279  0.36285133  0.98597211  1  -1.091767  0.104017  -0.315732  -0.517049  0.066844  2.301366  0.094
O  O183  1  0.02115188  0.38357744  0.48817301  1  -1.100422  0.102418  -0.314221  -0.521417  0.065832  2.332031  0.094
O  O184  1  0.88884836  0.88856403  0.43402172  1  -1.096594  0.104856  -0.319089  -0.527709  0.067266  2.334407  0.095
O  O185  1  0.48320094  0.52265150  0.09264071  1  -1.090963  0.103046  -0.315457  -0.515294  0.066356  2.29416  0.094
O  O186  1  0.87685759  0.97556708  0.51409075  1  -1.08445  0.104188  -0.316139  -0.517629  0.066921  2.303492  0.094
O  O187  1  0.39542504  0.53298276  0.01186919  1  -1.094416  0.102514  -0.314351  -0.521379  0.065859  2.332259  0.094
O  O188  1  0.04505217  0.54533183  0.43389861  1  -1.093935  0.105002  -0.318578  -0.526392  0.067514  2.334582  0.096
O  O189  1  0.10945016  0.56992485  0.09263909  1  -1.09089  0.103131  -0.315089  -0.515652  0.066528  2.297734  0.094
O  O190  1  0.13715531  0.53858220  0.51403037  1  -1.091763  0.104022  -0.315772  -0.517036  0.066848  2.301177  0.094
O  O191  1  0.11641817  0.47884742  0.01182451  1  -1.10067  0.102405  -0.314194  -0.521445  0.065823  2.332343  0.094
O  O192  1  0.38856780  0.38885323  0.93402024  1  -1.096582  0.104833  -0.319094  -0.527678  0.067254  2.334532  0.095
O  O193  1  0.02265118  0.98320222  0.59263723  1  -1.090955  0.103021  -0.31539  -0.51519  0.066341  2.294624  0.094
O  O194  1  0.47555850  0.37685041  0.01408610  1  -1.084375  0.1042  -0.316356  -0.517969  0.066931  2.302707  0.094
O  O195  1  0.03298550  0.89541912  0.51187103  1  -1.094227  0.102539  -0.31437  -0.52142  0.065876  2.331867  0.094
O  O196  1  0.04532546  0.54504633  0.93389970  1  -1.094223  0.104979  -0.318621  -0.526545  0.067501  2.334741  0.096
O  O197  1  0.06992493  0.60944718  0.59263919  1  -1.090802  0.103112  -0.315134  -0.515718  0.066517  2.297963  0.094
O  O198  1  0.03858122  0.63715883  0.01402646  1  -1.091788  0.104045  -0.315814  -0.517153  0.066862  2.300835  0.094
O  O199  1  0.97884602  0.61642720  0.51182869  1  -1.100417  0.102423  -0.314323  -0.521549  0.065835  2.331778  0.094
O  O200  1  0.11114806  0.11143441  0.56597912  1  -1.096473  0.104835  -0.319096  -0.527686  0.067255  2.334445  0.095
O  O201  1  0.51679702  0.47734793  0.90736539  1  -1.091031  0.10301  -0.315416  -0.515203  0.066334  2.294824  0.094
O  O202  1  0.12314786  0.02443829  0.48591298  1  -1.084503  0.104197  -0.316365  -0.518013  0.066929  2.30294  0.094
O  O203  1  0.60458570  0.46701238  0.98812939  1  -1.094224  0.102549  -0.314381  -0.521467  0.065883  2.331594  0.094
O  O204  1  0.95495068  0.45467321  0.56610066  1  -1.093954  0.104995  -0.31862  -0.526467  0.067511  2.334612  0.096
O  O205  1  0.89055502  0.43007800  0.90736622  1  -1.091054  0.103098  -0.315168  -0.515762  0.066507  2.298077  0.094
O  O206  1  0.86284251  0.46141878  0.48597188  1  -1.09184  0.104033  -0.315774  -0.517129  0.066855  2.300916  0.094
O  O207  1  0.88356776  0.52115681  0.98817382  1  -1.100537  0.102442  -0.314312  -0.521512  0.065846  2.331555  0.094
