# generated using pymatgen
data_ZnH10C7N8
_symmetry_space_group_name_H-M   'P 1'
_cell_length_a   9.59111518
_cell_length_b   9.59105803
_cell_length_c   20.68174330
_cell_angle_alpha   90.01053707
_cell_angle_beta   89.98941516
_cell_angle_gamma   119.99222445
_symmetry_Int_Tables_number   1
_chemical_formula_structural   ZnH10C7N8
_chemical_formula_sum   'Zn6 H60 C42 N48'
_cell_volume   1647.73517350
_cell_formula_units_Z   6
loop_
 _symmetry_equiv_pos_site_id
 _symmetry_equiv_pos_as_xyz
  1  'x, y, z'
loop_
 _atom_site_type_symbol
 _atom_site_label
 _atom_site_symmetry_multiplicity
 _atom_site_fract_x
 _atom_site_fract_y
 _atom_site_fract_z
 _atom_site_occupancy
 _atom_site_pbe_bader_charge
 _atom_site_pbe_bader_spin_density
 _atom_site_pbe_cm5_charge
 _atom_site_pbe_ddec_charge
 _atom_site_pbe_ddec_spin_density
 _atom_site_pbe_ddec_sum_bond_order
 _atom_site_pbe_magmom
Zn  Zn0  1  0.93314775  0.51237341  0.41629385  1  1.184338  0  0.74435  0.667602  0  2.582265  0
Zn  Zn1  1  0.48767615  0.42085676  0.74955185  1  1.187655  0  0.744332  0.668248  0  2.581467  0
Zn  Zn2  1  0.57925759  0.06681945  0.08292059  1  1.185053  0  0.744159  0.667632  0  2.581813  0
Zn  Zn3  1  0.51237195  0.93314764  0.58370478  1  1.184375  0  0.744369  0.667629  0  2.582242  0
Zn  Zn4  1  0.42085536  0.48767516  0.25044881  1  1.187681  0  0.744314  0.668212  0  2.581515  0
Zn  Zn5  1  0.06681690  0.57926043  0.91707866  1  1.185103  0  0.744136  0.667574  0  2.581844  0
H  H6  1  0.98218341  0.63633448  0.55948519  1  0.500013  0  0.282883  0.277813  0  1.041846  0
H  H7  1  0.36364923  0.34587020  0.89276144  1  0.495198  0  0.283086  0.277938  0  1.041508  0
H  H8  1  0.65418949  0.01780339  0.22613431  1  0.500556  0  0.282942  0.277581  0  1.042337  0
H  H9  1  0.63633252  0.98218347  0.44051438  1  0.5  0  0.282862  0.277784  0  1.041934  0
H  H10  1  0.34586574  0.36364920  0.10724118  1  0.495184  0  0.28308  0.277932  0  1.041508  0
H  H11  1  0.01780855  0.65419291  0.77386397  1  0.500543  0  0.282942  0.277563  0  1.042346  0
H  H12  1  0.13947311  0.79674103  0.59990272  1  0.498475  0  0.28931  0.28917  0  1.008626  0
H  H13  1  0.20320898  0.34276407  0.93316908  1  0.492574  0  0.289153  0.288705  0  1.008867  0
H  H14  1  0.65728331  0.86048796  0.26653548  1  0.486676  0  0.289269  0.288753  0  1.009024  0
H  H15  1  0.79673645  0.13947026  0.40009697  1  0.49849  0  0.289321  0.289166  0  1.008627  0
H  H16  1  0.34276116  0.20320986  0.06683308  1  0.492645  0  0.289172  0.288721  0  1.008839  0
H  H17  1  0.86049041  0.65728378  0.73346314  1  0.486656  0  0.289247  0.288706  0  1.009056  0
H  H18  1  0.92435045  0.06184590  0.24005229  1  0.49802  0  0.297528  0.301362  0  0.988578  0
H  H19  1  0.93820688  0.86246241  0.57337330  1  0.461857  0  0.297375  0.301018  0  0.9892  0
H  H20  1  0.13749391  0.07572061  0.90676276  1  0.459125  0  0.297211  0.300666  0  0.989119  0
H  H21  1  0.06184944  0.92434989  0.75994690  1  0.498035  0  0.297533  0.301385  0  0.98856  0
H  H22  1  0.86246459  0.93821423  0.42662817  1  0.461776  0  0.297397  0.301034  0  0.989229  0
H  H23  1  0.07570443  0.13748742  0.09323705  1  0.459289  0  0.297266  0.300691  0  0.98908  0
H  H24  1  0.12070492  0.16756415  0.21462413  1  0.462221  0  0.303898  0.299136  0  0.975237  0
H  H25  1  0.83251320  0.95315973  0.54795885  1  0.453711  0  0.304114  0.299295  0  0.975366  0
H  H26  1  0.04682772  0.87931832  0.88139234  1  0.459964  0  0.303884  0.298366  0  0.975194  0
H  H27  1  0.16757119  0.12070870  0.78537469  1  0.462287  0  0.303896  0.299104  0  0.975229  0
H  H28  1  0.95315788  0.83252006  0.45204020  1  0.45393  0  0.304137  0.299329  0  0.975396  0
H  H29  1  0.87930505  0.04682216  0.11860831  1  0.459895  0  0.303859  0.298291  0  0.975143  0
H  H30  1  0.28583750  0.75869728  0.31653712  1  0.112224  0  0.102596  0.127847  0  1.009039  0
H  H31  1  0.24126162  0.52721625  0.64989896  1  0.109795  0  0.102781  0.128507  0  1.009088  0
H  H32  1  0.47274599  0.71394932  0.98325042  1  0.112849  0  0.102648  0.128028  0  1.008524  0
H  H33  1  0.75869764  0.28584122  0.68346158  1  0.112262  0  0.102582  0.127856  0  1.00903  0
H  H34  1  0.52722474  0.24127117  0.35010075  1  0.109945  0  0.102792  0.128508  0  1.009036  0
H  H35  1  0.71394776  0.47275076  0.01674921  1  0.112817  0  0.102633  0.127965  0  1.008604  0
H  H36  1  0.42184694  0.69872121  0.34514376  1  0.109156  0  0.109823  0.129001  0  1.037043  0
H  H37  1  0.30122355  0.72319599  0.67846767  1  0.117021  0  0.109885  0.129473  0  1.037012  0
H  H38  1  0.27674605  0.57804276  0.01184266  1  0.129192  0  0.109867  0.129294  0  1.037175  0
H  H39  1  0.69872264  0.42185203  0.65485540  1  0.109097  0  0.109797  0.128953  0  1.037065  0
H  H40  1  0.72320546  0.30123269  0.32153200  1  0.117256  0  0.109869  0.129432  0  1.037029  0
H  H41  1  0.57804254  0.27675325  0.98815655  1  0.129224  0  0.109901  0.129278  0  1.037163  0
H  H42  1  0.03621617  0.81328107  0.27523216  1  0.052486  0  0.091237  0.127589  0  1.019891  0
H  H43  1  0.18638671  0.22279209  0.60865767  1  0.048444  0  0.091389  0.128026  0  1.019823  0
H  H44  1  0.77719887  0.96374990  0.94195750  1  0.059309  0  0.09138  0.127898  0  1.019688  0
H  H45  1  0.81326777  0.03619222  0.72477237  1  0.052737  0  0.091202  0.127571  0  1.019908  0
H  H46  1  0.22280422  0.18639126  0.39134790  1  0.048578  0  0.091443  0.128062  0  1.019939  0
H  H47  1  0.96372996  0.77717663  0.05804011  1  0.059699  0  0.091367  0.127932  0  1.019574  0
H  H48  1  0.23089721  0.00182507  0.26514329  1  0.09303  0  0.088214  0.118072  0  1.04786  0
H  H49  1  0.99788623  0.22902186  0.59843373  1  0.044732  0  0.08826  0.118545  0  1.047401  0
H  H50  1  0.77084051  0.76895025  0.93176650  1  0.047824  0  0.088364  0.118363  0  1.048119  0
H  H51  1  0.00181661  0.23087203  0.73485361  1  0.09305  0  0.088233  0.118045  0  1.047862  0
H  H52  1  0.22902868  0.99788270  0.40157074  1  0.044718  0  0.088299  0.118542  0  1.047409  0
H  H53  1  0.76894016  0.77082732  0.06823114  1  0.047626  0  0.088351  0.118367  0  1.048046  0
H  H54  1  0.11561034  0.68443531  0.18907958  1  0.076522  0  0.092437  0.124211  0  1.018469  0
H  H55  1  0.31545985  0.43080132  0.52246812  1  0.02704  0  0.092253  0.123972  0  1.018659  0
H  H56  1  0.56916338  0.88482024  0.85576194  1  0.041519  0  0.092411  0.124084  0  1.018445  0
H  H57  1  0.68443505  0.11560885  0.81092254  1  0.076465  0  0.09242  0.124193  0  1.018427  0
H  H58  1  0.43083196  0.31545294  0.47753353  1  0.027489  0  0.092236  0.123874  0  1.018553  0
H  H59  1  0.88481405  0.56916097  0.14424539  1  0.042006  0  0.092427  0.124126  0  1.018436  0
H  H60  1  0.30876252  0.87522579  0.17889897  1  0.069615  0  0.086343  0.113342  0  1.073319  0
H  H61  1  0.12474237  0.43325061  0.51215818  1  0.081161  0  0.086289  0.113406  0  1.072487  0
H  H62  1  0.56662300  0.69157989  0.84550364  1  0.062683  0  0.08621  0.113516  0  1.072824  0
H  H63  1  0.87523298  0.30876399  0.82109535  1  0.069518  0  0.086395  0.113373  0  1.073318  0
H  H64  1  0.43326938  0.12473247  0.48784012  1  0.08086  0  0.086209  0.113328  0  1.072605  0
H  H65  1  0.69157439  0.56663254  0.15450228  1  0.062834  0  0.086195  0.113446  0  1.072995  0
C  C66  1  0.19149262  0.75301327  0.50936415  1  1.455054  0  0.317543  0.51437  0  4.109116  0
C  C67  1  0.24706452  0.43864527  0.84266782  1  1.451339  0  0.317842  0.513981  0  4.1086  0
C  C68  1  0.56144140  0.80843954  0.17602857  1  1.505722  0  0.317579  0.51399  0  4.108551  0
C  C69  1  0.75301263  0.19149494  0.49063553  1  1.454996  0  0.317484  0.514313  0  4.109172  0
C  C70  1  0.43864428  0.24706667  0.15733481  1  1.450954  0  0.317815  0.513862  0  4.108655  0
C  C71  1  0.80844316  0.56144606  0.82397056  1  1.505893  0  0.317538  0.513919  0  4.108607  0
C  C72  1  0.28559921  0.72352103  0.41859761  1  1.006844  0  0.210268  0.346571  0  4.021906  0
C  C73  1  0.27660930  0.56230675  0.75193918  1  0.993474  0  0.210598  0.347081  0  4.022257  0
C  C74  1  0.43774387  0.71435244  0.08530057  1  0.988489  0  0.210337  0.346619  0  4.020999  0
C  C75  1  0.72352411  0.28560310  0.58140206  1  1.006623  0  0.210304  0.346641  0  4.02173  0
C  C76  1  0.56231382  0.27661650  0.24806052  1  0.99341  0  0.210694  0.3472  0  4.022169  0
C  C77  1  0.71435434  0.43774955  0.91469956  1  0.988823  0  0.210305  0.346612  0  4.021114  0
C  C78  1  0.29876959  0.67748836  0.35081935  1  -0.041205  0  -0.145861  -0.33398  0  3.951659  0
C  C79  1  0.32255361  0.62140617  0.68414613  1  -0.020027  0  -0.14632  -0.336178  0  3.95433  0
C  C80  1  0.37858032  0.70112436  0.01750411  1  -0.042661  0  -0.145886  -0.334965  0  3.95124  0
C  C81  1  0.67748844  0.29877275  0.64918033  1  -0.042041  0  -0.145867  -0.334038  0  3.951699  0
C  C82  1  0.62141238  0.32255917  0.31585258  1  -0.020222  0  -0.14627  -0.33606  0  3.954215  0
C  C83  1  0.70112358  0.37858785  0.98249507  1  -0.043181  0  -0.145935  -0.334836  0  3.951318  0
C  C84  1  0.17873280  0.50798797  0.33251366  1  1.039318  0  0.213836  0.34856  0  4.011615  0
C  C85  1  0.49203463  0.67083536  0.66581028  1  1.020181  0  0.213806  0.348846  0  4.01174  0
C  C86  1  0.32920789  0.82124490  0.99917575  1  1.01439  0  0.213759  0.349466  0  4.010879  0
C  C87  1  0.50798620  0.17873416  0.66748510  1  1.039605  0  0.213848  0.348567  0  4.011668  0
C  C88  1  0.67084017  0.49204086  0.33418840  1  1.020049  0  0.21367  0.348545  0  4.011964  0
C  C89  1  0.82124315  0.32920992  0.00082341  1  1.014463  0  0.213787  0.349403  0  4.01088  0
C  C90  1  0.06306669  0.27497901  0.28652460  1  1.509442  0  0.313624  0.518322  0  4.135382  0
C  C91  1  0.72504832  0.78809684  0.61982219  1  1.49217  0  0.313261  0.51784  0  4.134562  0
C  C92  1  0.21190450  0.93702561  0.95324818  1  1.509775  0  0.313058  0.517378  0  4.135967  0
C  C93  1  0.27498347  0.06306929  0.71347470  1  1.509196  0  0.31362  0.518219  0  4.135389  0
C  C94  1  0.78809810  0.72505721  0.38017594  1  1.492339  0  0.313304  0.517941  0  4.134578  0
C  C95  1  0.93701657  0.21190044  0.04675195  1  1.509691  0  0.313082  0.517361  0  4.135917  0
C  C96  1  0.15175558  0.87743090  0.25027700  1  -0.131056  0  -0.183429  -0.233834  0  3.932392  0
C  C97  1  0.12232327  0.27420642  0.58365412  1  -0.10048  0  -0.183803  -0.235189  0  3.931448  0
C  C98  1  0.72574763  0.84826541  0.91695831  1  -0.066821  0  -0.18376  -0.234478  0  3.932907  0
C  C99  1  0.87742151  0.15173865  0.74972073  1  -0.131439  0  -0.183444  -0.23379  0  3.932665  0
C  C100  1  0.27422189  0.12232509  0.41634856  1  -0.101027  0  -0.18392  -0.235273  0  3.931783  0
C  C101  1  0.84824971  0.72573016  0.08304416  1  -0.066943  0  -0.183622  -0.234381  0  3.932775  0
C  C102  1  0.19374854  0.80908266  0.20383226  1  -0.146604  0  -0.18326  -0.228175  0  3.916602  0
C  C103  1  0.19081365  0.38445093  0.53719125  1  -0.085876  0  -0.18285  -0.227619  0  3.915205  0
C  C104  1  0.61553967  0.80654648  0.87049082  1  -0.129992  0  -0.183127  -0.228369  0  3.916523  0
C  C105  1  0.80908251  0.19374436  0.79616451  1  -0.146341  0  -0.18326  -0.2282  0  3.916892  0
C  C106  1  0.38447173  0.19080945  0.46280849  1  -0.08522  0  -0.182729  -0.227407  0  3.91526  0
C  C107  1  0.80653562  0.61552887  0.12951555  1  -0.130823  0  -0.183242  -0.228494  0  3.916711  0
N  N108  1  0.35244180  0.82674557  0.51407661  1  -0.815223  0  -0.292065  -0.319508  0  3.531929  0
N  N109  1  0.17329582  0.52584248  0.84741178  1  -0.814314  0  -0.292144  -0.319781  0  3.531596  0
N  N110  1  0.47421974  0.64749905  0.18076147  1  -0.860525  0  -0.291685  -0.319415  0  3.530108  0
N  N111  1  0.82674516  0.35244287  0.48592206  1  -0.815298  0  -0.292109  -0.319586  0  3.532102  0
N  N112  1  0.52584156  0.17329809  0.15258939  1  -0.814177  0  -0.292103  -0.319744  0  3.531577  0
N  N113  1  0.64750241  0.47422556  0.81923818  1  -0.860902  0  -0.291688  -0.319423  0  3.530209  0
N  N114  1  0.41282826  0.80870768  0.45561539  1  -0.76596  0  -0.249063  -0.288232  0  3.228707  0
N  N115  1  0.19134747  0.60429458  0.78896766  1  -0.768345  0  -0.249082  -0.287586  0  3.228018  0
N  N116  1  0.39573357  0.58712073  0.12231748  1  -0.769611  0  -0.2494  -0.288127  0  3.227509  0
N  N117  1  0.80871143  0.41283005  0.54438327  1  -0.765737  0  -0.249048  -0.288209  0  3.228626  0
N  N118  1  0.60429732  0.19135138  0.21103253  1  -0.768229  0  -0.249164  -0.287671  0  3.22803  0
N  N119  1  0.58712442  0.39574279  0.87768268  1  -0.769525  0  -0.249366  -0.288139  0  3.227687  0
N  N120  1  0.14438033  0.68713183  0.44941580  1  -1.256428  0  -0.383253  -0.486409  0  3.453483  0
N  N121  1  0.31297944  0.45745099  0.78272548  1  -1.250997  0  -0.383316  -0.486451  0  3.454398  0
N  N122  1  0.54264102  0.85555089  0.11608916  1  -1.266718  0  -0.383214  -0.486193  0  3.45321  0
N  N123  1  0.68713246  0.14438347  0.55058342  1  -1.256317  0  -0.383224  -0.486344  0  3.453458  0
N  N124  1  0.45745329  0.31298280  0.21727665  1  -1.250856  0  -0.383404  -0.486499  0  3.454478  0
N  N125  1  0.85555378  0.54264747  0.88390996  1  -1.26666  0  -0.383173  -0.486151  0  3.453153  0
N  N126  1  0.08687345  0.74726842  0.55608644  1  -1.32263  0  -0.586162  -0.660712  0  3.304357  0
N  N127  1  0.25273323  0.33968352  0.88935426  1  -1.296585  0  -0.58659  -0.660445  0  3.302986  0
N  N128  1  0.66037635  0.91306754  0.22272457  1  -1.288496  0  -0.58659  -0.660409  0  3.304725  0
N  N129  1  0.74726602  0.08687238  0.44391326  1  -1.322615  0  -0.586119  -0.660663  0  3.30438  0
N  N130  1  0.33967926  0.25273174  0.11064838  1  -1.296638  0  -0.58658  -0.660393  0  3.302886  0
N  N131  1  0.91307262  0.66037967  0.77727355  1  -1.288361  0  -0.586578  -0.660332  0  3.304716  0
N  N132  1  0.20757983  0.41678349  0.29005559  1  -1.266197  0  -0.380156  -0.477821  0  3.46379  0
N  N133  1  0.58322607  0.79080919  0.62334651  1  -1.290067  0  -0.379549  -0.477048  0  3.462503  0
N  N134  1  0.20916558  0.79246713  0.95674807  1  -1.253848  0  -0.379565  -0.477442  0  3.463111  0
N  N135  1  0.41678471  0.20758154  0.70994463  1  -1.265741  0  -0.380153  -0.477778  0  3.463774  0
N  N136  1  0.79081316  0.58323471  0.37665164  1  -1.290025  0  -0.379548  -0.476974  0  3.462563  0
N  N137  1  0.79246176  0.20916581  0.04325112  1  -1.253947  0  -0.37959  -0.477453  0  3.463186  0
N  N138  1  0.02764368  0.42739791  0.35303965  1  -0.863448  0  -0.285643  -0.264854  0  3.595309  0
N  N139  1  0.57262083  0.60030846  0.68632767  1  -0.851831  0  -0.286351  -0.265498  0  3.596518  0
N  N140  1  0.39974447  0.97233424  0.01971196  1  -0.863045  0  -0.285382  -0.2646  0  3.594988  0
N  N141  1  0.42739829  0.02764629  0.64695818  1  -0.86337  0  -0.28566  -0.264862  0  3.595281  0
N  N142  1  0.60031315  0.57262698  0.31367149  1  -0.851652  0  -0.2863  -0.265319  0  3.596437  0
N  N143  1  0.97233457  0.39974584  0.98028813  1  -0.862985  0  -0.285354  -0.264553  0  3.594906  0
N  N144  1  0.95099253  0.27604594  0.32468232  1  -0.751415  0  -0.266369  -0.355318  0  3.150074  0
N  N145  1  0.72397017  0.67496703  0.65797277  1  -0.759671  0  -0.26569  -0.354589  0  3.151052  0
N  N146  1  0.32505973  0.04904425  0.99139097  1  -0.770933  0  -0.266485  -0.355696  0  3.15145  0
N  N147  1  0.27604817  0.95099764  0.67531731  1  -0.751385  0  -0.266387  -0.355297  0  3.150021  0
N  N148  1  0.67496926  0.72397958  0.34202587  1  -0.759923  0  -0.265678  -0.35466  0  3.151082  0
N  N149  1  0.04903922  0.32505540  0.00860978  1  -0.770903  0  -0.266516  -0.35568  0  3.151321  0
N  N150  1  0.04054945  0.14599990  0.25058495  1  -1.307118  0  -0.588545  -0.654334  0  3.313513  0
N  N151  1  0.85404181  0.89452964  0.58390305  1  -1.238995  0  -0.588778  -0.654035  0  3.314089  0
N  N152  1  0.10542336  0.95952907  0.91732834  1  -1.249263  0  -0.587925  -0.652085  0  3.312845  0
N  N153  1  0.14600089  0.04055039  0.74941631  1  -1.306901  0  -0.588561  -0.654295  0  3.313401  0
N  N154  1  0.89453110  0.85405063  0.41609649  1  -1.23939  0  -0.588867  -0.654138  0  3.314112  0
N  N155  1  0.95951563  0.10541577  0.08267132  1  -1.249194  0  -0.58796  -0.652024  0  3.312711  0
