# generated using pymatgen
data_ZnH8C14(NO2)2
_symmetry_space_group_name_H-M   'P 1'
_cell_length_a   7.66550700
_cell_length_b   11.21233867
_cell_length_c   16.81267539
_cell_angle_alpha   90.00683730
_cell_angle_beta   89.99741055
_cell_angle_gamma   90.00086346
_symmetry_Int_Tables_number   1
_chemical_formula_structural   ZnH8C14(NO2)2
_chemical_formula_sum   'Zn4 H32 C56 N8 O16'
_cell_volume   1445.02019274
_cell_formula_units_Z   4
loop_
 _symmetry_equiv_pos_site_id
 _symmetry_equiv_pos_as_xyz
  1  'x, y, z'
loop_
 _atom_site_type_symbol
 _atom_site_label
 _atom_site_symmetry_multiplicity
 _atom_site_fract_x
 _atom_site_fract_y
 _atom_site_fract_z
 _atom_site_occupancy
 _atom_site_pbe_bader_charge
 _atom_site_pbe_bader_spin_density
 _atom_site_pbe_cm5_charge
 _atom_site_pbe_ddec_charge
 _atom_site_pbe_ddec_spin_density
 _atom_site_pbe_ddec_sum_bond_order
 _atom_site_pbe_magmom
Zn  Zn0  1  0.76329648  0.82278305  0.99296987  1  1.322724  0  0.722114  0.896243  0  2.266338  0
Zn  Zn1  1  0.73649601  0.17710303  0.49300007  1  1.322311  0  0.722169  0.896555  0  2.266213  0
Zn  Zn2  1  0.23651656  0.32287976  0.50699189  1  1.322185  0  0.722148  0.896693  0  2.265932  0
Zn  Zn3  1  0.26331449  0.67717845  0.00703338  1  1.322263  0  0.722175  0.896206  0  2.266355  0
H  H4  1  0.77300745  0.76644845  0.75741961  1  0.106626  0  0.105582  0.111616  0  1.021106  0
H  H5  1  0.77430401  0.60606373  0.35479898  1  0.09057  0  0.116945  0.132244  0  0.964448  0
H  H6  1  0.06362629  0.41558895  0.12162431  1  0.085126  0  0.112597  0.119577  0  0.977434  0
H  H7  1  0.64476931  0.83366640  0.62800297  1  0.088229  0  0.113897  0.12438  0  0.982439  0
H  H8  1  0.09594546  0.32797122  0.25637205  1  0.097746  0  0.103358  0.105699  0  1.04634  0
H  H9  1  0.72943123  0.68695731  0.21829126  1  0.067333  0  0.105395  0.101799  0  1.029585  0
H  H10  1  0.04526307  0.09906356  0.77962845  1  0.110204  0  0.107108  0.112263  0  1.004637  0
H  H11  1  0.93433832  0.16358102  0.64585319  1  0.146519  0  0.108891  0.130746  0  1.038436  0
H  H12  1  0.72720354  0.23348354  0.25744445  1  0.090921  0  0.105494  0.111412  0  1.020938  0
H  H13  1  0.72562546  0.39407702  0.85481577  1  0.091673  0  0.116943  0.132304  0  0.964316  0
H  H14  1  0.43653557  0.58454595  0.62162623  1  0.084952  0  0.112592  0.119689  0  0.977486  0
H  H15  1  0.85545298  0.16619698  0.12802186  1  0.0895  0  0.113854  0.124525  0  0.981869  0
H  H16  1  0.40442059  0.67234301  0.75636386  1  0.097191  0  0.103159  0.105221  0  1.04643  0
H  H17  1  0.77036093  0.31304630  0.71830508  1  0.06827  0  0.105474  0.102201  0  1.028913  0
H  H18  1  0.45464961  0.90099588  0.27959738  1  0.110951  0  0.107116  0.112278  0  1.004901  0
H  H19  1  0.56564954  0.83637971  0.14583699  1  0.145918  0  0.108813  0.130504  0  1.038577  0
H  H20  1  0.22721665  0.26650549  0.74254810  1  0.090987  0  0.105416  0.111428  0  1.021077  0
H  H21  1  0.22559859  0.10591289  0.14516131  1  0.091011  0  0.116941  0.132331  0  0.964307  0
H  H22  1  0.93648824  0.91546371  0.37836394  1  0.084678  0  0.112596  0.119716  0  0.977461  0
H  H23  1  0.35546818  0.33378847  0.87196414  1  0.088934  0  0.113829  0.124511  0  0.98189  0
H  H24  1  0.90436089  0.82766933  0.24362988  1  0.09675  0  0.10319  0.105339  0  1.04649  0
H  H25  1  0.27033927  0.18695610  0.28166725  1  0.068354  0  0.105472  0.102249  0  1.028814  0
H  H26  1  0.95469795  0.59900486  0.72040528  1  0.110508  0  0.107135  0.112377  0  1.004977  0
H  H27  1  0.06570774  0.66362014  0.85416032  1  0.145977  0  0.108915  0.130693  0  1.038463  0
H  H28  1  0.27304256  0.73355942  0.24257591  1  0.106838  0  0.105703  0.111749  0  1.02096  0
H  H29  1  0.27429507  0.89395842  0.64522034  1  0.090234  0  0.116983  0.132266  0  0.964504  0
H  H30  1  0.56358136  0.08440900  0.87839501  1  0.084411  0  0.112639  0.11966  0  0.977312  0
H  H31  1  0.14479928  0.66635308  0.37200504  1  0.088059  0  0.113921  0.124459  0  0.98226  0
H  H32  1  0.59589718  0.17205171  0.74365203  1  0.097784  0  0.103386  0.105726  0  1.046247  0
H  H33  1  0.22941384  0.81303630  0.78172211  1  0.067012  0  0.105406  0.101806  0  1.029576  0
H  H34  1  0.54528426  0.40093617  0.22037837  1  0.109878  0  0.107113  0.112333  0  1.004608  0
H  H35  1  0.43436889  0.33643209  0.35416017  1  0.146547  0  0.108912  0.130734  0  1.038579  0
C  C36  1  0.89907339  0.07698087  0.67069933  1  -0.117512  0  -0.084072  -0.155301  0  3.928915  0
C  C37  1  0.80812239  0.85252319  0.73205185  1  -0.108471  0  -0.07962  -0.078925  0  3.956978  0
C  C38  1  0.90624491  0.93285894  0.77775308  1  -0.006311  0  -0.012705  -0.026672  0  3.954383  0
C  C39  1  0.83652844  0.56418463  0.30361141  1  0.043016  0  -0.084074  -0.159414  0  3.964365  0
C  C40  1  0.90161449  0.56144076  0.16144427  1  -0.059638  0  -0.015173  -0.041412  0  3.945186  0
C  C41  1  0.99889233  0.45681870  0.17241575  1  -0.028476  0  -0.073159  -0.066456  0  3.950087  0
C  C42  1  0.73643250  0.88967658  0.66046657  1  0.040392  0  -0.083333  -0.152434  0  3.982014  0
C  C43  1  0.94881787  0.46742889  0.31449784  1  0.173251  0  0.090254  0.159564  0  4.02151  0
C  C44  1  0.91870332  0.91444320  0.86570339  1  1.54073  0  0.194449  0.559823  0  4.23959  0
C  C45  1  0.01887424  0.40829461  0.24794924  1  0.024689  0  -0.085482  -0.152585  0  3.957849  0
C  C46  1  0.81415886  0.61016671  0.22720536  1  -0.025665  0  -0.077448  -0.07831  0  3.981742  0
C  C47  1  0.76994496  0.00643169  0.63515769  1  0.219596  0  0.081539  0.15244  0  4.014735  0
C  C48  1  0.96244271  0.04052172  0.74427120  1  0.076473  0  -0.075943  -0.072193  0  3.960283  0
C  C49  1  0.89783659  0.62453661  0.08270189  1  1.569852  0  0.22918  0.614563  0  4.134847  0
C  C50  1  0.60094737  0.92298161  0.17068253  1  -0.117836  0  -0.084082  -0.154962  0  3.929077  0
C  C51  1  0.69201145  0.14742648  0.23205349  1  -0.092742  0  -0.079689  -0.078985  0  3.956955  0
C  C52  1  0.59376377  0.06715077  0.27773569  1  -0.005709  0  -0.012642  -0.026525  0  3.954054  0
C  C53  1  0.66345684  0.43596010  0.80362166  1  -0.000902  0  -0.084101  -0.159292  0  3.9647  0
C  C54  1  0.59832722  0.43862099  0.66146820  1  -0.057441  0  -0.014767  -0.040917  0  3.945023  0
C  C55  1  0.50122071  0.54332546  0.67242422  1  -0.027835  0  -0.073606  -0.06715  0  3.950299  0
C  C56  1  0.76375335  0.11021447  0.16047833  1  0.039525  0  -0.083421  -0.152486  0  3.981528  0
C  C57  1  0.55130223  0.53279377  0.81450274  1  0.1718  0  0.089929  0.158752  0  4.021704  0
C  C58  1  0.58118616  0.08559086  0.36568898  1  1.5412  0  0.194419  0.559953  0  4.239618  0
C  C59  1  0.48133433  0.59193990  0.74795057  1  0.022748  0  -0.084785  -0.151193  0  3.956158  0
C  C60  1  0.68573459  0.38989181  0.72722454  1  0.015984  0  -0.077637  -0.0789  0  3.981555  0
C  C61  1  0.73014938  0.99346546  0.13515101  1  0.220441  0  0.081662  0.151739  0  4.015542  0
C  C62  1  0.53753999  0.95949029  0.24424667  1  0.075718  0  -0.075854  -0.07227  0  3.959738  0
C  C63  1  0.60196027  0.37544702  0.58273831  1  1.566994  0  0.228858  0.614073  0  4.136525  0
C  C64  1  0.10100145  0.57702002  0.82930942  1  -0.067184  0  -0.084208  -0.155331  0  3.929153  0
C  C65  1  0.19203636  0.35256612  0.76793965  1  -0.092701  0  -0.079575  -0.079148  0  3.956821  0
C  C66  1  0.09379345  0.43284182  0.72226340  1  -0.005887  0  -0.012528  -0.02612  0  3.953828  0
C  C67  1  0.16341536  0.06404408  0.19635721  1  -0.000123  0  -0.084127  -0.15946  0  3.964964  0
C  C68  1  0.09828484  0.06138855  0.33851246  1  -0.054541  0  -0.014633  -0.040323  0  3.945017  0
C  C69  1  0.00116793  0.95668687  0.32756298  1  -0.029898  0  -0.073565  -0.067252  0  3.950523  0
C  C70  1  0.26378920  0.38977991  0.83951125  1  0.039758  0  -0.083458  -0.152404  0  3.981182  0
C  C71  1  0.05125460  0.96721054  0.18548268  1  0.171178  0  0.089819  0.159016  0  4.021562  0
C  C72  1  0.08121551  0.41440352  0.63431131  1  1.54159  0  0.194415  0.559613  0  4.239932  0
C  C73  1  0.98127651  0.90806976  0.25203722  1  0.024637  0  -0.084858  -0.151608  0  3.956792  0
C  C74  1  0.18569566  0.11011683  0.27275195  1  0.014117  0  -0.077825  -0.079255  0  3.982053  0
C  C75  1  0.23019462  0.50652725  0.86483797  1  0.220754  0  0.081806  0.151936  0  4.014932  0
C  C76  1  0.03759139  0.54050956  0.75575182  1  0.025762  0  -0.076061  -0.072618  0  3.960281  0
C  C77  1  0.10192333  0.12455538  0.41724413  1  1.5675  0  0.228928  0.614016  0  4.136288  0
C  C78  1  0.39910358  0.42303313  0.32931463  1  -0.068294  0  -0.084175  -0.155261  0  3.928918  0
C  C79  1  0.30815650  0.64748469  0.26794962  1  -0.108331  0  -0.079688  -0.079094  0  3.956897  0
C  C80  1  0.40626627  0.56714001  0.22224839  1  -0.006779  0  -0.012829  -0.026768  0  3.954271  0
C  C81  1  0.33650468  0.93583484  0.69640910  1  0.04267  0  -0.083949  -0.159301  0  3.964236  0
C  C82  1  0.40158093  0.93855018  0.83857148  1  -0.059206  0  -0.015275  -0.041232  0  3.945374  0
C  C83  1  0.49886178  0.04317658  0.82760238  1  -0.028028  0  -0.073143  -0.066661  0  3.950368  0
C  C84  1  0.23646774  0.61034200  0.33954144  1  0.040439  0  -0.083331  -0.152357  0  3.981514  0
C  C85  1  0.44879284  0.03259314  0.68552326  1  0.173585  0  0.090408  0.159848  0  4.021476  0
C  C86  1  0.41871293  0.58554059  0.13429748  1  1.540718  0  0.19448  0.559874  0  4.239317  0
C  C87  1  0.51884031  0.09171672  0.75207305  1  0.024417  0  -0.085517  -0.152615  0  3.957995  0
C  C88  1  0.31413749  0.88983314  0.77280979  1  -0.025239  0  -0.077672  -0.078628  0  3.982172  0
C  C89  1  0.26996208  0.49358231  0.36484854  1  0.21981  0  0.08153  0.152333  0  4.015006  0
C  C90  1  0.46246560  0.45948336  0.25573443  1  0.027158  0  -0.07591  -0.072303  0  3.960135  0
C  C91  1  0.39780942  0.87544184  0.91730850  1  1.570368  0  0.229197  0.614555  0  4.134894  0
N  N92  1  0.64786548  0.06659378  0.58418841  1  -0.477853  0  -0.122634  -0.064342  0  3.445249  0
N  N93  1  0.99137906  0.42452503  0.39295650  1  -0.333606  0  -0.094604  -0.040885  0  3.079732  0
N  N94  1  0.85215286  0.93323339  0.08416923  1  -0.481563  0  -0.122273  -0.062598  0  3.443977  0
N  N95  1  0.50870070  0.57574086  0.89296199  1  -0.330727  0  -0.094747  -0.041735  0  3.078864  0
N  N96  1  0.35219587  0.56675218  0.91582153  1  -0.48037  0  -0.12235  -0.062499  0  3.443684  0
N  N97  1  0.00865629  0.92425185  0.10702520  1  -0.329852  0  -0.09456  -0.041601  0  3.078512  0
N  N98  1  0.14788419  0.43342646  0.41582377  1  -0.477328  0  -0.122635  -0.064521  0  3.445582  0
N  N99  1  0.49135843  0.07549700  0.60706103  1  -0.332849  0  -0.094744  -0.04119  0  3.079934  0
O  O100  1  0.86546928  0.80899666  0.88945155  1  -1.152325  0  -0.340963  -0.573547  0  2.345655  0
O  O101  1  0.95770407  0.99887778  0.91013772  1  -1.152557  0  -0.330829  -0.544142  0  2.080984  0
O  O102  1  0.76468956  0.69093985  0.07055986  1  -1.149712  0  -0.304985  -0.53964  0  2.396297  0
O  O103  1  0.02365630  0.61146905  0.03393333  1  -1.190793  0  -0.326243  -0.574735  0  2.33164  0
O  O104  1  0.63443636  0.19102628  0.38946746  1  -1.152649  0  -0.34111  -0.573638  0  2.345725  0
O  O105  1  0.54206311  0.00118198  0.41011439  1  -1.15273  0  -0.330783  -0.544294  0  2.080991  0
O  O106  1  0.73503013  0.30896184  0.57060104  1  -1.149252  0  -0.304931  -0.539544  0  2.396643  0
O  O107  1  0.47614723  0.38854350  0.53398046  1  -1.188205  0  -0.326026  -0.574536  0  2.332869  0
O  O108  1  0.13444881  0.30896453  0.61052984  1  -1.152739  0  -0.341166  -0.573666  0  2.345853  0
O  O109  1  0.04211020  0.49881596  0.58988946  1  -1.152853  0  -0.33069  -0.544053  0  2.081124  0
O  O110  1  0.23499633  0.19104502  0.42937248  1  -1.149178  0  -0.304879  -0.539586  0  2.396485  0
O  O111  1  0.97612392  0.11144820  0.46601328  1  -1.188429  0  -0.326114  -0.574553  0  2.332892  0
O  O112  1  0.36548434  0.69098535  0.11054636  1  -1.152127  0  -0.341031  -0.573505  0  2.345585  0
O  O113  1  0.45770702  0.50110244  0.08986256  1  -1.152527  0  -0.33081  -0.5442  0  2.080771  0
O  O114  1  0.26466488  0.80903236  0.92945291  1  -1.150038  0  -0.305109  -0.539843  0  2.396506  0
O  O115  1  0.52363478  0.88849958  0.96607052  1  -1.191037  0  -0.326117  -0.574658  0  2.331542  0
