# generated using pymatgen
data_CoH24C32(N2O3)2
_symmetry_space_group_name_H-M   'P 1'
_cell_length_a   10.93615888
_cell_length_b   15.67470868
_cell_length_c   19.00468911
_cell_angle_alpha   105.39956668
_cell_angle_beta   89.99996683
_cell_angle_gamma   89.99980435
_symmetry_Int_Tables_number   1
_chemical_formula_structural   CoH24C32(N2O3)2
_chemical_formula_sum   'Co4 H96 C128 N16 O24'
_cell_volume   3140.84117882
_cell_formula_units_Z   4
loop_
 _symmetry_equiv_pos_site_id
 _symmetry_equiv_pos_as_xyz
  1  'x, y, z'
loop_
 _atom_site_type_symbol
 _atom_site_label
 _atom_site_symmetry_multiplicity
 _atom_site_fract_x
 _atom_site_fract_y
 _atom_site_fract_z
 _atom_site_occupancy
 _atom_site_pbe_bader_charge
 _atom_site_pbe_bader_spin_density
 _atom_site_pbe_cm5_charge
 _atom_site_pbe_ddec_charge
 _atom_site_pbe_ddec_spin_density
 _atom_site_pbe_ddec_sum_bond_order
 _atom_site_pbe_magmom
Co  Co0  1  0.93266658  0.99678020  0.60858316  1  1.30308  2.596078  0.684258  0.881673  2.850566  2.558466  2.576
Co  Co1  1  0.43266242  0.00321900  0.89141483  1  1.302852  2.596099  0.684261  0.881636  2.85058  2.558535  2.576
Co  Co2  1  0.06733880  0.00321966  0.39141419  1  1.30269  2.5961  0.684272  0.881649  2.850584  2.558432  2.576
Co  Co3  1  0.56733381  0.99677757  0.10858392  1  1.302871  2.596097  0.684243  0.881568  2.850567  2.558581  2.576
H  H4  1  0.13178223  0.55591707  0.66944089  1  0.548111  3e-06  0.303931  0.281546  2e-06  1.034835  0.0
H  H5  1  0.63178613  0.44408365  0.83056384  1  0.548183  3e-06  0.30396  0.281614  2e-06  1.034716  0.0
H  H6  1  0.86821309  0.44408483  0.33056322  1  0.548166  3e-06  0.303938  0.281602  2e-06  1.034706  0.0
H  H7  1  0.36821833  0.55591758  0.16944012  1  0.548133  3e-06  0.303944  0.281582  2e-06  1.034754  0.0
H  H8  1  0.34012492  0.22428939  0.69696312  1  0.093542  -3.5e-05  0.104005  0.106165  -5.2e-05  1.009713  0.0
H  H9  1  0.84011534  0.77570345  0.80303511  1  0.093654  -3.5e-05  0.104012  0.106211  -5.2e-05  1.00979  0.0
H  H10  1  0.65988412  0.77570519  0.30303468  1  0.09362  -3.5e-05  0.104016  0.106182  -5.2e-05  1.00979  0.0
H  H11  1  0.15987907  0.22429243  0.19695928  1  0.093643  -3.5e-05  0.10401  0.1062  -5.2e-05  1.009791  0.0
H  H12  1  0.14501613  0.26076727  0.64315402  1  0.068058  -0.000148  0.101353  0.102096  -0.000191  1.014703  0.0
H  H13  1  0.64500850  0.73922675  0.85684454  1  0.068024  -0.000148  0.101367  0.102102  -0.000191  1.014724  0.0
H  H14  1  0.85499016  0.73922732  0.35684642  1  0.068024  -0.000148  0.101371  0.102041  -0.000191  1.014762  0.0
H  H15  1  0.35498590  0.26076978  0.14314894  1  0.068082  -0.000148  0.101403  0.102216  -0.000191  1.014618  0.0
H  H16  1  0.75581518  0.44500089  0.58606765  1  0.523082  -2e-06  0.301485  0.27444  7e-06  1.019213  0.0
H  H17  1  0.25581561  0.55499880  0.91393261  1  0.52309  -2e-06  0.301544  0.274515  7e-06  1.019177  0.0
H  H18  1  0.24418380  0.55499767  0.41393206  1  0.52309  -2e-06  0.301522  0.274479  7e-06  1.019207  0.0
H  H19  1  0.74418520  0.44500108  0.08606738  1  0.523065  -2e-06  0.301515  0.274468  7e-06  1.019271  0.0
H  H20  1  0.52322920  0.31627428  0.69843577  1  0.085451  -4e-06  0.103125  0.112819  -6e-06  1.019301  0.0
H  H21  1  0.02322363  0.68372606  0.80156945  1  0.085525  -4e-06  0.103201  0.112869  -6e-06  1.019273  0.0
H  H22  1  0.47677801  0.68372561  0.30156527  1  0.085498  -4e-06  0.103162  0.112882  -6e-06  1.019209  0.0
H  H23  1  0.97677535  0.31627847  0.19843417  1  0.085516  -4e-06  0.103182  0.11287  -6e-06  1.019261  0.0
H  H24  1  0.13338836  0.39029589  0.59335780  1  0.056061  3.2e-05  0.096644  0.090553  1.6e-05  1.049541  0.0
H  H25  1  0.63338314  0.60970017  0.90664488  1  0.055988  3.2e-05  0.096663  0.090574  1.6e-05  1.049617  0.0
H  H26  1  0.86661336  0.60970003  0.40664292  1  0.056022  3.2e-05  0.09668  0.090583  1.6e-05  1.049598  0.0
H  H27  1  0.36661218  0.39030103  0.09335539  1  0.056035  3.2e-05  0.096663  0.090548  1.6e-05  1.049638  0.0
H  H28  1  0.61593667  0.57126934  0.61184334  1  0.080021  1.4e-05  0.106314  0.107314  5e-06  0.999423  0.0
H  H29  1  0.11594141  0.42873338  0.88815920  1  0.079968  1.4e-05  0.106311  0.107266  5e-06  0.999486  0.0
H  H30  1  0.38405499  0.42873586  0.38816095  1  0.07996  1.4e-05  0.106272  0.10724  5e-06  0.999483  0.0
H  H31  1  0.88405940  0.57127644  0.11184503  1  0.079871  1.4e-05  0.106296  0.107282  5e-06  0.999448  0.0
H  H32  1  0.41924414  0.61081370  0.56253492  1  0.077419  2.6e-05  0.108952  0.114597  1.2e-05  0.981176  0.0
H  H33  1  0.91925278  0.38918425  0.93746701  1  0.077562  2.6e-05  0.108933  0.114555  1.2e-05  0.981235  0.0
H  H34  1  0.58074569  0.38918688  0.43746995  1  0.076963  2.6e-05  0.108961  0.114591  1.2e-05  0.981167  0.0
H  H35  1  0.08075352  0.61082293  0.06253718  1  0.077378  2.6e-05  0.108932  0.114538  1.2e-05  0.981196  0.0
H  H36  1  0.93427417  0.58609584  0.65061495  1  0.070967  -0.000888  0.118389  0.10358  -0.000724  0.968339  -0.001
H  H37  1  0.43427901  0.41390669  0.84938797  1  0.070702  -0.000888  0.118397  0.103571  -0.000724  0.968246  -0.001
H  H38  1  0.06572298  0.41390868  0.34938762  1  0.071148  -0.000888  0.118389  0.103577  -0.000724  0.968288  -0.001
H  H39  1  0.56572820  0.58609187  0.15061226  1  0.07098  -0.000888  0.118393  0.10359  -0.000724  0.968332  -0.001
H  H40  1  0.95095750  0.54579354  0.55526099  1  0.115774  -0.000376  0.108876  0.096652  -0.000298  1.021931  0.0
H  H41  1  0.45095474  0.45420763  0.94474320  1  0.115626  -0.000376  0.108857  0.096605  -0.000298  1.021954  0.0
H  H42  1  0.04904513  0.45420834  0.44474258  1  0.115642  -0.000376  0.108862  0.096588  -0.000298  1.021994  0.0
H  H43  1  0.54904333  0.54579027  0.05525794  1  0.115665  -0.000376  0.108867  0.096645  -0.000298  1.021982  0.0
H  H44  1  0.16725224  0.72489782  0.64053179  1  0.084471  0.00089  0.106068  0.116035  0.000427  1.004085  0.0
H  H45  1  0.66725511  0.27510740  0.85946968  1  0.084636  0.00089  0.106098  0.116066  0.000427  1.004077  0.0
H  H46  1  0.83274491  0.27510538  0.35947049  1  0.084607  0.000889  0.106078  0.116044  0.000427  1.004077  0.0
H  H47  1  0.33274844  0.72489183  0.14053174  1  0.084403  0.00089  0.106091  0.116032  0.000427  1.004086  0.0
H  H48  1  0.13865590  0.88026864  0.63219262  1  0.119936  0.001469  0.120909  0.092275  0.000245  1.006793  0.001
H  H49  1  0.63866318  0.11973399  0.86780515  1  0.119854  0.001469  0.120922  0.092283  0.000246  1.006796  0.001
H  H50  1  0.86134125  0.11973521  0.36780769  1  0.119943  0.001469  0.120912  0.092255  0.000245  1.006837  0.001
H  H51  1  0.36134037  0.88026390  0.13219388  1  0.119959  0.001469  0.120917  0.092267  0.000246  1.00683  0.001
H  H52  1  0.80270314  0.66897211  0.55312375  1  0.054534  0.000949  0.104959  0.114739  0.000432  1.001777  0.0
H  H53  1  0.30270097  0.33102545  0.94687341  1  0.054544  0.000948  0.104947  0.114749  0.000432  1.001755  0.0
H  H54  1  0.19729676  0.33102909  0.44687547  1  0.054511  0.000948  0.104967  0.114726  0.000432  1.001779  0.0
H  H55  1  0.69729892  0.66897111  0.05312376  1  0.054475  0.000949  0.104955  0.114706  0.000432  1.001781  0.0
H  H56  1  0.78913949  0.82761504  0.54987242  1  0.123067  0.001397  0.122396  0.099507  0.000299  0.992938  0.001
H  H57  1  0.28914267  0.17238119  0.95011920  1  0.122722  0.001398  0.122425  0.099418  0.000299  0.993059  0.001
H  H58  1  0.21085949  0.17238481  0.45012389  1  0.12296  0.001397  0.122386  0.099487  0.000299  0.992952  0.001
H  H59  1  0.71085814  0.82761402  0.04987400  1  0.122922  0.001397  0.122373  0.099457  0.000299  0.992961  0.001
H  H60  1  0.88463455  0.44948675  0.72401314  1  0.083743  4e-06  0.109651  0.09123  3.6e-05  1.003233  0.0
H  H61  1  0.38463422  0.55051326  0.77598715  1  0.083753  4e-06  0.109665  0.091244  3.6e-05  1.003197  0.0
H  H62  1  0.11536443  0.55051181  0.27598709  1  0.083742  4e-06  0.109656  0.091245  3.6e-05  1.00322  0.0
H  H63  1  0.61536750  0.44948397  0.22401122  1  0.083787  4e-06  0.109648  0.09123  3.6e-05  1.003206  0.0
H  H64  1  0.94876226  0.43732646  0.63580293  1  0.04431  -0.000571  0.111889  0.090573  -0.000444  1.008112  0.0
H  H65  1  0.44876453  0.56267469  0.86419758  1  0.04429  -0.000571  0.111927  0.090616  -0.000445  1.008026  0.0
H  H66  1  0.05123581  0.56267606  0.36419762  1  0.044317  -0.000571  0.111926  0.090636  -0.000444  1.008071  0.0
H  H67  1  0.55123902  0.43732453  0.13580227  1  0.04433  -0.000571  0.111896  0.090576  -0.000445  1.008104  0.0
H  H68  1  0.86571321  0.31818825  0.76831293  1  0.075016  0.000978  0.1007  0.107871  0.000487  1.02748  0.0
H  H69  1  0.36571229  0.68180916  0.73168733  1  0.075058  0.000978  0.100694  0.107844  0.000487  1.027478  0.0
H  H70  1  0.13428394  0.68180965  0.23168663  1  0.075043  0.000978  0.10069  0.107858  0.000487  1.027456  0.0
H  H71  1  0.63428212  0.31818542  0.26831152  1  0.075107  0.000978  0.100655  0.107783  0.000487  1.027535  0.0
H  H72  1  0.88129954  0.15297167  0.74255873  1  0.096875  0.001399  0.118597  0.090439  0.000122  0.997171  0.001
H  H73  1  0.38129230  0.84702700  0.75743864  1  0.096807  0.001399  0.118598  0.090444  0.000122  0.997156  0.001
H  H74  1  0.11870035  0.84702686  0.25743729  1  0.096816  0.001399  0.118641  0.09052  0.000122  0.996963  0.001
H  H75  1  0.61869845  0.15296956  0.24255853  1  0.096793  0.001399  0.118621  0.090464  0.000122  0.997069  0.001
H  H76  1  0.91812618  0.12405890  0.52093542  1  0.135407  0.001062  0.116456  0.08419  -0.000236  1.062953  0.001
H  H77  1  0.41812680  0.87594298  0.97906210  1  0.13539  0.001061  0.116458  0.084174  -0.000236  1.062992  0.001
H  H78  1  0.08187462  0.87594294  0.47906131  1  0.135407  0.001061  0.116451  0.08417  -0.000236  1.063002  0.001
H  H79  1  0.58187309  0.12405291  0.02093440  1  0.135641  0.001061  0.116446  0.084173  -0.000236  1.06294  0.001
H  H80  1  0.90105123  0.28691881  0.53660780  1  0.080132  0.000767  0.10139  0.110959  0.000345  1.032195  0.0
H  H81  1  0.40105449  0.71308380  0.96339251  1  0.080143  0.000767  0.1014  0.111  0.000345  1.032183  0.0
H  H82  1  0.09895141  0.71308306  0.46339314  1  0.080156  0.000767  0.101373  0.110929  0.000345  1.032147  0.0
H  H83  1  0.59895089  0.28691342  0.03660428  1  0.080147  0.000768  0.101357  0.11096  0.000345  1.032051  0.0
H  H84  1  0.21448077  0.01737269  0.67616397  1  0.151004  0.000469  0.107865  0.128365  0.000169  1.036624  0.0
H  H85  1  0.71448753  0.98263305  0.82383603  1  0.151124  0.000469  0.107845  0.128335  0.000169  1.03666  0.0
H  H86  1  0.78551820  0.98262984  0.32383659  1  0.151052  0.000469  0.107863  0.128306  0.000169  1.036701  0.0
H  H87  1  0.28551876  0.01737278  0.17616472  1  0.151011  0.000469  0.107868  0.128367  0.000169  1.036637  0.0
H  H88  1  0.40846379  0.08658810  0.50181052  1  0.064586  0.000353  0.104209  0.1076  0.00013  1.003895  0.0
H  H89  1  0.90846614  0.91340787  0.99818889  1  0.064555  0.000354  0.104231  0.107642  0.00013  1.003857  0.0
H  H90  1  0.59153153  0.91341641  0.49819099  1  0.064519  0.000353  0.104248  0.107661  0.00013  1.003876  0.0
H  H91  1  0.09153833  0.08658538  0.00180810  1  0.064709  0.000354  0.104261  0.107687  0.00013  1.003996  0.0
H  H92  1  0.60285830  0.09902430  0.57329849  1  0.080649  0.00015  0.100618  0.103902  -1.1e-05  0.998904  0.0
H  H93  1  0.10285977  0.90097648  0.92670416  1  0.08109  0.00015  0.100581  0.103855  -1.1e-05  0.99893  0.0
H  H94  1  0.39713793  0.90098088  0.42670316  1  0.080593  0.00015  0.100576  0.10381  -1.1e-05  0.999004  0.0
H  H95  1  0.89714287  0.09901941  0.07329234  1  0.081097  0.00015  0.100632  0.103899  -1.1e-05  0.998924  0.0
H  H96  1  0.60427658  0.05795763  0.69155539  1  0.130714  0.000313  0.10578  0.120292  4.6e-05  1.011997  0.0
H  H97  1  0.10428253  0.94204842  0.80844734  1  0.130745  0.000313  0.105798  0.120327  4.6e-05  1.011867  0.0
H  H98  1  0.39572332  0.94204621  0.30844387  1  0.130718  0.000314  0.1058  0.120319  4.6e-05  1.011935  0.0
H  H99  1  0.89572102  0.05795276  0.19155030  1  0.130826  0.000313  0.105759  0.120293  4.6e-05  1.011981  0.0
C  C100  1  0.33515869  0.28247026  0.67588532  1  -0.059448  -7e-05  -0.085303  -0.066694  -7e-05  4.00262  0.0
C  C101  1  0.83515212  0.71752726  0.82411866  1  -0.058905  -7e-05  -0.085273  -0.066703  -7e-05  4.002725  0.0
C  C102  1  0.66484669  0.71752632  0.32411502  1  -0.058964  -7e-05  -0.085359  -0.066775  -7e-05  4.002818  0.0
C  C103  1  0.16484137  0.28247127  0.17587841  1  -0.059624  -7e-05  -0.085313  -0.066804  -7e-05  4.002805  0.0
C  C104  1  0.22474055  0.30321755  0.64560614  1  0.078924  -6.9e-05  -0.087738  -0.06707  -0.000113  3.994913  0.0
C  C105  1  0.72473496  0.69677761  0.85439632  1  0.078879  -6.9e-05  -0.087724  -0.067056  -0.000113  3.994982  0.0
C  C106  1  0.77526392  0.69677902  0.35439314  1  0.078771  -6.9e-05  -0.087732  -0.066974  -0.000113  3.994887  0.0
C  C107  1  0.27525854  0.30322026  0.14560008  1  0.078887  -6.9e-05  -0.087705  -0.067167  -0.000113  3.99493  0.0
C  C108  1  0.43767628  0.33391387  0.67670930  1  -0.033849  -5.9e-05  -0.092589  -0.137386  -6.3e-05  3.970074  0.0
C  C109  1  0.93767361  0.66608671  0.82329846  1  -0.033842  -5.9e-05  -0.092759  -0.13752  -6.3e-05  3.970047  0.0
C  C110  1  0.56232819  0.66608405  0.32329290  1  -0.034054  -5.9e-05  -0.092645  -0.137467  -6.3e-05  3.969923  0.0
C  C111  1  0.06232445  0.33391716  0.17670449  1  -0.033756  -5.9e-05  -0.092728  -0.137469  -6.3e-05  3.970138  0.0
C  C112  1  0.21825822  0.37594806  0.61789896  1  -0.098554  1.1e-05  -0.096163  -0.141211  -1.2e-05  3.996468  0.0
C  C113  1  0.71825295  0.62404912  0.88210551  1  -0.098759  1.1e-05  -0.096302  -0.141416  -1.2e-05  3.996457  0.0
C  C114  1  0.78174351  0.62405053  0.38210601  1  -0.098677  1.1e-05  -0.096226  -0.141288  -1.2e-05  3.996275  0.0
C  C115  1  0.28174237  0.37595341  0.11789558  1  -0.098218  1.1e-05  -0.096304  -0.141293  -1.2e-05  3.996374  0.0
C  C116  1  0.43445651  0.40939711  0.64846980  1  -0.044552  -5.2e-05  -0.001182  0.054396  -4.9e-05  3.953519  0.0
C  C117  1  0.93445602  0.59060348  0.85153848  1  -0.043856  -5.2e-05  -0.001147  0.054269  -4.9e-05  3.953433  0.0
C  C118  1  0.56554521  0.59060082  0.35153450  1  -0.044117  -5.2e-05  -0.00116  0.054349  -4.9e-05  3.953384  0.0
C  C119  1  0.06554479  0.40940238  0.14846648  1  -0.044724  -5.2e-05  -0.001182  0.054355  -4.9e-05  3.953371  0.0
C  C120  1  0.32119642  0.43181204  0.61912354  1  -0.033106  -1.1e-05  -0.00377  0.04862  -6e-06  3.957227  0.0
C  C121  1  0.82119509  0.56819018  0.88088567  1  -0.033411  -1.2e-05  -0.003656  0.048934  -6e-06  3.957111  0.0
C  C122  1  0.67880531  0.56818854  0.38088134  1  -0.033426  -1.1e-05  -0.003732  0.048757  -6e-06  3.957073  0.0
C  C123  1  0.17880389  0.43181701  0.11912063  1  -0.033005  -1.2e-05  -0.003661  0.048854  -6e-06  3.956851  0.0
C  C124  1  0.54034731  0.46232776  0.64589684  1  -0.032759  -7e-05  -0.00867  -0.071475  -7.6e-05  3.966661  0.0
C  C125  1  0.04034697  0.53767318  0.85410640  1  -0.033611  -7e-05  -0.008642  -0.071319  -7.6e-05  3.966632  0.0
C  C126  1  0.45965167  0.53767280  0.35410541  1  -0.03313  -7e-05  -0.008641  -0.071403  -7.6e-05  3.966717  0.0
C  C127  1  0.95965383  0.46233465  0.14589740  1  -0.032924  -7e-05  -0.008606  -0.0713  -7.6e-05  3.96662  0.0
C  C128  1  0.31763101  0.50747426  0.59031205  1  -0.033254  5.1e-05  -0.008522  -0.069116  3.5e-05  3.964652  0.0
C  C129  1  0.81763642  0.49252464  0.90969222  1  -0.03329  5.1e-05  -0.008536  -0.069165  3.5e-05  3.964713  0.0
C  C130  1  0.68236523  0.49252499  0.40969201  1  -0.033283  5.1e-05  -0.008535  -0.069123  3.5e-05  3.964588  0.0
C  C131  1  0.18236713  0.50748188  0.09031235  1  -0.033169  5.1e-05  -0.00855  -0.069236  3.5e-05  3.964729  0.0
C  C132  1  0.53442003  0.53188465  0.61376701  1  -0.035114  -1e-05  -0.087139  -0.10925  -1.7e-05  4.016227  0.0
C  C133  1  0.03442366  0.46811498  0.88623542  1  -0.035019  -1e-05  -0.08717  -0.109182  -1.7e-05  4.016244  0.0
C  C134  1  0.46557437  0.46811723  0.38623604  1  -0.034633  -1e-05  -0.087127  -0.109109  -1.7e-05  4.016169  0.0
C  C135  1  0.96557806  0.53189286  0.11376891  1  -0.034912  -1e-05  -0.087172  -0.109381  -1.7e-05  4.016425  0.0
C  C136  1  0.42319630  0.55450664  0.58604585  1  -0.059924  3.4e-05  -0.087301  -0.107812  1.3e-05  4.018178  0.0
C  C137  1  0.92320376  0.44549263  0.91395847  1  -0.060108  3.5e-05  -0.087299  -0.10786  1.4e-05  4.018291  0.0
C  C138  1  0.57679628  0.44549460  0.41395864  1  -0.059761  3.4e-05  -0.087317  -0.107907  1.3e-05  4.018151  0.0
C  C139  1  0.07680070  0.55451522  0.08604797  1  -0.060117  3.5e-05  -0.087239  -0.107609  1.4e-05  4.018101  0.0
C  C140  1  0.20026249  0.54034612  0.56607965  1  1.424001  2.3e-05  0.242351  0.476111  1.5e-05  4.145506  0.0
C  C141  1  0.70026713  0.45965111  0.93392537  1  1.42422  2.3e-05  0.242468  0.476285  1.5e-05  4.145299  0.0
C  C142  1  0.79973283  0.45965049  0.43392491  1  1.424188  2.3e-05  0.24244  0.476171  1.5e-05  4.145354  0.0
C  C143  1  0.29973734  0.54034946  0.06607898  1  1.423876  2.3e-05  0.242389  0.476192  1.5e-05  4.14542  0.0
C  C144  1  0.99181723  0.59048304  0.60417397  1  0.307137  -5e-05  -0.054941  -0.062527  -0.000356  3.939071  0.0
C  C145  1  0.49182022  0.40952001  0.89583062  1  0.307478  -5e-05  -0.054972  -0.062442  -0.000356  3.939003  0.0
C  C146  1  0.00817992  0.40951951  0.39582975  1  0.307013  -5e-05  -0.05496  -0.062473  -0.000356  3.939119  0.0
C  C147  1  0.50818424  0.59047922  0.10417134  1  0.30712  -5e-05  -0.05498  -0.062558  -0.000356  3.939177  0.0
C  C148  1  0.98629862  0.68418526  0.59805851  1  -0.062401  -0.012017  0.00448  0.132065  -0.012566  3.967412  -0.008
C  C149  1  0.48630114  0.31581712  0.90194331  1  -0.062377  -0.012014  0.00445  0.131967  -0.012563  3.967538  -0.008
C  C150  1  0.01369945  0.31581793  0.40194219  1  -0.062311  -0.012014  0.004466  0.132071  -0.012563  3.96736  -0.008
C  C151  1  0.51370241  0.68418077  0.09805678  1  -0.062393  -0.012015  0.00449  0.132093  -0.012564  3.967432  -0.008
C  C152  1  0.08179898  0.74454618  0.61976827  1  -0.018371  0.005094  -0.091961  -0.187389  0.002291  3.960028  0.004
C  C153  1  0.58180284  0.25545794  0.88023247  1  -0.018603  0.005095  -0.092018  -0.187487  0.002292  3.960072  0.004
C  C154  1  0.91819817  0.25545767  0.38023204  1  -0.018608  0.005094  -0.091992  -0.187448  0.002291  3.960008  0.004
C  C155  1  0.41819979  0.74453996  0.11976762  1  -0.01838  0.005094  -0.091985  -0.187361  0.002292  3.959984  0.004
C  C156  1  0.06672858  0.83099538  0.61518970  1  0.436985  -0.009249  0.05018  0.104687  -0.010048  3.944552  -0.006
C  C157  1  0.56673378  0.16900611  0.88480786  1  0.436971  -0.009248  0.050217  0.104785  -0.010046  3.944387  -0.006
C  C158  1  0.93326948  0.16900779  0.38480942  1  0.436947  -0.009246  0.050237  0.104799  -0.010045  3.944443  -0.006
C  C159  1  0.43326886  0.83099045  0.11519036  1  0.436981  -0.009247  0.050212  0.104701  -0.010047  3.94451  -0.006
C  C160  1  0.87940637  0.71385193  0.57166773  1  -0.00371  0.004894  -0.09241  -0.198075  0.002238  3.97521  0.004
C  C161  1  0.37940718  0.28614808  0.92833098  1  -0.003815  0.004893  -0.092369  -0.198016  0.002238  3.975149  0.004
C  C162  1  0.12059353  0.28614993  0.42833163  1  -0.003831  0.004893  -0.092379  -0.198013  0.002238  3.975139  0.004
C  C163  1  0.62059545  0.71384914  0.07166686  1  -0.003787  0.004893  -0.092381  -0.198016  0.002238  3.975208  0.004
C  C164  1  0.87103118  0.80138695  0.56927744  1  0.463741  -0.007267  0.050255  0.104942  -0.007819  3.949538  -0.005
C  C165  1  0.37103426  0.19861173  0.93071730  1  0.464229  -0.007266  0.050255  0.105069  -0.007818  3.949534  -0.005
C  C166  1  0.12896871  0.19861490  0.43072034  1  0.463904  -0.007266  0.050221  0.10489  -0.007818  3.949603  -0.005
C  C167  1  0.62896838  0.80138415  0.06927815  1  0.46393  -0.007266  0.050217  0.104918  -0.007818  3.949604  -0.005
C  C168  1  0.65751920  0.44325751  0.67919046  1  1.411334  -0.000225  0.24545  0.487131  -0.000317  4.129949  0.0
C  C169  1  0.15752154  0.55674244  0.82081094  1  1.411515  -0.000225  0.245333  0.486734  -0.000317  4.130135  0.0
C  C170  1  0.34247978  0.55674105  0.32081082  1  1.411469  -0.000225  0.245353  0.486806  -0.000317  4.130079  0.0
C  C171  1  0.84248201  0.44326009  0.17919067  1  1.411232  -0.000225  0.245385  0.486894  -0.000317  4.130052  0.0
C  C172  1  0.87521179  0.41517681  0.66590756  1  0.351579  -0.000183  -0.054048  -0.053005  -0.000682  3.911402  0.001
C  C173  1  0.37521398  0.58482454  0.83409249  1  0.351589  -0.000182  -0.054111  -0.053083  -0.000682  3.911296  0.001
C  C174  1  0.12478719  0.58482373  0.33409204  1  0.351569  -0.000183  -0.054073  -0.053127  -0.000682  3.911405  0.001
C  C175  1  0.62478865  0.41517401  0.16590669  1  0.351601  -0.000182  -0.054066  -0.053013  -0.000682  3.911473  0.001
C  C176  1  0.88353489  0.31621681  0.65447669  1  0.003463  -0.017826  0.003023  0.127841  -0.018565  3.949115  -0.011
C  C177  1  0.38353841  0.68378386  0.84552427  1  0.003763  -0.017828  0.003012  0.127801  -0.018568  3.949064  -0.011
C  C178  1  0.11646226  0.68378306  0.34552278  1  0.003739  -0.017825  0.002996  0.127835  -0.018564  3.949142  -0.011
C  C179  1  0.61646331  0.31621337  0.15447516  1  0.00432  -0.017826  0.003048  0.127717  -0.018566  3.949276  -0.011
C  C180  1  0.87711131  0.27725404  0.71255634  1  -0.076725  0.006057  -0.090035  -0.187046  0.00263  3.968617  0.005
C  C181  1  0.37711470  0.72274466  0.78744420  1  -0.076763  0.006058  -0.090005  -0.186964  0.00263  3.968619  0.005
C  C182  1  0.12288310  0.72274385  0.28744323  1  -0.076783  0.006057  -0.08999  -0.186971  0.00263  3.968539  0.005
C  C183  1  0.62288153  0.27725059  0.21255480  1  -0.077564  0.006057  -0.089962  -0.186864  0.00263  3.968417  0.005
C  C184  1  0.88541245  0.18562373  0.69865420  1  0.509499  -0.012577  0.048946  0.102964  -0.01331  3.948876  -0.008
C  C185  1  0.38540989  0.81437560  0.80134437  1  0.509513  -0.01258  0.048946  0.102889  -0.013313  3.94893  -0.008
C  C186  1  0.11458470  0.81437548  0.30134407  1  0.509555  -0.012579  0.048903  0.102837  -0.013311  3.948782  -0.008
C  C187  1  0.61458269  0.18562030  0.19865372  1  0.509467  -0.012578  0.048914  0.102942  -0.01331  3.948701  -0.008
C  C188  1  0.90481424  0.16944946  0.57470614  1  0.471184  -0.012234  0.041422  0.093865  -0.012862  3.935394  -0.008
C  C189  1  0.40481239  0.83055114  0.92529216  1  0.471423  -0.012235  0.041382  0.093819  -0.012863  3.935242  -0.008
C  C190  1  0.09518565  0.83055040  0.42529174  1  0.471356  -0.012233  0.041427  0.093914  -0.012861  3.935262  -0.008
C  C191  1  0.59518384  0.16944674  0.07470530  1  0.471173  -0.012234  0.041453  0.093916  -0.012863  3.935094  -0.008
C  C192  1  0.89656432  0.26019196  0.58405303  1  -0.084011  0.005855  -0.091917  -0.185957  0.002584  3.947872  0.005
C  C193  1  0.39656841  0.73980934  0.91594753  1  -0.084513  0.005856  -0.091911  -0.185975  0.002584  3.94772  0.005
C  C194  1  0.10343466  0.73980924  0.41594619  1  -0.084407  0.005855  -0.091889  -0.185915  0.002583  3.947809  0.005
C  C195  1  0.60343331  0.26018790  0.08405294  1  -0.084117  0.005855  -0.091939  -0.185928  0.002583  3.947785  0.005
C  C196  1  0.40913864  0.03659868  0.69113835  1  -0.034809  0.004374  -0.023865  -0.037237  0.002298  4.003149  0.003
C  C197  1  0.90914460  0.96340591  0.80886501  1  -0.035337  0.004375  -0.023797  -0.037189  0.002298  4.002936  0.003
C  C198  1  0.59085942  0.96340054  0.30886202  1  -0.035352  0.004374  -0.023845  -0.037216  0.002297  4.003123  0.003
C  C199  1  0.09085987  0.03659596  0.19113540  1  -0.035236  0.004375  -0.023875  -0.037277  0.002298  4.003053  0.003
C  C200  1  0.29957278  0.03326110  0.65246687  1  -0.041114  -0.003428  -0.081084  -0.120837  -0.003901  3.918301  -0.002
C  C201  1  0.79957776  0.96674376  0.84753501  1  -0.040639  -0.003428  -0.081055  -0.120794  -0.0039  3.918254  -0.002
C  C202  1  0.70042528  0.96673746  0.34753336  1  -0.04061  -0.003428  -0.08106  -0.120769  -0.0039  3.918443  -0.002
C  C203  1  0.20042762  0.03326141  0.15246558  1  -0.040585  -0.003429  -0.081075  -0.120837  -0.003901  3.918359  -0.002
C  C204  1  0.30049449  0.04865233  0.58308890  1  -0.054069  0.011821  -0.025879  -0.053665  0.005868  4.005095  0.01
C  C205  1  0.80049582  0.95134592  0.91691103  1  -0.054121  0.011822  -0.025994  -0.053755  0.005868  4.005269  0.01
C  C206  1  0.69950357  0.95134556  0.41691013  1  -0.054023  0.011822  -0.025985  -0.053716  0.005868  4.005384  0.01
C  C207  1  0.19950682  0.04865528  0.08308819  1  -0.054359  0.011824  -0.02594  -0.053627  0.005869  4.005303  0.01
C  C208  1  0.40943946  0.07457323  0.55568556  1  -0.021766  -0.005079  -0.082036  -0.091091  -0.005458  3.979839  -0.003
C  C209  1  0.90943997  0.92542472  0.94431375  1  -0.021932  -0.005078  -0.081987  -0.091038  -0.005457  3.979959  -0.003
C  C210  1  0.59055586  0.92542731  0.44431457  1  -0.021901  -0.005077  -0.082056  -0.091181  -0.005457  3.980041  -0.003
C  C211  1  0.09056267  0.07457382  0.05568332  1  -0.022047  -0.00508  -0.082071  -0.091207  -0.005459  3.980176  -0.003
C  C212  1  0.51774893  0.08095660  0.59555826  1  -0.093054  0.002433  -0.091045  -0.085928  0.001005  4.018815  0.002
C  C213  1  0.01775307  0.91904440  0.90444341  1  -0.093331  0.002433  -0.091055  -0.085938  0.001004  4.018812  0.002
C  C214  1  0.48224639  0.91904593  0.40444229  1  -0.092894  0.002433  -0.090992  -0.085773  0.001005  4.018938  0.002
C  C215  1  0.98225048  0.08095415  0.09555419  1  -0.093408  0.002434  -0.091094  -0.086015  0.001005  4.018818  0.002
C  C216  1  0.51892944  0.05928606  0.66214832  1  -0.019223  -0.005587  -0.077531  -0.081728  -0.006018  3.921803  -0.003
C  C217  1  0.01893537  0.94071825  0.83785564  1  -0.019348  -0.005586  -0.077544  -0.081758  -0.006016  3.921504  -0.003
C  C218  1  0.48106863  0.94071580  0.33785157  1  -0.019296  -0.005586  -0.077581  -0.081815  -0.006016  3.921808  -0.003
C  C219  1  0.98106818  0.05928228  0.16214291  1  -0.01944  -0.005587  -0.077483  -0.081601  -0.006017  3.921543  -0.003
C  C220  1  0.18867285  0.03080394  0.53625433  1  1.53178  -0.006395  0.216031  0.579583  -0.00757  4.175576  0.0
C  C221  1  0.68866855  0.96919459  0.96374307  1  1.531991  -0.006393  0.21611  0.579699  -0.007567  4.175501  0.0
C  C222  1  0.81132979  0.96919526  0.46374288  1  1.531977  -0.006392  0.216083  0.57963  -0.007566  4.175594  0.0
C  C223  1  0.31133134  0.03080460  0.03625309  1  1.532078  -0.006396  0.216053  0.579519  -0.007569  4.17583  0.0
C  C224  1  0.41086413  0.01447192  0.76263727  1  1.491433  -0.005285  0.18716  0.527904  -0.006792  4.238618  -0.006
C  C225  1  0.91087279  0.98553000  0.73736394  1  1.491494  -0.005283  0.187281  0.527899  -0.006791  4.23857  -0.006
C  C226  1  0.58913210  0.98552531  0.23736215  1  1.491667  -0.005286  0.187289  0.528031  -0.006792  4.238463  -0.006
C  C227  1  0.08913168  0.01447119  0.26263422  1  1.491598  -0.005286  0.187288  0.527934  -0.006792  4.238639  -0.006
N  N228  1  0.11192427  0.55888145  0.61705439  1  -1.288636  9e-06  -0.421706  -0.366267  -1.5e-05  3.594096  0.0
N  N229  1  0.61192356  0.44112129  0.88294973  1  -1.288804  9e-06  -0.421773  -0.36638  -1.5e-05  3.593953  0.0
N  N230  1  0.88807562  0.44112242  0.38294908  1  -1.288708  9e-06  -0.42172  -0.366333  -1.5e-05  3.593869  0.0
N  N231  1  0.38807633  0.55888059  0.11705279  1  -1.288502  9e-06  -0.421717  -0.366344  -1.5e-05  3.593999  0.0
N  N232  1  0.96293167  0.85967926  0.59090841  1  -1.189792  0.048564  -0.328875  -0.254633  0.025505  3.591997  0.046
N  N233  1  0.46293779  0.14032051  0.90908864  1  -1.189695  0.048565  -0.328911  -0.254734  0.025505  3.591868  0.046
N  N234  1  0.03706640  0.14032325  0.40909057  1  -1.189635  0.048563  -0.328873  -0.254646  0.025505  3.591841  0.046
N  N235  1  0.53706484  0.85967473  0.09090877  1  -1.189631  0.048565  -0.328829  -0.254549  0.025507  3.591854  0.046
N  N236  1  0.75961723  0.44088985  0.63915371  1  -1.240741  -0.001075  -0.415819  -0.357259  -0.001099  3.544798  -0.001
N  N237  1  0.25961860  0.55911248  0.86084659  1  -1.240732  -0.001075  -0.415848  -0.357134  -0.001099  3.544777  -0.001
N  N238  1  0.24038267  0.55911136  0.36084656  1  -1.240738  -0.001075  -0.415832  -0.357113  -0.001099  3.544667  -0.001
N  N239  1  0.74038220  0.44088740  0.13915235  1  -1.240664  -0.001075  -0.415857  -0.357182  -0.001099  3.544809  -0.001
N  N240  1  0.90002103  0.13204815  0.63094393  1  -1.210876  0.046586  -0.327066  -0.248292  0.024345  3.592536  0.046
N  N241  1  0.40001723  0.86795245  0.86905385  1  -1.210902  0.046587  -0.327033  -0.24816  0.024346  3.592409  0.046
N  N242  1  0.09997978  0.86795105  0.36905329  1  -1.210895  0.046588  -0.327089  -0.248316  0.024345  3.59252  0.046
N  N243  1  0.59997718  0.13204543  0.13094361  1  -1.211088  0.046587  -0.327059  -0.24831  0.024345  3.592393  0.046
O  O244  1  0.18698818  0.55144381  0.50358610  1  -1.181362  2.9e-05  -0.304822  -0.519824  -9e-06  2.193841  0.0
O  O245  1  0.68699738  0.44854881  0.99641583  1  -1.181501  2.9e-05  -0.304837  -0.51988  -9e-06  2.193888  0.0
O  O246  1  0.81300440  0.44855080  0.49641592  1  -1.181569  2.9e-05  -0.304855  -0.519837  -9e-06  2.193882  0.0
O  O247  1  0.31301440  0.55144645  0.00358528  1  -1.181445  2.9e-05  -0.304851  -0.519883  -9e-06  2.193903  0.0
O  O248  1  0.66141453  0.42957742  0.74107420  1  -1.177494  -6.5e-05  -0.297547  -0.511371  -4.9e-05  2.238999  0.0
O  O249  1  0.16141779  0.57042185  0.75892443  1  -1.17751  -6.5e-05  -0.297447  -0.511162  -4.9e-05  2.238941  0.0
O  O250  1  0.33858445  0.57042180  0.25892512  1  -1.177471  -6.5e-05  -0.297472  -0.511205  -4.9e-05  2.238916  0.0
O  O251  1  0.83858942  0.42957933  0.24107269  1  -1.177419  -6.5e-05  -0.297503  -0.51129  -4.9e-05  2.239148  0.0
O  O252  1  0.19964199  0.03152780  0.46947246  1  -1.153522  0.081992  -0.306715  -0.546799  0.04353  2.380115  0.068
O  O253  1  0.69963357  0.96846377  0.03052335  1  -1.153456  0.081992  -0.306771  -0.546891  0.04353  2.38017  0.068
O  O254  1  0.80036430  0.96846875  0.53052366  1  -1.153556  0.081993  -0.306736  -0.546843  0.04353  2.380204  0.068
O  O255  1  0.30036358  0.03153145  0.96947249  1  -1.153506  0.081992  -0.306742  -0.546809  0.04353  2.380412  0.068
O  O256  1  0.09000204  0.01104582  0.56370279  1  -1.176388  0.098488  -0.316148  -0.57106  0.051935  2.535459  0.084
O  O257  1  0.59000042  0.98895561  0.93629475  1  -1.176469  0.098482  -0.316161  -0.571078  0.051932  2.535426  0.084
O  O258  1  0.90999877  0.98895469  0.43629313  1  -1.176415  0.09848  -0.316153  -0.571066  0.051932  2.535435  0.084
O  O259  1  0.41000130  0.01104425  0.06370155  1  -1.17645  0.098487  -0.316136  -0.571001  0.051935  2.535501  0.084
O  O260  1  0.31369836  0.01744477  0.80052070  1  -1.138946  0.087281  -0.312287  -0.53347  0.045055  2.158664  0.075
O  O261  1  0.81370524  0.98255874  0.69948194  1  -1.138903  0.087297  -0.312344  -0.533445  0.045053  2.158587  0.075
O  O262  1  0.68629879  0.98255445  0.19947967  1  -1.13888  0.087275  -0.312338  -0.533504  0.045052  2.158588  0.075
O  O263  1  0.18630014  0.01744113  0.30051594  1  -1.138681  0.087283  -0.312351  -0.533492  0.045055  2.158563  0.075
O  O264  1  0.51289937  0.99394641  0.78705338  1  -1.129306  0.090937  -0.312004  -0.546056  0.047102  2.262615  0.079
O  O265  1  0.01290818  0.00605127  0.71294601  1  -1.129557  0.090931  -0.312083  -0.546098  0.047099  2.26252  0.079
O  O266  1  0.48709320  0.00604421  0.21294568  1  -1.129531  0.090934  -0.312064  -0.546125  0.0471  2.262561  0.079
O  O267  1  0.98709537  0.99395322  0.28705234  1  -1.129498  0.090932  -0.312053  -0.546062  0.047098  2.26266  0.079
