# generated using pymatgen
data_Al6H27C74NO30
_symmetry_space_group_name_H-M   'P 1'
_cell_length_a   12.55066855
_cell_length_b   12.56615882
_cell_length_c   28.76145368
_cell_angle_alpha   91.35628753
_cell_angle_beta   91.11674490
_cell_angle_gamma   60.96970167
_symmetry_Int_Tables_number   1
_chemical_formula_structural   Al6H27C74NO30
_chemical_formula_sum   'Al6 H27 C74 N1 O30'
_cell_volume   3964.89984003
_cell_formula_units_Z   1
loop_
 _symmetry_equiv_pos_site_id
 _symmetry_equiv_pos_as_xyz
  1  'x, y, z'
loop_
 _atom_site_type_symbol
 _atom_site_label
 _atom_site_symmetry_multiplicity
 _atom_site_fract_x
 _atom_site_fract_y
 _atom_site_fract_z
 _atom_site_occupancy
 _atom_site_pbe_bader_charge
 _atom_site_pbe_bader_spin_density
 _atom_site_pbe_cm5_charge
 _atom_site_pbe_ddec_charge
 _atom_site_pbe_ddec_spin_density
 _atom_site_pbe_ddec_sum_bond_order
 _atom_site_pbe_magmom
Al  Al0  1  0.41072370  0.41135020  0.49914475  1  2.488544  0  0.399276  1.682137  0  2.559121  0
Al  Al1  1  0.42001858  0.66253487  0.50199531  1  2.478046  0  0.510591  1.662566  0  2.505722  0
Al  Al2  1  0.65790882  0.42853585  0.50064605  1  2.48289  0  0.511229  1.661687  0  2.507484  0
Al  Al3  1  0.92917894  0.91939135  0.00115668  1  2.493881  0  0.39882  1.681339  0  2.560341  0
Al  Al4  1  0.67551152  0.91404873  0.99899657  1  2.476509  0  0.510668  1.662218  0  2.506589  0
Al  Al5  1  0.90803749  0.67454184  0.99968976  1  2.480858  0  0.509565  1.660625  0  2.510382  0
H  H6  1  0.45981413  0.78365038  0.78174688  1  0.080028  0  0.107452  0.099628  0  0.984774  0
H  H7  1  0.56214248  0.87644540  0.71798915  1  0.067433  0  0.106821  0.098736  0  0.986763  0
H  H8  1  0.55233061  0.56463065  0.72805820  1  0.058488  0  0.104063  0.093027  0  1.003321  0
H  H9  1  0.77018425  0.46534123  0.78205240  1  0.07741  0  0.106877  0.098838  0  0.988555  0
H  H10  1  0.87254167  0.55802471  0.71827531  1  0.082616  0  0.10642  0.097787  0  0.987952  0
H  H11  1  0.78044815  0.77656342  0.77195476  1  0.082776  0  0.104169  0.093668  0  1.003125  0
H  H12  1  0.70628010  0.33610112  0.72292022  1  0.064895  0  0.106571  0.106769  0  1.009591  0
H  H13  1  0.71353030  0.29469558  0.80766789  1  0.063326  0  0.111431  0.113712  0  0.988998  0
H  H14  1  0.64578412  0.99567737  0.77637559  1  0.069525  0  0.105901  0.105539  0  1.013617  0
H  H15  1  0.63912348  0.03669851  0.69165287  1  0.083629  0  0.11081  0.112876  0  0.989433  0
H  H16  1  0.04640053  0.61376932  0.69470729  1  0.096619  0  0.110926  0.112307  0  0.991064  0
H  H17  1  0.00960054  0.61625376  0.77979989  1  0.075468  0  0.107573  0.108493  0  1.003337  0
H  H18  1  0.29080711  0.71199998  0.80900057  1  0.084893  0  0.112946  0.115522  0  0.985616  0
H  H19  1  0.32757043  0.70950433  0.72391152  1  0.089531  0  0.107314  0.10726  0  1.007959  0
H  H20  1  0.58323237  0.57103278  0.18889151  1  0.152869  0  0.127976  0.146409  0  0.977635  0
H  H21  1  0.75633325  0.78651882  0.22637223  1  0.086765  0  0.117597  0.120886  0  0.981025  0
H  H22  1  0.73029898  0.75965576  0.30954911  1  0.124918  0  0.12256  0.129393  0  0.966968  0
H  H23  1  0.47269006  0.25498870  0.29262062  1  0.102167  0  0.118204  0.124732  0  0.971272  0
H  H24  1  0.47651853  0.22143246  0.20661925  1  0.0769  0  0.1154  0.119241  0  0.975263  0
H  H25  1  0.86616573  0.07765347  0.20801799  1  0.084316  0  0.113635  0.117972  0  0.981362  0
H  H26  1  0.86231508  0.11051511  0.29408552  1  0.108621  0  0.113696  0.119008  0  0.979621  0
H  H27  1  0.99984292  0.84521775  0.30359872  1  0.072202  0  0.108017  0.110941  0  0.996514  0
H  H28  1  0.96537771  0.84568198  0.21802033  1  0.09097  0  0.103492  0.10265  0  1.016226  0
H  H29  1  0.29454839  0.50039055  0.20450440  1  0.119996  0  0.111246  0.118179  0  0.986302  0
H  H30  1  0.32819970  0.49972269  0.28992639  1  0.101767  0  0.108187  0.110706  0  1.019124  0
H  H31  1  0.30634003  0.31427498  0.52678364  1  0.596799  0  0.29445  0.385003  0  0.919678  0
H  H32  1  0.02357726  0.02726876  0.03158824  1  0.599293  0  0.294956  0.385462  0  0.918949  0
C  C33  1  0.28729644  0.62202518  0.56842400  1  1.660717  0  0.27692  0.711906  0  4.165918  0
C  C34  1  0.61471601  0.62080221  0.56456340  1  1.666807  0  0.285894  0.723602  0  4.149689  0
C  C35  1  0.62316429  0.29177963  0.56703774  1  1.68524  0  0.277428  0.71176  0  4.166467  0
C  C36  1  0.27696983  0.62581327  0.43658643  1  1.650955  0  0.282353  0.710825  0  4.16286  0
C  C37  1  0.60253887  0.61624725  0.43477077  1  1.651306  0  0.288396  0.720267  0  4.14686  0
C  C38  1  0.62347175  0.28579568  0.43443231  1  1.629273  0  0.282219  0.708892  0  4.161834  0
C  C39  1  0.60848748  0.78524590  0.73261792  1  0.003461  0  -0.06645  -0.075928  0  3.622387  0
C  C40  1  0.55133682  0.73341455  0.76721153  1  -0.043545  0  -0.066359  -0.076691  0  3.623004  0
C  C41  1  0.68941857  0.69881269  0.88867341  1  0.267045  0  -0.039519  -0.205434  0  3.955339  0
C  C42  1  0.63940712  0.64562298  0.61131580  1  0.076982  0  -0.040486  -0.20599  0  3.956711  0
C  C43  1  0.72947980  0.72964528  0.76166267  1  -0.021217  0  -0.06565  -0.075567  0  3.614854  0
C  C44  1  0.67214271  0.67781593  0.79782967  1  0.08815  0  0.010137  0.115966  0  3.7863  0
C  C45  1  0.78095836  0.60827015  0.73275336  1  -0.016492  0  -0.067104  -0.076263  0  3.623417  0
C  C46  1  0.66008683  0.66392960  0.70214466  1  0.101109  0  0.009775  0.114621  0  3.785692  0
C  C47  1  0.72385426  0.55650105  0.76739007  1  -0.045587  0  -0.067052  -0.077168  0  3.623511  0
C  C48  1  0.60290775  0.61197374  0.73832107  1  -0.009253  0  -0.065048  -0.073402  0  3.61473  0
C  C49  1  0.68058099  0.68793858  0.84669678  1  -0.508841  0  -0.011273  -0.013515  0  4.047186  0
C  C50  1  0.65040149  0.65474615  0.65327174  1  -0.327779  0  -0.012618  -0.015469  0  4.049151  0
C  C51  1  0.65344049  0.24189933  0.61298289  1  0.156894  0  -0.032847  -0.184086  0  3.93343  0
C  C52  1  0.69326029  0.26167848  0.73494060  1  -0.007183  0  -0.078901  -0.12217  0  3.966562  0
C  C53  1  0.69713383  0.23887200  0.78204057  1  -0.042202  0  -0.076655  -0.11871  0  3.957731  0
C  C54  1  0.65903056  0.06994910  0.76436477  1  -0.012378  0  -0.078997  -0.122421  0  3.966375  0
C  C55  1  0.65531436  0.09269025  0.71727114  1  -0.033522  0  -0.076861  -0.118288  0  3.961177  0
C  C56  1  0.67204462  0.18923124  0.70179948  1  0.109108  0  0.004965  0.129556  0  4.108636  0
C  C57  1  0.68011966  0.14248663  0.79750198  1  0.147738  0  0.006211  0.131283  0  4.10417  0
C  C58  1  0.68716458  0.11635165  0.84534750  1  -0.518475  0  -0.015061  -0.023722  0  4.071551  0
C  C59  1  0.66416451  0.21579271  0.65396403  1  -0.45126  0  -0.01631  -0.025589  0  4.075944  0
C  C60  1  0.69669472  0.09074830  0.88635289  1  0.217524  0  -0.02918  -0.180475  0  3.931215  0
C  C61  1  0.23830970  0.64808116  0.61465891  1  -0.079834  0  -0.031491  -0.181868  0  3.933859  0
C  C62  1  0.09929289  0.63526979  0.71996508  1  -0.057449  0  -0.0773  -0.118701  0  3.959866  0
C  C63  1  0.07900215  0.63656051  0.76722447  1  -0.003809  0  -0.077276  -0.121052  0  3.963566  0
C  C64  1  0.23797158  0.69041316  0.78374286  1  -0.006823  0  -0.07511  -0.115324  0  3.954067  0
C  C65  1  0.25822634  0.68912571  0.73647739  1  0.006766  0  -0.078325  -0.122559  0  3.964438  0
C  C66  1  0.18952034  0.66126371  0.70383657  1  0.064697  0  0.00643  0.13215  0  4.104899  0
C  C67  1  0.14784453  0.66426815  0.79985700  1  0.090109  0  0.007089  0.130164  0  4.105039  0
C  C68  1  0.12395986  0.66901464  0.84789438  1  -0.295446  0  -0.013415  -0.022625  0  4.070185  0
C  C69  1  0.21374524  0.65609153  0.65580622  1  -0.17013  0  -0.017171  -0.027499  0  4.07517  0
C  C70  1  0.09995928  0.67681009  0.88908926  1  0.023724  0  -0.029658  -0.180771  0  3.93235  0
C  C71  1  0.62348861  0.63744364  0.38769766  1  0.218433  0  -0.012753  -0.155324  0  3.852123  0
C  C72  1  0.60189240  0.59924304  0.26150791  1  0.231369  0  0.088462  0.028964  0  3.89245  0
C  C73  1  0.61581429  0.61356615  0.21463109  1  0.029317  0  -0.059992  -0.152096  0  3.89772  0
C  C74  1  0.71237180  0.73405131  0.23620452  1  -0.029792  0  -0.058884  -0.093127  0  3.909876  0
C  C75  1  0.69787540  0.71906491  0.28285538  1  0.004767  0  -0.064264  -0.102754  0  3.920537  0
C  C76  1  0.64142124  0.65164086  0.29727509  1  0.100286  0  0.022849  0.09313  0  4.065788  0
C  C77  1  0.67093933  0.68176611  0.20112126  1  0.104796  0  0.014194  0.138164  0  4.09359  0
C  C78  1  0.68468968  0.69629826  0.15322718  1  -0.099601  0  -0.001636  -0.005059  0  4.028684  0
C  C79  1  0.62886473  0.64033786  0.34541535  1  -0.327327  0  0.000466  0.00602  0  4.053335  0
C  C80  1  0.69626370  0.70747054  0.11194635  1  -0.103692  0  -0.020376  -0.172573  0  3.898975  0
C  C81  1  0.65280308  0.23325897  0.38851713  1  -0.131609  0  -0.029145  -0.179014  0  3.935144  0
C  C82  1  0.55833896  0.21491012  0.27380445  1  -0.03338  0  -0.070086  -0.107594  0  3.940179  0
C  C83  1  0.56049276  0.19653859  0.22606744  1  0.016062  0  -0.071933  -0.107677  0  3.944856  0
C  C84  1  0.78073074  0.11542972  0.22693260  1  -0.043457  0  -0.07702  -0.119801  0  3.958495  0
C  C85  1  0.77861801  0.13358276  0.27470246  1  -0.069885  0  -0.077183  -0.121638  0  3.959792  0
C  C86  1  0.66722621  0.18393874  0.29878380  1  0.137244  0  0.005781  0.125788  0  4.111139  0
C  C87  1  0.67165277  0.14668628  0.20193985  1  0.081808  0  0.004007  0.124627  0  4.112829  0
C  C88  1  0.67599052  0.12585537  0.15336151  1  -0.544199  0  -0.016526  -0.027289  0  4.083068  0
C  C89  1  0.66238828  0.20770854  0.34715094  1  -0.101054  0  -0.015625  -0.025276  0  4.078942  0
C  C90  1  0.68451109  0.10380983  0.11168813  1  0.315666  0  -0.034848  -0.188784  0  3.946923  0
C  C91  1  0.22016463  0.65805478  0.39152225  1  -0.220891  0  -0.030389  -0.184076  0  3.928626  0
C  C92  1  0.06335478  0.76974306  0.28173944  1  -0.012368  0  -0.081342  -0.125054  0  3.971327  0
C  C93  1  0.04420521  0.76989549  0.23407672  1  -0.048896  0  -0.082671  -0.124143  0  3.970195  0
C  C94  1  0.22942914  0.57476159  0.22632765  1  -0.070394  0  -0.077568  -0.114485  0  3.949042  0
C  C95  1  0.24820701  0.57421960  0.27399163  1  0.018484  0  -0.077747  -0.111233  0  3.93957  0
C  C96  1  0.16591491  0.67191673  0.30234973  1  0.122385  0  0.004557  0.127156  0  4.10346  0
C  C97  1  0.12718552  0.67267444  0.20564805  1  0.090071  0  0.001988  0.12197  0  4.116311  0
C  C98  1  0.10761252  0.67580894  0.15701789  1  -0.374294  0  -0.01373  -0.016593  0  4.074502  0
C  C99  1  0.19064918  0.66884405  0.35058870  1  -0.045915  0  -0.010535  -0.011918  0  4.061494  0
C  C100  1  0.08825495  0.68288498  0.11522466  1  0.103989  0  -0.036154  -0.19324  0  3.940659  0
C  C101  1  0.72382446  0.04194085  0.93248816  1  1.684656  0  0.279804  0.70863  0  4.166188  0
C  C102  1  0.71320787  0.72371079  0.93552811  1  1.647632  0  0.285968  0.724767  0  4.147146  0
C  C103  1  0.05009304  0.70420400  0.93513947  1  1.651676  0  0.281699  0.707406  0  4.168242  0
C  C104  1  0.71154335  0.05454873  0.06522969  1  1.624654  0  0.277297  0.711569  0  4.166898  0
C  C105  1  0.72102730  0.72808188  0.06522205  1  1.648013  0  0.288133  0.721377  0  4.14931  0
C  C106  1  0.04451497  0.71145787  0.06819715  1  1.646117  0  0.277807  0.714204  0  4.163352  0
N  N107  1  0.54403403  0.52568922  0.27261956  1  0.361943  0  0.061141  0.51297  0  4.199502  0
O  O108  1  0.52116933  0.31264235  0.55042126  1  -1.211182  0  -0.208862  -0.560179  0  2.292791  0
O  O109  1  0.30638790  0.52254971  0.54969261  1  -1.217903  0  -0.209077  -0.562965  0  2.291599  0
O  O110  1  0.31207357  0.70111125  0.55106670  1  -1.249976  0  -0.240267  -0.601325  0  2.236228  0
O  O111  1  0.51387812  0.69792031  0.54585995  1  -1.244161  0  -0.225774  -0.586429  0  2.243859  0
O  O112  1  0.69258656  0.51983928  0.54586103  1  -1.255635  0  -0.225621  -0.585418  0  2.244708  0
O  O113  1  0.70121319  0.31515047  0.54769949  1  -1.25193  0  -0.240727  -0.601948  0  2.236356  0
O  O114  1  0.52065703  0.31027171  0.44997213  1  -1.207321  0  -0.197495  -0.532311  0  2.286579  0
O  O115  1  0.30935203  0.51931739  0.44973113  1  -1.207847  0  -0.197671  -0.534415  0  2.289853  0
O  O116  1  0.29457540  0.70647670  0.45897586  1  -1.257357  0  -0.242494  -0.608321  0  2.228623  0
O  O117  1  0.50194001  0.69374119  0.45319734  1  -1.235985  0  -0.221169  -0.57914  0  2.238657  0
O  O118  1  0.68340035  0.51826720  0.45340241  1  -1.238759  0  -0.221553  -0.579852  0  2.243096  0
O  O119  1  0.70304262  0.30807706  0.45520948  1  -1.251698  0  -0.242854  -0.607627  0  2.228657  0
O  O120  1  0.49736155  0.50207330  0.50115603  1  -1.615552  0  -0.391193  -1.274997  0  2.292908  0
O  O121  1  0.03522113  0.80172220  0.95426453  1  -1.209577  0  -0.197927  -0.531985  0  2.281894  0
O  O122  1  0.82747504  0.01509950  0.94902651  1  -1.213041  0  -0.199369  -0.53603  0  2.285663  0
O  O123  1  0.64117311  0.02589728  0.95203433  1  -1.249319  0  -0.241078  -0.605727  0  2.239868  0
O  O124  1  0.63714776  0.82656354  0.95361539  1  -1.243216  0  -0.226047  -0.586741  0  2.239122  0
O  O125  1  0.81163883  0.64459283  0.95502342  1  -1.241389  0  -0.225021  -0.586592  0  2.246645  0
O  O126  1  0.01995966  0.62825943  0.95198618  1  -1.251984  0  -0.240094  -0.602887  0  2.236493  0
O  O127  1  0.01899224  0.81589958  0.05449549  1  -1.214137  0  -0.207188  -0.559186  0  2.303091  0
O  O128  1  0.81393871  0.02998464  0.04910457  1  -1.215502  0  -0.210167  -0.565408  0  2.298666  0
O  O129  1  0.63057521  0.03426736  0.04452043  1  -1.250733  0  -0.242427  -0.603138  0  2.224002  0
O  O130  1  0.64437030  0.82742019  0.04633544  1  -1.232284  0  -0.220107  -0.577307  0  2.245713  0
O  O131  1  0.82119500  0.64740642  0.04748046  1  -1.241661  0  -0.222175  -0.579479  0  2.243381  0
O  O132  1  0.02993421  0.63066700  0.04456207  1  -1.250859  0  -0.243562  -0.607291  0  2.226654  0
O  O133  1  0.83610807  0.83491939  0.99996476  1  -1.610336  0  -0.391035  -1.274591  0  2.294357  0
O  O134  1  0.52199373  0.51914829  0.31399748  1  -0.436183  0  -0.103168  -0.305706  0  1.94612  0
O  O135  1  0.52018823  0.47440491  0.23980499  1  -0.462247  0  -0.120887  -0.335362  0  1.958709  0
O  O136  1  0.33242890  0.32810280  0.49721165  1  -1.376345  0  -0.574564  -0.990464  0  1.792596  0
O  O137  1  0.01496287  0.99502058  0.00176753  1  -1.379829  0  -0.574708  -0.99019  0  1.791251  0
