# generated using pymatgen
data_AgH10C17N4O2F5
_symmetry_space_group_name_H-M   'P 1'
_cell_length_a   5.33651086
_cell_length_b   10.46679787
_cell_length_c   15.58332068
_cell_angle_alpha   74.23650429
_cell_angle_beta   86.01239768
_cell_angle_gamma   84.73166146
_symmetry_Int_Tables_number   1
_chemical_formula_structural   AgH10C17N4O2F5
_chemical_formula_sum   'Ag2 H20 C34 N8 O4 F10'
_cell_volume   833.24677998
_cell_formula_units_Z   2
loop_
 _symmetry_equiv_pos_site_id
 _symmetry_equiv_pos_as_xyz
  1  'x, y, z'
loop_
 _atom_site_type_symbol
 _atom_site_label
 _atom_site_symmetry_multiplicity
 _atom_site_fract_x
 _atom_site_fract_y
 _atom_site_fract_z
 _atom_site_occupancy
 _atom_site_pbe_bader_spin_density
 _atom_site_pbe_cm5_charge
 _atom_site_pbe_ddec_charge
 _atom_site_pbe_ddec_spin_density
 _atom_site_pbe_ddec_sum_bond_order
 _atom_site_pbe_magmom
Ag  Ag0  1  0.18059890  0.03798595  0.39073527  1  0  0.475981  0.304306  0  1.971039  0
Ag  Ag1  1  0.81941864  0.96200287  0.60926767  1  0  0.476048  0.304424  0  1.97061  0
H  H2  1  0.65046050  0.84412249  0.44244389  1  0  0.125377  0.105936  0  1.01257  0
H  H3  1  0.34957817  0.15585141  0.55755297  1  0  0.125365  0.105873  0  1.012779  0
H  H4  1  0.40189965  0.50961503  0.65237097  1  0  0.116573  0.130516  0  0.993754  0
H  H5  1  0.59809576  0.49037165  0.34763425  1  0  0.116572  0.130495  0  0.9936  0
H  H6  1  0.04096790  0.66791582  0.67971105  1  0  0.115569  0.083623  0  1.045409  0
H  H7  1  0.95905155  0.33209497  0.32028896  1  0  0.115542  0.083575  0  1.045254  0
H  H8  1  0.76568616  0.42580451  0.64533888  1  0  0.099298  0.10005  0  1.045581  0
H  H9  1  0.23433449  0.57417738  0.35466658  1  0  0.099312  0.1001  0  1.04553  0
H  H10  1  0.86717302  0.71162007  0.38926685  1  0  0.108567  0.127539  0  1.024068  0
H  H11  1  0.13287136  0.28836712  0.61074531  1  0  0.108578  0.127548  0  1.024055  0
H  H12  1  0.69010225  0.01050002  0.27493207  1  0  0.121616  0.116548  0  1.019891  0
H  H13  1  0.30991410  0.98951881  0.72507227  1  0  0.121598  0.11655  0  1.019725  0
H  H14  1  0.96718031  0.14450417  0.15799830  1  0  0.110997  0.124748  0  1.011918  0
H  H15  1  0.03282183  0.85552049  0.84200275  1  0  0.111086  0.12481  0  1.012082  0
H  H16  1  0.38194077  0.46513362  0.14145349  1  0  0.114969  0.095994  0  1.013554  0
H  H17  1  0.61800786  0.53486152  0.85854240  1  0  0.114981  0.096076  0  1.013459  0
H  H18  1  0.08522634  0.25574690  0.02562754  1  0  0.100345  0.106923  0  1.016522  0
H  H19  1  0.91477325  0.74425647  0.97435644  1  0  0.100391  0.106945  0  1.016535  0
H  H20  1  0.66831867  0.59470870  0.08940601  1  0  0.095689  0.101166  0  1.052252  0
H  H21  1  0.33166520  0.40529962  0.91058322  1  0  0.095645  0.101117  0  1.052406  0
C  C22  1  0.52240511  0.79570032  0.49626949  1  0  0.057263  0.018457  0  3.918061  0
C  C23  1  0.47763156  0.20428555  0.50372708  1  0  0.057273  0.018505  0  3.918621  0
C  C24  1  0.56842699  0.66112814  0.54392725  1  0  0.019604  0.072943  0  3.947363  0
C  C25  1  0.43161091  0.33886287  0.45607730  1  0  0.019529  0.07261  0  3.947629  0
C  C26  1  0.38940201  0.61259203  0.61193759  1  0  -0.059398  -0.116501  0  3.882299  0
C  C27  1  0.61062892  0.38739596  0.38806900  1  0  -0.059377  -0.116399  0  3.882314  0
C  C28  1  0.18582493  0.69848608  0.62671182  1  0  0.045324  0.059269  0  3.944927  0
C  C29  1  0.81420113  0.30150778  0.37328930  1  0  0.045283  0.059305  0  3.944868  0
C  C30  1  0.86690062  0.45823742  0.58115672  1  0  -0.083574  -0.108702  0  3.948087  0
C  C31  1  0.13311286  0.54174242  0.41884931  1  0  -0.083661  -0.108894  0  3.948404  0
C  C32  1  0.78884864  0.57974638  0.52110465  1  0  -0.004832  0.060677  0  3.98781  0
C  C33  1  0.21117878  0.42023952  0.47889794  1  0  -0.00468  0.060894  0  3.987843  0
C  C34  1  0.92600800  0.62055893  0.43902198  1  0  -0.080106  -0.107654  0  3.911966  0
C  C35  1  0.07401179  0.37942793  0.56098256  1  0  -0.080079  -0.107737  0  3.912044  0
C  C36  1  0.63434995  0.11450014  0.24312792  1  0  0.049303  0.058609  0  3.912154  0
C  C37  1  0.36566761  0.88551173  0.75687835  1  0  0.049336  0.058797  0  3.911817  0
C  C38  1  0.78737013  0.19047043  0.17605202  1  0  -0.061454  -0.114448  0  3.889895  0
C  C39  1  0.21261957  0.80955015  0.82395078  1  0  -0.061562  -0.114561  0  3.889918  0
C  C40  1  0.70607369  0.32263911  0.13664458  1  0  0.014816  0.064869  0  3.962104  0
C  C41  1  0.29391419  0.67736831  0.86334857  1  0  0.01479  0.064664  0  3.962117  0
C  C42  1  0.46797287  0.36512016  0.16918184  1  0  0.049763  0.008355  0  3.932279  0
C  C43  1  0.53200696  0.63487920  0.83081177  1  0  0.049645  0.008227  0  3.932304  0
C  C44  1  0.04760709  0.36270716  0.01563542  1  0  -0.085774  -0.114096  0  3.969237  0
C  C45  1  0.95237132  0.63729901  0.98434730  1  0  -0.085774  -0.113902  0  3.969425  0
C  C46  1  0.85511490  0.41277659  0.06679552  1  0  -0.006071  0.063182  0  3.990954  0
C  C47  1  0.14485153  0.58722248  0.93318695  1  0  -0.005983  0.063182  0  3.990906  0
C  C48  1  0.81102839  0.55190138  0.04982040  1  0  -0.08697  -0.119156  0  3.957653  0
C  C49  1  0.18894824  0.44810373  0.95015936  1  0  -0.086956  -0.118969  0  3.95745  0
C  C50  1  0.27961446  0.83513318  0.27260096  1  0  0.175607  0.46608  0  4.353537  0
C  C51  1  0.72044787  0.16483612  0.72740898  1  0  0.175839  0.466113  0  4.353283  0
C  C52  1  0.25264051  0.77677479  0.19104517  1  0  0.183329  0.204778  0  3.965742  0
C  C53  1  0.74733230  0.22323247  0.80894585  1  0  0.183283  0.204849  0  3.965366  0
C  C54  1  0.32868234  0.87449914  0.10077575  1  0  0.292667  0.583943  0  4.066224  0
C  C55  1  0.67125447  0.12553399  0.89922544  1  0  0.29256  0.584188  0  4.066183  0
N  N56  1  0.31767577  0.87207715  0.51022982  1  0  -0.221736  -0.099183  0  3.544505  0
N  N57  1  0.68235652  0.12791272  0.48976868  1  0  -0.221606  -0.098765  0  3.544117  0
N  N58  1  0.14924087  0.82436370  0.57667635  1  0  -0.220998  -0.107079  0  3.513368  0
N  N59  1  0.85078640  0.17563305  0.42331777  1  0  -0.221033  -0.107228  0  3.51345  0
N  N60  1  0.41538136  0.16425493  0.27302504  1  0  -0.214935  -0.095697  0  3.509616  0
N  N61  1  0.58461715  0.83574563  0.72697170  1  0  -0.214947  -0.095874  0  3.509762  0
N  N62  1  0.33043156  0.29022886  0.23521693  1  0  -0.195996  -0.143791  0  3.314529  0
N  N63  1  0.66955582  0.70977059  0.76477838  1  0  -0.195904  -0.14359  0  3.31445  0
O  O64  1  0.09385144  0.91321106  0.28531984  1  0  -0.329658  -0.516474  0  2.294768  0
O  O65  1  0.90620249  0.08676648  0.71470865  1  0  -0.329783  -0.516559  0  2.294997  0
O  O66  1  0.48016804  0.80007698  0.31190555  1  0  -0.322111  -0.526021  0  2.210234  0
O  O67  1  0.51988768  0.19990478  0.68807461  1  0  -0.322223  -0.526073  0  2.209717  0
F  F68  1  0.01247762  0.74359024  0.18537691  1  0  -0.109514  -0.149737  0  1.368574  0
F  F69  1  0.98748088  0.25642613  0.81462816  1  0  -0.109705  -0.1499  0  1.368421  0
F  F70  1  0.40879987  0.66099942  0.19825191  1  0  -0.105683  -0.172392  0  1.399229  0
F  F71  1  0.59114553  0.33900033  0.80172137  1  0  -0.105492  -0.172303  0  1.399253  0
F  F72  1  0.55746374  0.91847142  0.10461131  1  0  -0.093629  -0.184045  0  1.369464  0
F  F73  1  0.44256342  0.08148252  0.89539350  1  0  -0.093588  -0.184054  0  1.369739  0
F  F74  1  0.15839004  0.98147818  0.08017526  1  0  -0.093164  -0.18838  0  1.37173  0
F  F75  1  0.84159860  0.01859017  0.91987561  1  0  -0.093098  -0.188478  0  1.371785  0
F  F76  1  0.34183851  0.81502661  0.03268598  1  0  -0.097126  -0.195277  0  1.360271  0
F  F77  1  0.65795010  0.18503716  0.96730631  1  0  -0.097128  -0.195439  0  1.360347  0
