# generated using pymatgen
data_ZnH4C3SN4O3
_symmetry_space_group_name_H-M   'P 1'
_cell_length_a   6.63428517
_cell_length_b   8.58899424
_cell_length_c   12.74227506
_cell_angle_alpha   90.00003052
_cell_angle_beta   103.18353142
_cell_angle_gamma   90.00002263
_symmetry_Int_Tables_number   1
_chemical_formula_structural   ZnH4C3SN4O3
_chemical_formula_sum   'Zn4 H16 C12 S4 N16 O12'
_cell_volume   706.94208539
_cell_formula_units_Z   4
loop_
 _symmetry_equiv_pos_site_id
 _symmetry_equiv_pos_as_xyz
  1  'x, y, z'
loop_
 _atom_site_type_symbol
 _atom_site_label
 _atom_site_symmetry_multiplicity
 _atom_site_fract_x
 _atom_site_fract_y
 _atom_site_fract_z
 _atom_site_occupancy
 _atom_site_hle17_bader_spin_density
 _atom_site_hle17_ddec_charge
 _atom_site_hle17_ddec_spin_density
 _atom_site_hle17_ddec_sum_bond_order
 _atom_site_hle17_magmom
 _atom_site_hse06_10hf_bader_spin_density
 _atom_site_hse06_10hf_ddec_charge
 _atom_site_hse06_10hf_ddec_spin_density
 _atom_site_hse06_10hf_ddec_sum_bond_order
 _atom_site_hse06_10hf_magmom
 _atom_site_hse06_bader_spin_density
 _atom_site_hse06_ddec_charge
 _atom_site_hse06_ddec_spin_density
 _atom_site_hse06_ddec_sum_bond_order
 _atom_site_hse06_magmom
 _atom_site_pbe_bader_spin_density
 _atom_site_pbe_cm5_charge
 _atom_site_pbe_ddec_charge
 _atom_site_pbe_ddec_spin_density
 _atom_site_pbe_ddec_sum_bond_order
 _atom_site_pbe_magmom
Zn  Zn0  1  0.99257386  0.51313487  0.30961516  1  0  1.001852  0  1.878601  0  0  0.832432  0  2.349339  0  0  0.874111  0  2.29803  0  0  0.63621  0.803078  0  2.385117  0
Zn  Zn1  1  0.00742264  0.01313666  0.19038369  1  0  1.001872  0  1.87856  0  0  0.832462  0  2.349278  0  0  0.874145  0  2.29797  0  0  0.636219  0.80311  0  2.385053  0
Zn  Zn2  1  0.00742535  0.48686403  0.69038360  1  0  1.001853  0  1.878574  0  0  0.832436  0  2.349286  0  0  0.87412  0  2.297985  0  0  0.63622  0.803085  0  2.385064  0
Zn  Zn3  1  0.99257502  0.98686457  0.80961568  1  0  1.001842  0  1.878634  0  0  0.832428  0  2.349364  0  0  0.874109  0  2.298056  0  0  0.6362  0.803076  0  2.385139  0
H  H4  1  0.88582236  0.63978304  0.47395176  1  0  0.423824  0  0.878319  0  0  0.39315  0  0.940561  0  0  0.403665  0  0.925507  0  0  0.293764  0.385754  0  0.951151  0
H  H5  1  0.11417732  0.13978706  0.02604752  1  0  0.423864  0  0.878267  0  0  0.39318  0  0.940519  0  0  0.403695  0  0.925465  0  0  0.293762  0.385786  0  0.951108  0
H  H6  1  0.11417530  0.36021237  0.52604682  1  0  0.423891  0  0.878245  0  0  0.393209  0  0.94049  0  0  0.403725  0  0.925435  0  0  0.293782  0.385814  0  0.95108  0
H  H7  1  0.88582188  0.86021649  0.97395203  1  0  0.423933  0  0.878188  0  0  0.393224  0  0.940478  0  0  0.40374  0  0.925424  0  0  0.293788  0.385828  0  0.95107  0
H  H8  1  0.91832714  0.77743591  0.39488660  1  0  0.389538  0  0.931981  0  0  0.345083  0  1.019034  0  0  0.355699  0  1.004003  0  0  0.290096  0.337543  0  1.029719  0
H  H9  1  0.08167728  0.27743766  0.10511642  1  0  0.389615  0  0.931936  0  0  0.345156  0  1.018943  0  0  0.355773  0  1.00391  0  0  0.290122  0.337617  0  1.029629  0
H  H10  1  0.08167671  0.22256182  0.60511664  1  0  0.389633  0  0.931894  0  0  0.345181  0  1.018898  0  0  0.355798  0  1.003867  0  0  0.290144  0.337642  0  1.029585  0
H  H11  1  0.91832657  0.72256356  0.89488603  1  0  0.389572  0  0.931942  0  0  0.345124  0  1.018979  0  0  0.35574  0  1.003948  0  0  0.29011  0.337583  0  1.029667  0
H  H12  1  0.38231152  0.88033015  0.02479560  1  0  0.130405  0  0.935281  0  0  0.137161  0  1.00504  0  0  0.140385  0  1.001177  0  0  0.11858  0.134821  0  1.00699  0
H  H13  1  0.61768213  0.38032537  0.47520383  1  0  0.130422  0  0.935319  0  0  0.137152  0  1.005138  0  0  0.140375  0  1.001272  0  0  0.118573  0.134812  0  1.00709  0
H  H14  1  0.61768149  0.11967573  0.97520243  1  0  0.130429  0  0.935371  0  0  0.137134  0  1.005182  0  0  0.140355  0  1.001322  0  0  0.118563  0.134796  0  1.007132  0
H  H15  1  0.38231088  0.61967003  0.52479498  1  0  0.130371  0  0.935289  0  0  0.137156  0  1.00504  0  0  0.140378  0  1.001179  0  0  0.118586  0.134814  0  1.006992  0
H  H16  1  0.46950795  0.71262871  0.96648708  1  0  0.125478  0  0.945507  0  0  0.131432  0  1.019394  0  0  0.13417  0  1.016641  0  0  0.118956  0.129395  0  1.020779  0
H  H17  1  0.53048603  0.21262472  0.53351291  1  0  0.125474  0  0.945516  0  0  0.13145  0  1.019375  0  0  0.134186  0  1.016622  0  0  0.118969  0.129414  0  1.020761  0
H  H18  1  0.53048661  0.28737600  0.03351192  1  0  0.125467  0  0.9455  0  0  0.131421  0  1.019376  0  0  0.134158  0  1.016623  0  0  0.118949  0.129387  0  1.020763  0
H  H19  1  0.46950698  0.78737068  0.46648590  1  0  0.125477  0  0.945485  0  0  0.131451  0  1.019373  0  0  0.134188  0  1.016621  0  0  0.118979  0.129411  0  1.020763  0
C  C20  1  0.67676300  0.79198927  0.11440589  1  0  0.695371  0  3.844046  0  0  0.638773  0  4.15692  0  0  0.671844  0  4.147975  0  0  0.212982  0.616503  0  4.161015  0
C  C21  1  0.32323988  0.29198433  0.38559225  1  0  0.695324  0  3.844183  0  0  0.638736  0  4.15707  0  0  0.671811  0  4.148113  0  0  0.212976  0.616467  0  4.161167  0
C  C22  1  0.32323930  0.20801777  0.88559010  1  0  0.695418  0  3.844028  0  0  0.638811  0  4.15691  0  0  0.671888  0  4.147948  0  0  0.21303  0.616544  0  4.161001  0
C  C23  1  0.67676706  0.70800991  0.61440429  1  0  0.695381  0  3.8439  0  0  0.638749  0  4.156884  0  0  0.671815  0  4.147952  0  0  0.212988  0.616475  0  4.160981  0
C  C24  1  0.46009273  0.76746015  0.04307664  1  0  -0.183498  0  3.629784  0  0  -0.254738  0  3.873046  0  0  -0.244561  0  3.882869  0  0  -0.053783  -0.253302  0  3.869478  0
C  C25  1  0.53990085  0.26745766  0.45692431  1  0  -0.183403  0  3.629875  0  0  -0.254698  0  3.873252  0  0  -0.244504  0  3.883069  0  0  -0.053784  -0.253266  0  3.869692  0
C  C26  1  0.53990338  0.23254341  0.95692333  1  0  -0.18348  0  3.629962  0  0  -0.254711  0  3.873298  0  0  -0.244529  0  3.883116  0  0  -0.053755  -0.253274  0  3.869732  0
C  C27  1  0.46009372  0.73253774  0.54307547  1  0  -0.183433  0  3.629642  0  0  -0.254744  0  3.873033  0  0  -0.244566  0  3.882849  0  0  -0.053814  -0.253301  0  3.869463  0
C  C28  1  0.25807370  0.70059320  0.18195155  1  0  0.313876  0  3.768226  0  0  0.26135  0  4.061885  0  0  0.292004  0  4.073328  0  0  0.232163  0.248979  0  4.054274  0
C  C29  1  0.74192448  0.20059067  0.31804913  1  0  0.313899  0  3.768371  0  0  0.261424  0  4.061958  0  0  0.292088  0  4.073411  0  0  0.232205  0.24905  0  4.054354  0
C  C30  1  0.74192706  0.29940919  0.81804896  1  0  0.31391  0  3.768331  0  0  0.261449  0  4.06189  0  0  0.292104  0  4.073342  0  0  0.232192  0.249082  0  4.054276  0
C  C31  1  0.25807627  0.79940590  0.68195217  1  0  0.313895  0  3.768225  0  0  0.261377  0  4.061887  0  0  0.292024  0  4.07333  0  0  0.232145  0.249002  0  4.054281  0
S  S32  1  0.30112082  0.86887371  0.25532220  1  0  -0.410327  0  2.128889  0  0  -0.3909  0  2.517285  0  0  -0.405814  0  2.497473  0  0  -0.179127  -0.380513  0  2.528232  0
S  S33  1  0.69887747  0.36886994  0.24467778  1  0  -0.410362  0  2.128994  0  0  -0.390949  0  2.517373  0  0  -0.405862  0  2.497562  0  0  -0.179151  -0.380559  0  2.528324  0
S  S34  1  0.69887839  0.13112984  0.74467814  1  0  -0.410378  0  2.129005  0  0  -0.390976  0  2.51738  0  0  -0.405889  0  2.497569  0  0  -0.179163  -0.380591  0  2.528325  0
S  S35  1  0.30112328  0.63112546  0.75532274  1  0  -0.410364  0  2.128924  0  0  -0.390931  0  2.517313  0  0  -0.405846  0  2.497505  0  0  -0.179153  -0.380548  0  2.52826  0
N  N36  1  0.33453963  0.66801544  0.09376222  1  0  0.028759  0  3.526925  0  0  0.149834  0  3.706839  0  0  0.100989  0  3.77567  0  0  -0.110974  0.156962  0  3.692732  0
N  N37  1  0.66545698  0.16801295  0.40623827  1  0  0.028712  0  3.526871  0  0  0.149777  0  3.706801  0  0  0.100895  0  3.775671  0  0  -0.110972  0.156916  0  3.692676  0
N  N38  1  0.66545648  0.33198695  0.90623775  1  0  0.028793  0  3.526904  0  0  0.149865  0  3.706757  0  0  0.101009  0  3.775605  0  0  -0.11094  0.156971  0  3.69269  0
N  N39  1  0.33454068  0.83198361  0.59376109  1  0  0.028717  0  3.526895  0  0  0.1498  0  3.706862  0  0  0.10097  0  3.775669  0  0  -0.110955  0.156936  0  3.692735  0
N  N40  1  0.27900272  0.52329766  0.05777524  1  0  -0.062277  0  2.849744  0  0  -0.084916  0  3.127869  0  0  -0.070574  0  3.144569  0  0  -0.060184  -0.086231  0  3.121156  0
N  N41  1  0.72099844  0.02329405  0.44222652  1  0  -0.06225  0  2.849636  0  0  -0.084846  0  3.127735  0  0  -0.070489  0  3.14444  0  0  -0.060166  -0.086167  0  3.121027  0
N  N42  1  0.72099959  0.47670589  0.94222546  1  0  -0.062255  0  2.84967  0  0  -0.08485  0  3.127772  0  0  -0.070502  0  3.144473  0  0  -0.060182  -0.086168  0  3.121068  0
N  N43  1  0.27900232  0.97670251  0.55777478  1  0  -0.062292  0  2.849741  0  0  -0.084932  0  3.127873  0  0  -0.070594  0  3.14457  0  0  -0.060209  -0.086254  0  3.121168  0
N  N44  1  0.17032980  0.46699771  0.12118950  1  0  -0.045207  0  3.087872  0  0  -0.022863  0  3.38172  0  0  -0.02188  0  3.388168  0  0  -0.06043  -0.023023  0  3.374532  0
N  N45  1  0.82967476  0.96699709  0.37881360  1  0  -0.045261  0  3.087886  0  0  -0.022976  0  3.38182  0  0  -0.021988  0  3.388264  0  0  -0.060509  -0.023131  0  3.374633  0
N  N46  1  0.82967715  0.53300351  0.87881253  1  0  -0.045246  0  3.087912  0  0  -0.022979  0  3.381854  0  0  -0.021992  0  3.388301  0  0  -0.060504  -0.023132  0  3.374664  0
N  N47  1  0.17033065  0.03300181  0.62118982  1  0  -0.045177  0  3.087846  0  0  -0.022823  0  3.381693  0  0  -0.021839  0  3.38814  0  0  -0.060408  -0.022984  0  3.374509  0
N  N48  1  0.15443794  0.57110306  0.19844726  1  0  -0.323695  0  3.198102  0  0  -0.259057  0  3.506065  0  0  -0.277522  0  3.51159  0  0  -0.228347  -0.246315  0  3.499216  0
N  N49  1  0.84556635  0.07110287  0.30155646  1  0  -0.323697  0  3.198086  0  0  -0.259054  0  3.506043  0  0  -0.277529  0  3.511574  0  0  -0.228322  -0.24632  0  3.499199  0
N  N50  1  0.84556746  0.42889700  0.80155538  1  0  -0.323743  0  3.198059  0  0  -0.259093  0  3.505994  0  0  -0.277564  0  3.511524  0  0  -0.228329  -0.246357  0  3.499147  0
N  N51  1  0.15443905  0.92889602  0.69844696  1  0  -0.323701  0  3.198115  0  0  -0.259076  0  3.506086  0  0  -0.277539  0  3.511612  0  0  -0.228342  -0.246335  0  3.499236  0
O  O52  1  0.73883212  0.71535986  0.19772246  1  0  -0.60419  0  2.023422  0  0  -0.557849  0  2.2825  0  0  -0.581333  0  2.272791  0  0  -0.303888  -0.541138  0  2.287773  0
O  O53  1  0.26116606  0.21535832  0.30227744  1  0  -0.604184  0  2.023626  0  0  -0.55784  0  2.282707  0  0  -0.581325  0  2.272989  0  0  -0.303862  -0.54113  0  2.287982  0
O  O54  1  0.26116708  0.28464253  0.80227552  1  0  -0.604227  0  2.023588  0  0  -0.557883  0  2.282689  0  0  -0.581368  0  2.272973  0  0  -0.303903  -0.541173  0  2.287965  0
O  O55  1  0.73883624  0.78464174  0.69772012  1  0  -0.604223  0  2.023247  0  0  -0.557886  0  2.282366  0  0  -0.581369  0  2.272661  0  0  -0.30392  -0.541168  0  2.287626  0
O  O56  1  0.78039474  0.90121277  0.07855052  1  0  -0.67947  0  2.072344  0  0  -0.589144  0  2.323933  0  0  -0.619125  0  2.310464  0  0  -0.330606  -0.568531  0  2.33304  0
O  O57  1  0.21960202  0.40120666  0.42144928  1  0  -0.679448  0  2.072219  0  0  -0.589115  0  2.323774  0  0  -0.619096  0  2.310304  0  0  -0.330596  -0.568503  0  2.332884  0
O  O58  1  0.21960137  0.09879427  0.92144787  1  0  -0.679468  0  2.072131  0  0  -0.589135  0  2.323703  0  0  -0.619119  0  2.310229  0  0  -0.33062  -0.568532  0  2.332819  0
O  O59  1  0.78039409  0.59878641  0.57854911  1  0  -0.679393  0  2.072352  0  0  -0.589051  0  2.323948  0  0  -0.619035  0  2.31049  0  0  -0.330582  -0.568442  0  2.333058  0
O  O60  1  0.96977064  0.67132339  0.42161717  1  0  -0.800469  0  2.002325  0  0  -0.729757  0  2.236063  0  0  -0.752068  0  2.200773  0  0  -0.575413  -0.713987  0  2.260251  0
O  O61  1  0.03022907  0.17132743  0.07838290  1  0  -0.800568  0  2.002269  0  0  -0.729853  0  2.236032  0  0  -0.752163  0  2.200738  0  0  -0.575438  -0.714071  0  2.260198  0
O  O62  1  0.03022857  0.32867201  0.57838237  1  0  -0.800605  0  2.002242  0  0  -0.729899  0  2.236023  0  0  -0.75221  0  2.200729  0  0  -0.575487  -0.714125  0  2.2602  0
O  O63  1  0.96977169  0.82867612  0.92161762  1  0  -0.800579  0  2.002225  0  0  -0.729845  0  2.235992  0  0  -0.752158  0  2.2007  0  0  -0.575434  -0.714077  0  2.260185  0
