# generated using pymatgen
data_CuH14C20SN4O3
_symmetry_space_group_name_H-M   'P 1'
_cell_length_a   10.64658302
_cell_length_b   13.57880387
_cell_length_c   17.55106837
_cell_angle_alpha   89.53864700
_cell_angle_beta   104.03948119
_cell_angle_gamma   110.47431298
_symmetry_Int_Tables_number   1
_chemical_formula_structural   CuH14C20SN4O3
_chemical_formula_sum   'Cu4 H56 C80 S4 N16 O12'
_cell_volume   2297.78192446
_cell_formula_units_Z   4
loop_
 _symmetry_equiv_pos_site_id
 _symmetry_equiv_pos_as_xyz
  1  'x, y, z'
loop_
 _atom_site_type_symbol
 _atom_site_label
 _atom_site_symmetry_multiplicity
 _atom_site_fract_x
 _atom_site_fract_y
 _atom_site_fract_z
 _atom_site_occupancy
 _atom_site_pbe_bader_charge
 _atom_site_pbe_bader_spin_density
 _atom_site_pbe_cm5_charge
 _atom_site_pbe_ddec_charge
 _atom_site_pbe_ddec_spin_density
 _atom_site_pbe_ddec_sum_bond_order
 _atom_site_pbe_magmom
Cu  Cu0  1  0.02276854  0.15143964  0.38026715  1  0.679248  0  0.570283  0.282345  0  2.334272  0
Cu  Cu1  1  0.97721701  0.84855721  0.61973085  1  0.679341  0  0.570293  0.282178  0  2.334749  0
Cu  Cu2  1  0.67942856  0.70126012  0.65269287  1  0.762989  0  0.610964  0.290913  0  2.561309  0
Cu  Cu3  1  0.32056965  0.29874298  0.34730764  1  0.762817  0  0.610931  0.291018  0  2.560918  0
H  H4  1  0.01600512  0.21701829  0.53717005  1  0.169999  0  0.120945  0.111084  0  1.034566  0
H  H5  1  0.98398277  0.78297946  0.46282545  1  0.169932  0  0.120936  0.111053  0  1.034644  0
H  H6  1  0.70336364  0.67227778  0.48481760  1  0.134089  0  0.115904  0.089123  0  1.040883  0
H  H7  1  0.29662435  0.32771800  0.51518758  1  0.134108  0  0.115934  0.089244  0  1.040749  0
H  H8  1  0.66769547  0.48621478  0.67414247  1  0.122421  0  0.123704  0.101562  0  0.977495  0
H  H9  1  0.33230129  0.51378717  0.32586693  1  0.122422  0  0.123689  0.101538  0  0.97751  0
H  H10  1  0.62011462  0.87855253  0.86178360  1  0.089769  0  0.09988  0.097219  0  1.024697  0
H  H11  1  0.37990543  0.12144376  0.13821027  1  0.089828  0  0.099837  0.097124  0  1.024861  0
H  H12  1  0.78226451  0.55653076  0.41978308  1  0.089942  0  0.110273  0.118343  0  1.013923  0
H  H13  1  0.21771768  0.44346507  0.58022070  1  0.090053  0  0.110297  0.11828  0  1.013831  0
H  H14  1  0.74826193  0.36216003  0.61685850  1  0.102567  0  0.117177  0.125791  0  0.990983  0
H  H15  1  0.25174774  0.63784258  0.38315506  1  0.102915  0  0.117207  0.125764  0  0.991128  0
H  H16  1  0.65455099  0.51539587  0.17636315  1  0.131317  0  0.11895  0.133548  0  0.972664  0
H  H17  1  0.34546666  0.48460521  0.82364926  1  0.131376  0  0.118884  0.133458  0  0.972827  0
H  H18  1  0.28132622  0.00768676  0.60740059  1  0.06443  0  0.102894  0.10475  0  1.063953  0
H  H19  1  0.71866641  0.99230474  0.39259323  1  0.064512  0  0.102871  0.104782  0  1.063811  0
H  H20  1  0.54079267  0.82418898  0.70709628  1  0.095859  0  0.116473  0.095609  0  1.009029  0
H  H21  1  0.45920759  0.17580623  0.29290383  1  0.09568  0  0.116489  0.095625  0  1.009198  0
H  H22  1  0.89858057  0.91225217  0.27791487  1  0.132709  0  0.110097  0.128092  0  1.021663  0
H  H23  1  0.10141942  0.08774857  0.72208528  1  0.132701  0  0.110092  0.12806  0  1.021759  0
H  H24  1  0.25435708  0.28690115  0.05343583  1  0.106022  0  0.119218  0.129051  0  0.996021  0
H  H25  1  0.74566032  0.71311375  0.94656707  1  0.106427  0  0.119189  0.12906  0  0.99592  0
H  H26  1  0.38662935  0.91914731  0.65286664  1  0.087541  0  0.103283  0.108065  0  1.052622  0
H  H27  1  0.61336066  0.08084878  0.34713086  1  0.087529  0  0.103264  0.108049  0  1.052649  0
H  H28  1  0.68411644  0.11689823  0.17246829  1  0.052298  0  0.100649  0.103235  0  0.99684  0
H  H29  1  0.31586877  0.88308794  0.82751981  1  0.052286  0  0.10063  0.1032  0  0.996792  0
H  H30  1  0.74441024  0.90971087  0.11459013  1  0.092571  0  0.106816  0.116586  0  1.024751  0
H  H31  1  0.25558333  0.09028469  0.88540104  1  0.092449  0  0.106858  0.116663  0  1.024671  0
H  H32  1  0.92428223  0.33202423  0.59356716  1  0.060291  0  0.120396  0.133962  0  0.97145  0
H  H33  1  0.07574096  0.66799473  0.40643322  1  0.060235  0  0.120327  0.133851  0  0.971507  0
H  H34  1  0.46436703  0.99060173  0.19747436  1  0.121514  0  0.101998  0.102851  0  1.051321  0
H  H35  1  0.53561880  0.00938374  0.80251154  1  0.12148  0  0.10202  0.102829  0  1.051556  0
H  H36  1  0.48772945  0.41924495  0.04813554  1  0.088723  0  0.113006  0.106592  0  0.982779  0
H  H37  1  0.51229273  0.58076564  0.95187653  1  0.088442  0  0.112963  0.106574  0  0.982741  0
H  H38  1  0.41516415  0.83753770  0.42069436  1  0.12131  0  0.115229  0.127538  0  0.99125  0
H  H39  1  0.58483659  0.16245866  0.57929672  1  0.121423  0  0.11526  0.127553  0  0.9914  0
H  H40  1  0.58476387  0.81271209  0.99151982  1  0.056395  0  0.102  0.098864  0  0.995267  0
H  H41  1  0.41524607  0.18729141  0.00847099  1  0.056403  0  0.102032  0.098879  0  0.995233  0
H  H42  1  0.96606643  0.14921363  0.98260935  1  0.106842  0  0.110262  0.116324  0  1.007814  0
H  H43  1  0.03394828  0.85078554  0.01739120  1  0.106956  0  0.110237  0.116212  0  1.00785  0
H  H44  1  0.13196100  0.01006508  0.32117345  1  0.169789  0  0.117445  0.093741  0  1.050968  0
H  H45  1  0.86805206  0.98994276  0.67882756  1  0.17002  0  0.117462  0.093787  0  1.050958  0
H  H46  1  0.87380466  0.28979693  0.30937761  1  0.097669  0  0.117808  0.086743  0  0.981645  0
H  H47  1  0.12615903  0.71019667  0.69062174  1  0.097614  0  0.11783  0.086816  0  0.981568  0
H  H48  1  0.56102887  0.74242664  0.48318188  1  0.144182  0  0.113755  0.097237  0  1.047541  0
H  H49  1  0.43897411  0.25757028  0.51681523  1  0.144227  0  0.113796  0.097294  0  1.047504  0
H  H50  1  0.27352452  0.90690911  0.37119320  1  0.120388  0  0.115056  0.126923  0  0.999638  0
H  H51  1  0.72648138  0.09309791  0.62880848  1  0.120779  0  0.115001  0.126824  0  0.99955  0
H  H52  1  0.46082731  0.82713180  0.25858452  1  0.145562  0  0.110437  0.128065  0  0.991007  0
H  H53  1  0.53916776  0.17286274  0.74141255  1  0.14568  0  0.110478  0.128112  0  0.99101  0
H  H54  1  0.58508474  0.47198549  0.30121753  1  0.090807  0  0.114628  0.080286  0  1.009919  0
H  H55  1  0.41492745  0.52800622  0.69879167  1  0.091215  0  0.11458  0.080246  0  1.009771  0
H  H56  1  0.13670318  0.10661436  0.54737016  1  0.144527  0  0.113202  0.091886  0  1.041254  0
H  H57  1  0.86328793  0.89336980  0.45262903  1  0.144326  0  0.113201  0.091917  0  1.041078  0
H  H58  1  0.77370728  0.40910374  0.35699916  1  0.08761  0  0.1107  0.115402  0  1.010969  0
H  H59  1  0.22627587  0.59089207  0.64300533  1  0.088306  0  0.110665  0.115348  0  1.010972  0
C  C60  1  0.95929599  0.25857489  0.49819241  1  0.464109  0  0.04431  0.088382  0  3.930944  0
C  C61  1  0.04069747  0.74142439  0.50180450  1  0.464155  0  0.044317  0.088427  0  3.930886  0
C  C62  1  0.71462898  0.60323824  0.51335186  1  0.465632  0  0.041031  0.092962  0  3.92792  0
C  C63  1  0.28535703  0.39675741  0.48665645  1  0.465501  0  0.041016  0.092763  0  3.927773  0
C  C64  1  0.16975564  0.23224582  0.18659599  1  1.106818  0  0.247732  0.286036  0  4.03015  0
C  C65  1  0.83024579  0.76776196  0.81340619  1  1.106783  0  0.247721  0.285829  0  4.030398  0
C  C66  1  0.69733261  0.50031631  0.61869461  1  0.448125  0  0.043651  0.098231  0  3.922289  0
C  C67  1  0.30266438  0.49968410  0.38131366  1  0.44831  0  0.043718  0.098327  0  3.922731  0
C  C68  1  0.30241631  0.30995265  0.17941804  1  0.475715  0  0.115782  0.138127  0  3.97772  0
C  C69  1  0.69759024  0.69005973  0.82058781  1  0.475584  0  0.115852  0.138224  0  3.977723  0
C  C70  1  0.68606311  0.92378855  0.91698159  1  -0.033295  0  -0.082905  -0.083656  0  3.997423  0
C  C71  1  0.31395303  0.07621165  0.08301292  1  -0.033135  0  -0.082777  -0.083302  0  3.99737  0
C  C72  1  0.80627254  0.02417679  0.22562966  1  -0.010292  0  -0.015507  0.023708  0  4.063973  0
C  C73  1  0.19372657  0.97582012  0.77436746  1  -0.010484  0  -0.015583  0.023454  0  4.064152  0
C  C74  1  0.77865579  0.44921143  0.51357867  1  -0.02996  0  0.005785  0.08614  0  3.988123  0
C  C75  1  0.22133640  0.55078912  0.48642606  1  -0.029943  0  0.005675  0.086018  0  3.988205  0
C  C76  1  0.75812724  0.53595961  0.47603062  1  -0.027068  0  -0.080227  -0.161808  0  3.927246  0
C  C77  1  0.24185918  0.46404105  0.52397100  1  -0.026775  0  -0.080215  -0.161668  0  3.92746  0
C  C78  1  0.93490610  0.09472735  0.20706981  1  0.493511  0  0.140565  0.121292  0  3.880537  0
C  C79  1  0.06509098  0.90527341  0.79292992  1  0.493558  0  0.140593  0.121355  0  3.880673  0
C  C80  1  0.38294075  0.88734762  0.53047838  1  -0.056731  0  0.005347  0.089894  0  3.983996  0
C  C81  1  0.61705622  0.11265503  0.46951339  1  -0.056199  0  0.005292  0.089815  0  3.984216  0
C  C82  1  0.74287058  0.43090386  0.58586690  1  0.0044  0  -0.076047  -0.158161  0  3.933408  0
C  C83  1  0.25713013  0.56909837  0.41413567  1  0.003594  0  -0.07599  -0.158074  0  3.933449  0
C  C84  1  0.86243606  0.04035344  0.05798275  1  -0.022529  0  -0.005667  0.035002  0  3.961712  0
C  C85  1  0.13756534  0.95964421  0.94201585  1  -0.022514  0  -0.005705  0.034925  0  3.961722  0
C  C86  1  0.55501779  0.45422943  0.17481404  1  -0.02249  0  -0.071257  -0.096737  0  3.936432  0
C  C87  1  0.44498912  0.54576950  0.82519222  1  -0.022065  0  -0.071047  -0.096355  0  3.936423  0
C  C88  1  0.24885238  0.00314670  0.54343752  1  -0.006227  0  -0.087101  -0.175951  0  3.953568  0
C  C89  1  0.75114729  0.99684935  0.45656138  1  -0.006619  0  -0.087109  -0.176006  0  3.953153  0
C  C90  1  0.83709050  0.38091161  0.48048307  1  0.023236  0  0.013446  0.105458  0  3.975948  0
C  C91  1  0.16290672  0.61909143  0.51951900  1  0.023528  0  0.01346  0.105461  0  3.975973  0
C  C92  1  0.79461785  0.01777091  0.91471413  1  -0.061603  0  -0.01738  -0.0678  0  3.934972  0
C  C93  1  0.20539230  0.98222686  0.08528175  1  -0.061351  0  -0.017456  -0.068068  0  3.935207  0
C  C94  1  0.50703569  0.82612220  0.64365903  1  0.491308  0  0.042117  0.100541  0  3.928615  0
C  C95  1  0.49296888  0.17387406  0.35633488  1  0.491755  0  0.042199  0.100558  0  3.928612  0
C  C96  1  0.80541218  0.93210629  0.26283630  1  -0.057208  0  -0.082694  -0.138912  0  3.929783  0
C  C97  1  0.19458605  0.06790096  0.73715915  1  -0.057033  0  -0.082664  -0.13876  0  3.929618  0
C  C98  1  0.33202993  0.32968527  0.10635544  1  -0.009615  0  -0.068375  -0.130111  0  3.935849  0
C  C99  1  0.66797498  0.67032171  0.89364724  1  -0.010258  0  -0.068367  -0.130128  0  3.936314  0
C  C100  1  0.68121565  0.86151776  0.27463088  1  -0.100591  0  -0.015591  -0.065046  0  3.939161  0
C  C101  1  0.31878610  0.13848061  0.72536950  1  -0.10051  0  -0.015596  -0.065052  0  3.939501  0
C  C102  1  0.42127524  0.88097684  0.61219249  1  0.005837  0  -0.08306  -0.160173  0  3.928125  0
C  C103  1  0.57872502  0.11901842  0.38780648  1  0.00575  0  -0.082991  -0.160033  0  3.928243  0
C  C104  1  0.68367644  0.04605459  0.20243067  1  -0.082602  0  -0.094097  -0.14664  0  4.006515  0
C  C105  1  0.31630596  0.95393783  0.79755941  1  -0.082602  0  -0.094034  -0.146487  0  4.006546  0
C  C106  1  0.29234480  0.94577869  0.49567930  1  -0.023821  0  0.008372  0.093508  0  3.987771  0
C  C107  1  0.70765152  0.05422455  0.50431752  1  -0.023654  0  0.008359  0.093531  0  3.987622  0
C  C108  1  0.75586603  0.94344635  0.05938707  1  -0.024061  0  -0.07622  -0.083582  0  3.91975  0
C  C109  1  0.24413392  0.05654832  0.94060672  1  -0.02454  0  -0.076285  -0.083746  0  3.919678  0
C  C110  1  0.90728507  0.32455353  0.52979061  1  -0.006845  0  -0.075383  -0.163936  0  3.921599  0
C  C111  1  0.09272242  0.67544870  0.47021236  1  -0.007218  0  -0.075323  -0.163792  0  3.921565  0
C  C112  1  0.56070296  0.97532994  0.21522024  1  -0.079665  0  -0.086602  -0.060698  0  3.983536  0
C  C113  1  0.43929433  0.02465916  0.78477422  1  -0.079589  0  -0.086591  -0.060699  0  3.983321  0
C  C114  1  0.95856035  0.10391485  0.13014583  1  0.58537  0  0.157301  0.188968  0  3.914157  0
C  C115  1  0.04144272  0.89608832  0.86985310  1  0.585319  0  0.157348  0.189041  0  3.914154  0
C  C116  1  0.46125995  0.40255109  0.10431704  1  -0.038402  0  -0.066196  -0.042047  0  3.978497  0
C  C117  1  0.53876167  0.59746038  0.89569269  1  -0.038563  0  -0.066119  -0.042096  0  3.97851  0
C  C118  1  0.43621287  0.83576770  0.48449170  1  -0.047423  0  -0.080305  -0.168054  0  3.940284  0
C  C119  1  0.56378911  0.16422910  0.51550811  1  -0.047843  0  -0.080306  -0.168014  0  3.940241  0
C  C120  1  0.66739416  0.88713469  0.98938350  1  -0.027119  0  -0.092635  -0.088821  0  4.029634  0
C  C121  1  0.33261309  0.11286309  0.01061196  1  -0.026807  0  -0.092724  -0.088947  0  4.029596  0
C  C122  1  0.88135717  0.07628528  0.98455597  1  -0.082175  0  -0.070198  -0.101278  0  3.895528  0
C  C123  1  0.11865427  0.92371314  0.01544353  1  -0.082427  0  -0.070084  -0.100905  0  3.895434  0
C  C124  1  0.16302959  0.00578020  0.38448600  1  0.470008  0  0.043307  0.103775  0  3.899563  0
C  C125  1  0.83697892  0.99422223  0.61551199  1  0.469532  0  0.043334  0.103766  0  3.899549  0
C  C126  1  0.88210341  0.30139716  0.37207521  1  0.448321  0  0.042367  0.089482  0  3.946594  0
C  C127  1  0.11786972  0.69860207  0.62792218  1  0.448702  0  0.042202  0.089105  0  3.946624  0
C  C128  1  0.52077956  0.78158722  0.52005854  1  0.440371  0  0.038161  0.084585  0  3.929368  0
C  C129  1  0.47922743  0.21841200  0.47994033  1  0.440681  0  0.038148  0.08453  0  3.929454  0
C  C130  1  0.24595052  0.94795790  0.41391244  1  -0.03785  0  -0.075769  -0.151696  0  3.896043  0
C  C131  1  0.75405837  0.05204531  0.58608563  1  -0.038576  0  -0.075746  -0.15162  0  3.895852  0
C  C132  1  0.55846730  0.88241441  0.25056862  1  -0.06014  0  -0.076627  -0.081082  0  3.926704  0
C  C133  1  0.44152667  0.11757785  0.74942598  1  -0.060164  0  -0.076676  -0.081117  0  3.926678  0
C  C134  1  0.51654292  0.43040590  0.24529154  1  0.52728  0  0.052232  0.1059  0  3.940352  0
C  C135  1  0.48346648  0.56959215  0.75471735  1  0.526878  0  0.052142  0.105818  0  3.940456  0
C  C136  1  0.16625122  0.05950036  0.50991323  1  0.452203  0  0.037493  0.085713  0  3.940116  0
C  C137  1  0.83374919  0.94049309  0.49009144  1  0.452279  0  0.037555  0.085714  0  3.939763  0
C  C138  1  0.82727020  0.36880902  0.39948836  1  -0.043904  0  -0.081156  -0.166686  0  3.936537  0
C  C139  1  0.17271201  0.63118688  0.60051371  1  -0.0445  0  -0.081111  -0.166509  0  3.936186  0
S  S140  1  0.82359160  0.05981001  0.82079630  1  3.205338  0  0.474301  1.143042  0  6.289265  0
S  S141  1  0.17642345  0.94020811  0.17920516  1  3.20455  0  0.474421  1.142982  0  6.289082  0
S  S142  1  0.67798433  0.73984589  0.31675442  1  3.207198  0  0.481113  1.153418  0  6.290586  0
S  S143  1  0.32201059  0.26014635  0.68324088  1  3.207263  0  0.481159  1.153415  0  6.290677  0
N  N144  1  0.55707860  0.77608083  0.59890724  1  -1.226418  0  -0.364275  -0.213343  0  3.660569  0
N  N145  1  0.44293366  0.22391110  0.40109626  1  -1.226704  0  -0.364352  -0.213465  0  3.660717  0
N  N146  1  0.68795612  0.58841868  0.58493925  1  -1.234676  0  -0.363691  -0.222437  0  3.66796  0
N  N147  1  0.31202991  0.41158115  0.41506343  1  -1.234545  0  -0.363793  -0.2225  0  3.668132  0
N  N148  1  0.94656124  0.24531432  0.42003605  1  -1.22409  0  -0.372373  -0.216499  0  3.706813  0
N  N149  1  0.05341196  0.75468103  0.57995958  1  -1.224573  0  -0.372249  -0.216287  0  3.706989  0
N  N150  1  0.12297937  0.06171900  0.43103438  1  -1.252637  0  -0.372078  -0.226465  0  3.690008  0
N  N151  1  0.87703324  0.93827366  0.56897090  1  -1.252103  0  -0.372161  -0.226488  0  3.690148  0
N  N152  1  0.15490600  0.22152685  0.26087170  1  -0.692494  0  -0.254616  -0.176164  0  3.563702  0
N  N153  1  0.84509119  0.77848018  0.73912929  1  -0.692435  0  -0.254594  -0.175894  0  3.563798  0
N  N154  1  0.39360180  0.35920958  0.24826475  1  -1.238194  0  -0.341088  -0.253481  0  3.560112  0
N  N155  1  0.60639831  0.64079340  0.75173888  1  -1.238034  0  -0.34116  -0.253637  0  3.559886  0
N  N156  1  0.03256467  0.15423331  0.26942245  1  -0.687723  0  -0.239863  -0.102076  0  3.604857  0
N  N157  1  0.96743079  0.84577213  0.73057884  1  -0.687719  0  -0.239889  -0.102154  0  3.605019  0
N  N158  1  0.07647588  0.17795759  0.12218317  1  -1.188944  0  -0.28266  -0.307254  0  3.280672  0
N  N159  1  0.92352442  0.82204785  0.87781825  1  -1.189077  0  -0.282725  -0.307271  0  3.28061  0
O  O160  1  0.97351494  0.09116036  0.83032854  1  -1.318937  0  -0.361897  -0.609054  0  2.154134  0
O  O161  1  0.02650304  0.90886788  0.16967693  1  -1.318603  0  -0.361802  -0.60899  0  2.154324  0
O  O162  1  0.74222459  0.96358051  0.76679156  1  -1.35936  0  -0.367769  -0.640568  0  2.223751  0
O  O163  1  0.25780002  0.03643950  0.23320220  1  -1.359309  0  -0.367809  -0.640551  0  2.22388  0
O  O164  1  0.63651407  0.66295981  0.24915997  1  -1.34061  0  -0.364307  -0.615319  0  2.16124  0
O  O165  1  0.36347244  0.33703704  0.75083818  1  -1.340797  0  -0.36443  -0.615476  0  2.161042  0
O  O166  1  0.77046203  0.14575803  0.80379234  1  -1.335042  0  -0.377643  -0.617368  0  2.100441  0
O  O167  1  0.22953984  0.85425257  0.19621851  1  -1.334761  0  -0.377801  -0.6174  0  2.100049  0
O  O168  1  0.57625348  0.71800612  0.36438619  1  -1.336168  0  -0.367523  -0.633716  0  2.181787  0
O  O169  1  0.42374819  0.28199604  0.63561823  1  -1.33622  0  -0.367475  -0.633683  0  2.18193  0
O  O170  1  0.82060683  0.76105719  0.36489549  1  -1.357109  0  -0.367049  -0.629281  0  2.193906  0
O  O171  1  0.17939774  0.23893904  0.63509899  1  -1.3571  0  -0.367042  -0.629212  0  2.194047  0
