# generated using pymatgen
data_UH6C6(NO4)2
_symmetry_space_group_name_H-M   'P 1'
_cell_length_a   5.40284709
_cell_length_b   6.22560821
_cell_length_c   14.65303211
_cell_angle_alpha   89.99971242
_cell_angle_beta   97.21267033
_cell_angle_gamma   89.99994087
_symmetry_Int_Tables_number   1
_chemical_formula_structural   UH6C6(NO4)2
_chemical_formula_sum   'U2 H12 C12 N4 O16'
_cell_volume   488.96942740
_cell_formula_units_Z   2
loop_
 _symmetry_equiv_pos_site_id
 _symmetry_equiv_pos_as_xyz
  1  'x, y, z'
loop_
 _atom_site_type_symbol
 _atom_site_label
 _atom_site_symmetry_multiplicity
 _atom_site_fract_x
 _atom_site_fract_y
 _atom_site_fract_z
 _atom_site_occupancy
 _atom_site_hle17_bader_spin_density
 _atom_site_hle17_ddec_charge
 _atom_site_hle17_ddec_spin_density
 _atom_site_hle17_ddec_sum_bond_order
 _atom_site_hle17_magmom
 _atom_site_hse06_10hf_bader_spin_density
 _atom_site_hse06_10hf_ddec_charge
 _atom_site_hse06_10hf_ddec_spin_density
 _atom_site_hse06_10hf_ddec_sum_bond_order
 _atom_site_hse06_10hf_magmom
 _atom_site_hse06_bader_spin_density
 _atom_site_hse06_ddec_charge
 _atom_site_hse06_ddec_spin_density
 _atom_site_hse06_ddec_sum_bond_order
 _atom_site_hse06_magmom
 _atom_site_pbe_bader_spin_density
 _atom_site_pbe_cm5_charge
 _atom_site_pbe_ddec_charge
 _atom_site_pbe_ddec_spin_density
 _atom_site_pbe_ddec_sum_bond_order
 _atom_site_pbe_magmom
U  U0  1  0.55492263  0.69963346  0.93791543  1  0  2.468994  0  4.125443  0  0  2.514883  0  4.79004  0  0  2.620113  0  4.755528  0  0  2.167076  2.440207  0  4.814912  0
U  U1  1  0.55493041  0.30036461  0.43791440  1  0  2.468934  0  4.125451  0  0  2.514877  0  4.789973  0  0  2.62006  0  4.75552  0  0  2.16711  2.440185  0  4.814877  0
H  H2  1  0.51844432  0.16655123  0.96913308  1  0  0.43586  0  0.851608  0  0  0.409991  0  0.914504  0  0  0.421361  0  0.898087  0  0  0.315375  0.401861  0  0.926212  0
H  H3  1  0.51843782  0.83344649  0.46913361  1  0  0.435871  0  0.851612  0  0  0.409999  0  0.914488  0  0  0.421366  0  0.898077  0  0  0.315383  0.401869  0  0.926197  0
H  H4  1  0.24929496  0.10275183  0.98807278  1  0  0.453204  0  0.83782  0  0  0.427732  0  0.892842  0  0  0.440133  0  0.874863  0  0  0.311444  0.418919  0  0.905591  0
H  H5  1  0.24928843  0.89724908  0.48806977  1  0  0.453219  0  0.837812  0  0  0.427736  0  0.892847  0  0  0.440136  0  0.874868  0  0  0.31143  0.418914  0  0.905604  0
H  H6  1  0.29549878  0.69377078  0.11352847  1  0  0.404459  0  0.90759  0  0  0.36705  0  0.982272  0  0  0.380093  0  0.964016  0  0  0.295913  0.357815  0  0.995124  0
H  H7  1  0.29549757  0.30623136  0.61352589  1  0  0.404441  0  0.907627  0  0  0.367029  0  0.982315  0  0  0.38007  0  0.96406  0  0  0.295897  0.357793  0  0.995167  0
H  H8  1  0.52399555  0.86989640  0.12191848  1  0  0.435689  0  0.871837  0  0  0.405546  0  0.934551  0  0  0.419014  0  0.915391  0  0  0.299031  0.395965  0  0.948127  0
H  H9  1  0.52399278  0.13010385  0.62191823  1  0  0.43572  0  0.871793  0  0  0.405572  0  0.934513  0  0  0.41904  0  0.915354  0  0  0.299055  0.395989  0  0.948093  0
H  H10  1  0.17120704  0.09980251  0.76065954  1  0  0.113464  0  0.929049  0  0  0.119448  0  0.990454  0  0  0.123477  0  0.987277  0  0  0.132877  0.116497  0  0.992814  0
H  H11  1  0.17120593  0.90019797  0.26066225  1  0  0.113451  0  0.929019  0  0  0.119447  0  0.990428  0  0  0.123473  0  0.987252  0  0  0.132897  0.1165  0  0.992784  0
H  H12  1  0.88891945  0.20679991  0.87820574  1  0  0.107236  0  0.944937  0  0  0.11068  0  1.0088  0  0  0.114478  0  1.005176  0  0  0.135997  0.107901  0  1.011683  0
H  H13  1  0.88890563  0.79320022  0.37820394  1  0  0.107247  0  0.945004  0  0  0.110676  0  1.008854  0  0  0.114472  0  1.005234  0  0  0.135998  0.107898  0  1.011738  0
C  C14  1  0.76777293  0.59511150  0.72831609  1  0  0.046193  0  3.722135  0  0  0.048762  0  3.970319  0  0  0.047224  0  3.987184  0  0  0.132743  0.049251  0  3.959349  0
C  C15  1  0.76776924  0.40488890  0.22831630  1  0  0.046137  0  3.722119  0  0  0.048749  0  3.970286  0  0  0.047208  0  3.98715  0  0  0.132785  0.049243  0  3.95931  0
C  C16  1  0.91560324  0.53151645  0.66107009  1  0  0.093702  0  3.65468  0  0  0.081778  0  3.905791  0  0  0.083708  0  3.919322  0  0  0.153233  0.080071  0  3.897223  0
C  C17  1  0.91560874  0.46848303  0.16107064  1  0  0.093824  0  3.65464  0  0  0.081827  0  3.905817  0  0  0.083759  0  3.91935  0  0  0.153234  0.080125  0  3.89724  0
C  C18  1  0.04948314  0.24007485  0.75020987  1  0  0.126864  0  3.576484  0  0  0.094158  0  3.831072  0  0  0.099058  0  3.841701  0  0  0.085272  0.090926  0  3.824057  0
C  C19  1  0.04948050  0.75992424  0.25021144  1  0  0.126984  0  3.576245  0  0  0.094227  0  3.830864  0  0  0.099128  0  3.841494  0  0  0.08528  0.090986  0  3.823856  0
C  C20  1  0.89523194  0.29983055  0.81573789  1  0  0.130936  0  3.61082  0  0  0.107591  0  3.87331  0  0  0.113731  0  3.883738  0  0  0.082622  0.103146  0  3.866422  0
C  C21  1  0.89522197  0.70016871  0.31573922  1  0  0.130805  0  3.610934  0  0  0.10754  0  3.87337  0  0  0.113681  0  3.883795  0  0  0.082587  0.10309  0  3.866494  0
C  C22  1  0.62340034  0.80053732  0.72074042  1  0  0.65376  0  3.90543  0  0  0.603751  0  4.213198  0  0  0.640203  0  4.203396  0  0  0.235401  0.578797  0  4.218933  0
C  C23  1  0.62339897  0.19946168  0.22074050  1  0  0.653877  0  3.905187  0  0  0.603899  0  4.212909  0  0  0.640351  0  4.203102  0  0  0.235446  0.578944  0  4.218641  0
C  C24  1  0.92611833  0.65390502  0.57201249  1  0  0.683843  0  3.858489  0  0  0.633366  0  4.170665  0  0  0.670526  0  4.157602  0  0  0.251324  0.607733  0  4.178689  0
C  C25  1  0.92612027  0.34609552  0.07201584  1  0  0.683736  0  3.858486  0  0  0.633328  0  4.170613  0  0  0.670487  0  4.157554  0  0  0.251314  0.6077  0  4.178623  0
N  N26  1  0.75999492  0.48042667  0.80562172  1  0  -0.322386  0  3.203962  0  0  -0.303177  0  3.487613  0  0  -0.317488  0  3.507519  0  0  -0.312792  -0.292536  0  3.473599  0
N  N27  1  0.75998907  0.51957603  0.30562295  1  0  -0.322392  0  3.204063  0  0  -0.303227  0  3.487694  0  0  -0.31753  0  3.507594  0  0  -0.312831  -0.292592  0  3.47369  0
N  N28  1  0.06191851  0.35723976  0.67431869  1  0  -0.251089  0  3.110644  0  0  -0.199473  0  3.353081  0  0  -0.208649  0  3.364474  0  0  -0.261828  -0.193076  0  3.345642  0
N  N29  1  0.06192167  0.64276023  0.17432216  1  0  -0.251139  0  3.110464  0  0  -0.199509  0  3.352957  0  0  -0.208687  0  3.36435  0  0  -0.261837  -0.193114  0  3.345518  0
O  O30  1  0.84678705  0.84206908  0.96162158  1  0  -0.6901  0  1.56734  0  0  -0.697912  0  1.863633  0  0  -0.719532  0  1.852425  0  0  -0.754031  -0.685221  0  1.872282  0
O  O31  1  0.84678203  0.15793168  0.46162156  1  0  -0.690072  0  1.56743  0  0  -0.697903  0  1.863734  0  0  -0.71951  0  1.852528  0  0  -0.754081  -0.685208  0  1.872387  0
O  O32  1  0.26758184  0.55273883  0.91254230  1  0  -0.691992  0  1.619901  0  0  -0.703396  0  1.930197  0  0  -0.726101  0  1.92071  0  0  -0.754298  -0.689832  0  1.937585  0
O  O33  1  0.26758004  0.44726297  0.41253911  1  0  -0.691985  0  1.619803  0  0  -0.703434  0  1.930147  0  0  -0.726134  0  1.920665  0  0  -0.754297  -0.689861  0  1.937531  0
O  O34  1  0.49559705  0.84134584  0.78690090  1  0  -0.66345  0  2.050748  0  0  -0.652152  0  2.329504  0  0  -0.686952  0  2.323546  0  0  -0.372789  -0.626564  0  2.332041  0
O  O35  1  0.49560322  0.15864605  0.28690145  1  0  -0.663486  0  2.050765  0  0  -0.652189  0  2.329475  0  0  -0.686977  0  2.323506  0  0  -0.372809  -0.626606  0  2.332022  0
O  O36  1  0.64443819  0.91782746  0.65293487  1  0  -0.555304  0  2.051011  0  0  -0.50216  0  2.272822  0  0  -0.528774  0  2.264878  0  0  -0.262907  -0.483275  0  2.277786  0
O  O37  1  0.64443901  0.08217555  0.15293257  1  0  -0.555353  0  2.050801  0  0  -0.50223  0  2.272606  0  0  -0.528845  0  2.26466  0  0  -0.262928  -0.48334  0  2.277565  0
O  O38  1  0.74743929  0.61262599  0.50619003  1  0  -0.707524  0  2.090855  0  0  -0.685723  0  2.371441  0  0  -0.722458  0  2.363927  0  0  -0.37487  -0.658447  0  2.374991  0
O  O39  1  0.74744865  0.38737066  0.00619230  1  0  -0.707508  0  2.090923  0  0  -0.6857  0  2.371459  0  0  -0.722442  0  2.363943  0  0  -0.374851  -0.65843  0  2.375001  0
O  O40  1  0.10724183  0.77346477  0.56793539  1  0  -0.52957  0  1.963288  0  0  -0.483137  0  2.174145  0  0  -0.507842  0  2.164069  0  0  -0.260358  -0.465246  0  2.180406  0
O  O41  1  0.10724766  0.22653324  0.06794192  1  0  -0.52953  0  1.963103  0  0  -0.483148  0  2.173969  0  0  -0.50785  0  2.163891  0  0  -0.260377  -0.465266  0  2.180227  0
O  O42  1  0.38507053  0.06100669  0.95054137  1  0  -0.859367  0  1.87816  0  0  -0.835463  0  2.079502  0  0  -0.861301  0  2.048029  0  0  -0.607327  -0.816302  0  2.101192  0
O  O43  1  0.38506941  0.93899297  0.45054195  1  0  -0.859404  0  1.878165  0  0  -0.835483  0  2.079517  0  0  -0.86131  0  2.048043  0  0  -0.607322  -0.816304  0  2.10123  0
O  O44  1  0.45913985  0.73182658  0.08938687  1  0  -0.883404  0  1.959563  0  0  -0.862119  0  2.188478  0  0  -0.893997  0  2.159248  0  0  -0.637102  -0.838563  0  2.208295  0
O  O45  1  0.45914052  0.26817733  0.58938650  1  0  -0.883393  0  1.959567  0  0  -0.862102  0  2.188463  0  0  -0.893971  0  2.159234  0  0  -0.63709  -0.83854  0  2.208282  0
