# generated using pymatgen
data_PrPH15C7NO7
_symmetry_space_group_name_H-M   'P 1'
_cell_length_a   5.05207292
_cell_length_b   12.63215999
_cell_length_c   20.89078459
_cell_angle_alpha   90.00032537
_cell_angle_beta   81.08425337
_cell_angle_gamma   90.00046164
_symmetry_Int_Tables_number   1
_chemical_formula_structural   PrPH15C7NO7
_chemical_formula_sum   'Pr4 P4 H60 C28 N4 O28'
_cell_volume   1317.11159589
_cell_formula_units_Z   4
loop_
 _symmetry_equiv_pos_site_id
 _symmetry_equiv_pos_as_xyz
  1  'x, y, z'
loop_
 _atom_site_type_symbol
 _atom_site_label
 _atom_site_symmetry_multiplicity
 _atom_site_fract_x
 _atom_site_fract_y
 _atom_site_fract_z
 _atom_site_occupancy
 _atom_site_pbe_bader_charge
 _atom_site_pbe_bader_spin_density
 _atom_site_pbe_cm5_charge
 _atom_site_pbe_ddec_charge
 _atom_site_pbe_ddec_spin_density
 _atom_site_pbe_ddec_sum_bond_order
 _atom_site_pbe_magmom
Pr  Pr0  1  0.49344914  0.85038767  0.02189204  1  2.266024  0  1.504391  2.194837  0  2.028662  0
Pr  Pr1  1  0.50655439  0.35038491  0.47811288  1  2.266076  0  1.504425  2.194972  0  2.028437  0
Pr  Pr2  1  0.50652399  0.14960984  0.97811183  1  2.266064  0  1.504381  2.194798  0  2.028677  0
Pr  Pr3  1  0.49347203  0.64961814  0.52188454  1  2.266104  0  1.504345  2.194718  0  2.028732  0
P  P4  1  0.06935334  0.97254718  0.91479560  1  3.356447  0  0.339744  1.356257  0  5.382063  0
P  P5  1  0.93065217  0.47254106  0.58520033  1  3.356117  0  0.339722  1.356165  0  5.382106  0
P  P6  1  0.93063765  0.02746142  0.08520483  1  3.356369  0  0.339771  1.356344  0  5.381895  0
P  P7  1  0.06937342  0.52746041  0.41479177  1  3.356289  0  0.339579  1.355984  0  5.382442  0
H  H8  1  0.56423390  0.81048385  0.88269020  1  0.623137  0  0.315958  0.39604  0  0.921021  0
H  H9  1  0.43578540  0.31049196  0.61730807  1  0.623091  0  0.315977  0.396071  0  0.921012  0
H  H10  1  0.43578344  0.18951287  0.11730918  1  0.623138  0  0.315986  0.396093  0  0.920987  0
H  H11  1  0.56422996  0.68951267  0.38269132  1  0.623277  0  0.315953  0.39599  0  0.921076  0
H  H12  1  0.28487928  0.75829045  0.90675958  1  0.634042  0  0.323617  0.407885  0  0.891772  0
H  H13  1  0.71511973  0.25828675  0.59323810  1  0.633702  0  0.323568  0.407723  0  0.89197  0
H  H14  1  0.71512844  0.24170864  0.09323934  1  0.634012  0  0.323606  0.407938  0  0.891749  0
H  H15  1  0.28489393  0.74171155  0.40676420  1  0.633784  0  0.323608  0.407787  0  0.891917  0
H  H16  1  0.33053788  0.62308510  0.05001456  1  0.608037  0  0.324815  0.412464  0  0.880552  0
H  H17  1  0.66944595  0.12307955  0.44998388  1  0.60815  0  0.32485  0.412635  0  0.880346  0
H  H18  1  0.66943415  0.37692428  0.94998109  1  0.609041  0  0.324838  0.41254  0  0.880428  0
H  H19  1  0.33054703  0.87691875  0.55001654  1  0.608606  0  0.324834  0.41262  0  0.880377  0
H  H20  1  0.03819857  0.67528384  0.04710876  1  0.639068  0  0.294731  0.400887  0  0.94378  0
H  H21  1  0.96177947  0.17528497  0.45289760  1  0.639168  0  0.294738  0.40097  0  0.943684  0
H  H22  1  0.96176068  0.32471605  0.95289515  1  0.639263  0  0.294755  0.400955  0  0.943685  0
H  H23  1  0.03820272  0.82471966  0.54710769  1  0.639369  0  0.294691  0.400885  0  0.943782  0
H  H24  1  0.25904276  0.03687101  0.81296618  1  0.084281  0  0.122139  0.141386  0  1.002044  0
H  H25  1  0.74093262  0.53686822  0.68703521  1  0.0844  0  0.12212  0.141367  0  1.002045  0
H  H26  1  0.74094427  0.96313204  0.18703426  1  0.084338  0  0.12215  0.141404  0  1.002052  0
H  H27  1  0.25905526  0.46313483  0.31296378  1  0.084384  0  0.12216  0.141417  0  1.001991  0
H  H28  1  0.38121021  0.90955418  0.82213750  1  0.038502  0  0.09825  0.085605  0  1.057415  0
H  H29  1  0.61878278  0.40954451  0.67785778  1  0.038497  0  0.098237  0.085588  0  1.057459  0
H  H30  1  0.61877879  0.09045362  0.17786632  1  0.038388  0  0.098236  0.085584  0  1.057398  0
H  H31  1  0.38121189  0.59045695  0.32214312  1  0.038493  0  0.098289  0.085605  0  1.05748  0
H  H32  1  0.26672775  0.94169600  0.69983909  1  0.003378  0  0.085768  0.046951  0  1.009555  0
H  H33  1  0.73327476  0.44170049  0.80016110  1  0.003396  0  0.085773  0.046981  0  1.009588  0
H  H34  1  0.73328846  0.05829834  0.30016223  1  0.003474  0  0.085786  0.046985  0  1.009558  0
H  H35  1  0.26669216  0.55829544  0.19983650  1  0.003623  0  0.085801  0.047015  0  1.00953  0
H  H36  1  0.04937854  0.04849613  0.72767385  1  0.032576  0  0.104754  0.083944  0  0.996508  0
H  H37  1  0.95062055  0.54849329  0.77232122  1  0.033004  0  0.104729  0.083969  0  0.996569  0
H  H38  1  0.95062577  0.95150296  0.27232412  1  0.03293  0  0.104742  0.083999  0  0.99649  0
H  H39  1  0.04934240  0.45150264  0.22767978  1  0.032824  0  0.104763  0.084016  0  0.996569  0
H  H40  1  0.92010170  0.95885870  0.63091184  1  0.028499  0  0.094317  0.093725  0  0.988214  0
H  H41  1  0.07990475  0.45886604  0.86908549  1  0.027608  0  0.094331  0.093729  0  0.988253  0
H  H42  1  0.07990771  0.04113406  0.36908756  1  0.027948  0  0.094362  0.093817  0  0.988233  0
H  H43  1  0.92004742  0.54113226  0.13091699  1  0.027763  0  0.094344  0.093764  0  0.988241  0
H  H44  1  0.66238233  0.95327355  0.69882957  1  0.03911  0  0.090662  0.087169  0  1.013218  0
H  H45  1  0.33762065  0.45327654  0.80116340  1  0.03901  0  0.090629  0.087247  0  1.013227  0
H  H46  1  0.33762765  0.04672396  0.30116886  1  0.038992  0  0.09068  0.087274  0  1.013197  0
H  H47  1  0.66234597  0.54672968  0.19883807  1  0.03877  0  0.090682  0.087309  0  1.013244  0
H  H48  1  0.06817821  0.77655503  0.65665526  1  0.078548  0  0.113985  0.09678  0  0.992188  0
H  H49  1  0.93183041  0.27656144  0.84334342  1  0.078682  0  0.114005  0.096832  0  0.992179  0
H  H50  1  0.93184025  0.22343773  0.34334896  1  0.078645  0  0.11405  0.096843  0  0.99218  0
H  H51  1  0.06815465  0.72343449  0.15665365  1  0.078631  0  0.11404  0.096836  0  0.992294  0
H  H52  1  0.79845543  0.67310498  0.74456668  1  0.000528  0  0.094175  0.092208  0  1.025263  0
H  H53  1  0.20157548  0.17310943  0.75543498  1  0.000591  0  0.094194  0.092176  0  1.025352  0
H  H54  1  0.20155255  0.32689174  0.25543854  1  0.000614  0  0.094173  0.092159  0  1.025339  0
H  H55  1  0.79844755  0.82689520  0.24456148  1  0.000516  0  0.094181  0.092146  0  1.025353  0
H  H56  1  0.59314454  0.78365743  0.76658876  1  -0.018615  0  0.08485  0.071485  0  1.052173  0
H  H57  1  0.40687438  0.28366406  0.73340943  1  -0.018369  0  0.084843  0.071446  0  1.052187  0
H  H58  1  0.40686118  0.21634166  0.23341356  1  -0.018216  0  0.084869  0.071491  0  1.052243  0
H  H59  1  0.59312937  0.71634612  0.26658951  1  -0.018385  0  0.084868  0.071514  0  1.052184  0
H  H60  1  0.95348831  0.77121003  0.83624729  1  0.062752  0  0.102502  0.080731  0  1.006014  0
H  H61  1  0.04652080  0.27120756  0.66375040  1  0.062726  0  0.102485  0.080677  0  1.006004  0
H  H62  1  0.04650635  0.22879065  0.16375699  1  0.062881  0  0.102522  0.080747  0  1.006108  0
H  H63  1  0.95349372  0.72880024  0.33624706  1  0.063064  0  0.102491  0.080653  0  1.005973  0
H  H64  1  0.20038530  0.76965195  0.76552761  1  -0.002863  0  0.088989  0.058244  0  1.011666  0
H  H65  1  0.79963398  0.26964662  0.73446956  1  -0.002623  0  0.089002  0.058192  0  1.011732  0
H  H66  1  0.79963005  0.23034873  0.23447516  1  -0.002831  0  0.089036  0.058308  0  1.011698  0
H  H67  1  0.20036411  0.73034931  0.26552553  1  -0.002938  0  0.089002  0.058177  0  1.011747  0
C  C68  1  0.19360586  0.95658619  0.82831446  1  -0.230564  0  -0.072186  -0.363319  0  3.919175  0
C  C69  1  0.80638781  0.45658510  0.67168097  1  -0.230848  0  -0.072195  -0.363364  0  3.919187  0
C  C70  1  0.80638740  0.04341449  0.17168548  1  -0.230524  0  -0.072213  -0.363398  0  3.919111  0
C  C71  1  0.19360605  0.54341954  0.32831123  1  -0.230652  0  -0.072256  -0.363351  0  3.919328  0
C  C72  1  0.05953404  0.96203427  0.72316539  1  0.307479  0  -0.068948  -0.043152  0  3.937008  0
C  C73  1  0.94046536  0.46203618  0.77683391  1  0.307513  0  -0.068982  -0.043296  0  3.937345  0
C  C74  1  0.94047395  0.03796245  0.27683644  1  0.307032  0  -0.068914  -0.04327  0  3.937114  0
C  C75  1  0.05950721  0.53796291  0.22316754  1  0.307287  0  -0.069046  -0.043558  0  3.937287  0
C  C76  1  0.86460353  0.92455826  0.67947517  1  -0.076159  0  -0.162192  -0.183094  0  3.942929  0
C  C77  1  0.13540412  0.42456698  0.82052253  1  -0.075969  0  -0.162177  -0.183139  0  3.943094  0
C  C78  1  0.13541296  0.07543530  0.32052566  1  -0.075619  0  -0.162325  -0.183392  0  3.943291  0
C  C79  1  0.86456845  0.57543528  0.17947893  1  -0.075534  0  -0.162288  -0.183282  0  3.94306  0
C  C80  1  0.86331704  0.80334698  0.67655031  1  0.032082  0  -0.088543  -0.113571  0  3.88139  0
C  C81  1  0.13669114  0.30335019  0.82344314  1  0.03228  0  -0.088458  -0.113558  0  3.881137  0
C  C82  1  0.13669577  0.19664578  0.32345006  1  0.032011  0  -0.088649  -0.113605  0  3.88135  0
C  C83  1  0.86329505  0.69664890  0.17655538  1  0.032382  0  -0.088567  -0.113567  0  3.881267  0
C  C84  1  0.79673673  0.75978057  0.74514043  1  0.054994  0  -0.164943  -0.178164  0  3.936581  0
C  C85  1  0.20328327  0.25978344  0.75485526  1  0.054476  0  -0.16502  -0.178174  0  3.93656  0
C  C86  1  0.20327154  0.24021614  0.25486092  1  0.054459  0  -0.164946  -0.178104  0  3.936617  0
C  C87  1  0.79671765  0.74022198  0.24514176  1  0.054534  0  -0.164995  -0.17823  0  3.93661  0
C  C88  1  0.99928621  0.80088495  0.78625527  1  0.299725  0  -0.074472  -0.068864  0  3.929729  0
C  C89  1  0.00072589  0.30088195  0.71374154  1  0.299537  0  -0.074475  -0.068688  0  3.929516  0
C  C90  1  0.00071923  0.19911256  0.21374753  1  0.299499  0  -0.074587  -0.069057  0  3.929992  0
C  C91  1  0.99926909  0.69912031  0.28625550  1  0.299566  0  -0.074463  -0.0686  0  3.929319  0
C  C92  1  0.69208488  0.76201148  0.62875421  1  1.521863  0  0.205566  0.591239  0  4.163244  0
C  C93  1  0.30792693  0.26201813  0.87124200  1  1.521961  0  0.205717  0.591605  0  4.163193  0
C  C94  1  0.30793275  0.23798128  0.37124469  1  1.522027  0  0.205703  0.591518  0  4.163189  0
C  C95  1  0.69206717  0.73798492  0.12875988  1  1.521824  0  0.205658  0.591463  0  4.163263  0
N  N96  1  0.00134762  0.91704056  0.78848185  1  -1.045592  0  -0.339503  -0.102594  0  3.459189  0
N  N97  1  0.99864944  0.41704133  0.71151683  1  -1.045363  0  -0.339466  -0.102604  0  3.459084  0
N  N98  1  0.99865783  0.08295458  0.21151757  1  -1.045345  0  -0.339439  -0.102399  0  3.458871  0
N  N99  1  0.00133816  0.58296251  0.28848265  1  -1.045641  0  -0.339393  -0.102374  0  3.458956  0
O  O100  1  0.33366013  0.98132462  0.94530280  1  -1.483866  0  -0.532465  -0.977666  0  2.35762  0
O  O101  1  0.66634693  0.48132277  0.55469412  1  -1.48377  0  -0.532459  -0.97771  0  2.357755  0
O  O102  1  0.66633114  0.01868002  0.05470053  1  -1.483865  0  -0.532463  -0.977726  0  2.357651  0
O  O103  1  0.33367469  0.51866999  0.44529799  1  -1.48356  0  -0.532323  -0.977557  0  2.357598  0
O  O104  1  0.90756048  0.87408433  0.94103018  1  -1.484684  0  -0.441739  -0.885522  0  2.189895  0
O  O105  1  0.09245577  0.37408588  0.55897169  1  -1.484605  0  -0.441747  -0.885497  0  2.190094  0
O  O106  1  0.09241575  0.12591714  0.05897852  1  -1.484894  0  -0.441735  -0.885505  0  2.190115  0
O  O107  1  0.90757151  0.62591717  0.44102428  1  -1.484795  0  -0.441802  -0.885552  0  2.189919  0
O  O108  1  0.91437821  0.07733771  0.92349874  1  -1.475069  0  -0.466342  -0.879505  0  2.241143  0
O  O109  1  0.08562778  0.57734255  0.57650559  1  -1.47499  0  -0.466307  -0.879397  0  2.240927  0
O  O110  1  0.08562608  0.92265901  0.07650601  1  -1.474914  0  -0.466331  -0.879487  0  2.240837  0
O  O111  1  0.91439835  0.42266446  0.42349231  1  -1.475259  0  -0.466251  -0.879403  0  2.241195  0
O  O112  1  0.73944482  0.79962879  0.57000362  1  -1.221621  0  -0.384298  -0.672718  0  2.247442  0
O  O113  1  0.26057094  0.29963339  0.92999027  1  -1.22155  0  -0.384383  -0.672935  0  2.247487  0
O  O114  1  0.26058045  0.20036476  0.42999574  1  -1.221794  0  -0.384366  -0.672925  0  2.247312  0
O  O115  1  0.73942459  0.70036808  0.07000918  1  -1.221452  0  -0.384376  -0.672843  0  2.247396  0
O  O116  1  0.51540364  0.69167961  0.64312965  1  -1.182594  0  -0.347474  -0.588874  0  2.173641  0
O  O117  1  0.48463408  0.19170184  0.85686431  1  -1.182547  0  -0.347643  -0.5892  0  2.173842  0
O  O118  1  0.48462505  0.30830524  0.35686728  1  -1.182568  0  -0.347596  -0.589126  0  2.17381  0
O  O119  1  0.51537930  0.80830675  0.14313508  1  -1.182659  0  -0.347563  -0.589065  0  2.173831  0
O  O120  1  0.47446229  0.75613205  0.91155961  1  -1.238919  0  -0.607994  -0.78646  0  2.012404  0
O  O121  1  0.52552702  0.25612838  0.58844438  1  -1.238523  0  -0.607968  -0.786302  0  2.012624  0
O  O122  1  0.52553605  0.24387416  0.08844515  1  -1.238881  0  -0.607998  -0.786543  0  2.012404  0
O  O123  1  0.47449061  0.74387704  0.41155452  1  -1.238796  0  -0.607986  -0.786268  0  2.012719  0
O  O124  1  0.23745247  0.67760758  0.02942971  1  -1.250522  0  -0.638055  -0.854214  0  2.018985  0
O  O125  1  0.76252931  0.17760889  0.47057037  1  -1.250755  0  -0.638064  -0.854422  0  2.018872  0
O  O126  1  0.76250879  0.32239389  0.97056743  1  -1.251721  0  -0.638061  -0.854281  0  2.018964  0
O  O127  1  0.23746337  0.82239020  0.52943393  1  -1.251442  0  -0.638057  -0.854413  0  2.018923  0
