# generated using pymatgen
data_AlH9C24Br3(NO2)3
_symmetry_space_group_name_H-M   'P 1'
_cell_length_a   3.98103937
_cell_length_b   15.91705602
_cell_length_c   15.58543709
_cell_angle_alpha   60.37026829
_cell_angle_beta   80.36420597
_cell_angle_gamma   79.70401841
_symmetry_Int_Tables_number   1
_chemical_formula_structural   AlH9C24Br3(NO2)3
_chemical_formula_sum   'Al1 H9 C24 Br3 N3 O6'
_cell_volume   841.01807551
_cell_formula_units_Z   1
loop_
 _symmetry_equiv_pos_site_id
 _symmetry_equiv_pos_as_xyz
  1  'x, y, z'
loop_
 _atom_site_type_symbol
 _atom_site_label
 _atom_site_symmetry_multiplicity
 _atom_site_fract_x
 _atom_site_fract_y
 _atom_site_fract_z
 _atom_site_occupancy
 _atom_site_pbe_bader_charge
 _atom_site_pbe_bader_spin_density
 _atom_site_pbe_cm5_charge
 _atom_site_pbe_ddec_charge
 _atom_site_pbe_ddec_spin_density
 _atom_site_pbe_ddec_sum_bond_order
 _atom_site_pbe_magmom
Al  Al0  1  0.01806332  0.50380246  0.49507384  1  2.504891  0  0.42469  1.604509  0  2.562795  0
H  H1  1  0.43821096  0.96083673  0.13183684  1  0.151533  0  0.10784  0.120953  0  1.011665  0
H  H2  1  0.61950505  0.40006882  0.95872142  1  0.103521  0  0.10754  0.120696  0  1.015924  0
H  H3  1  0.69601515  0.12551622  0.41191790  1  0.090896  0  0.107962  0.121298  0  1.007816  0
H  H4  1  0.55035537  0.48652795  0.24100762  1  0.105894  0  0.112445  0.119282  0  0.979824  0
H  H5  1  0.55160513  0.39806654  0.14561279  1  0.134219  0  0.108967  0.112121  0  1.006381  0
H  H6  1  0.33610896  0.25716129  0.76376961  1  0.100134  0  0.11138  0.118478  0  0.987004  0
H  H7  1  0.37288684  0.15413400  0.94707842  1  0.10526  0  0.108719  0.113566  0  0.999965  0
H  H8  1  0.51379095  0.76364787  0.49564385  1  0.122166  0  0.110735  0.117336  0  0.978509  0
H  H9  1  0.54778177  0.94326412  0.41025149  1  0.106144  0  0.108461  0.110985  0  1.00414  0
C  C10  1  0.46982707  0.65293780  0.41445090  1  1.590662  0  0.277763  0.667066  0  4.064303  0
C  C11  1  0.61361579  0.41689812  0.42873759  1  1.609205  0  0.277508  0.666592  0  4.050384  0
C  C12  1  0.47179018  0.43754883  0.64742268  1  1.570701  0  0.274839  0.662464  0  4.057887  0
C  C13  1  0.46234321  0.76139344  0.36158864  1  0.040594  0  -0.003423  -0.059184  0  3.924382  0
C  C14  1  0.47061377  0.38474584  0.75743176  1  0.116721  0  -0.009066  -0.07899  0  3.922122  0
C  C15  1  0.64257043  0.35649417  0.37836114  1  0.025712  0  -0.004331  -0.064673  0  3.910896  0
C  C16  1  0.43974273  0.81752632  0.25920648  1  0.00786  0  -0.009841  0.089765  0  3.956462  0
C  C17  1  0.45597385  0.91728322  0.21132640  1  -0.070842  0  -0.085637  -0.152228  0  3.957019  0
C  C18  1  0.55095969  0.42481027  0.81336827  1  -0.129955  0  -0.004774  0.103516  0  3.927064  0
C  C19  1  0.56130211  0.36879092  0.91543231  1  0.057402  0  -0.085688  -0.156341  0  3.952018  0
C  C20  1  0.69040345  0.25442937  0.42567394  1  -0.084289  0  -0.005645  0.101459  0  3.929303  0
C  C21  1  0.67388238  0.20460771  0.37411923  1  0.027263  0  -0.084597  -0.153423  0  3.945929  0
C  C22  1  0.59184861  0.40732469  0.27695158  1  -0.013881  0  -0.075763  -0.076587  0  3.963267  0
C  C23  1  0.58951536  0.35859915  0.22416130  1  -0.083325  0  -0.080608  -0.103224  0  3.972911  0
C  C24  1  0.40134523  0.28716933  0.80758850  1  -0.051152  0  -0.074503  -0.072379  0  3.94961  0
C  C25  1  0.42082931  0.23007172  0.90905402  1  -0.058019  0  -0.079676  -0.105587  0  3.961458  0
C  C26  1  0.49695519  0.80758439  0.41590033  1  -0.03499  0  -0.077202  -0.083023  0  3.957208  0
C  C27  1  0.51652890  0.90713174  0.36875361  1  -0.075926  0  -0.07754  -0.096463  0  3.961211  0
C  C28  1  0.49782700  0.96258552  0.26594432  1  -0.019218  0  -0.006654  0.01341  0  3.971878  0
C  C29  1  0.52139765  0.06826924  0.21445407  1  1.079064  0  0.25884  0.386425  0  4.006697  0
C  C30  1  0.50126415  0.27093986  0.96380501  1  0.010623  0  -0.00023  0.026609  0  3.962446  0
C  C31  1  0.52313057  0.21290997  0.07209605  1  1.076262  0  0.259467  0.385094  0  4.02056  0
C  C32  1  0.62355728  0.25646672  0.27303829  1  0.005556  0  -0.003638  0.020378  0  3.966924  0
C  C33  1  0.59141449  0.20525188  0.21794676  1  1.107484  0  0.258145  0.382042  0  4.018874  0
Br  Br34  1  0.37479555  0.75858307  0.18358949  1  -0.04935  0  0.027353  -0.057552  0  1.459939  0
Br  Br35  1  0.75701004  0.17924842  0.56273353  1  -0.044882  0  0.022451  -0.064831  0  1.456323  0
Br  Br36  1  0.63589052  0.55659363  0.75767755  1  -0.042119  0  0.028093  -0.057892  0  1.489659  0
N  N37  1  0.48864619  0.11764302  0.11631583  1  -1.179379  0  -0.310166  -0.412051  0  3.207846  0
N  N38  1  0.57568173  0.25988345  0.11954097  1  -1.22568  0  -0.30868  -0.409159  0  3.226949  0
N  N39  1  0.57274549  0.10883030  0.26860294  1  -1.182818  0  -0.305783  -0.405964  0  3.199285  0
O  O40  1  0.26727815  0.41535150  0.60892574  1  -1.243103  0  -0.23098  -0.584626  0  2.356537  0
O  O41  1  0.21257023  0.61623360  0.47421342  1  -1.243327  0  -0.228262  -0.573098  0  2.343485  0
O  O42  1  0.35831649  0.48298450  0.40656570  1  -1.266263  0  -0.236736  -0.606374  0  2.405313  0
O  O43  1  0.68544268  0.49965474  0.59816163  1  -1.262822  0  -0.239017  -0.610832  0  2.466125  0
O  O44  1  0.83427627  0.40286293  0.48583247  1  -1.238144  0  -0.228975  -0.580353  0  2.376391  0
O  O45  1  0.74243056  0.60579568  0.39751499  1  -1.250284  0  -0.235781  -0.599209  0  2.402508  0
