# generated using pymatgen
data_CuH10C8IN2
_symmetry_space_group_name_H-M   'P 1'
_cell_length_a   16.24638579
_cell_length_b   16.24636964
_cell_length_c   16.24634212
_cell_angle_alpha   105.59985307
_cell_angle_beta   105.59961410
_cell_angle_gamma   105.59970840
_symmetry_Int_Tables_number   1
_chemical_formula_structural   CuH10C8IN2
_chemical_formula_sum   'Cu12 H120 C96 I12 N24'
_cell_volume   3699.15026648
_cell_formula_units_Z   12
loop_
 _symmetry_equiv_pos_site_id
 _symmetry_equiv_pos_as_xyz
  1  'x, y, z'
loop_
 _atom_site_type_symbol
 _atom_site_label
 _atom_site_symmetry_multiplicity
 _atom_site_fract_x
 _atom_site_fract_y
 _atom_site_fract_z
 _atom_site_occupancy
 _atom_site_pbe_bader_charge
 _atom_site_pbe_bader_spin_density
 _atom_site_pbe_cm5_charge
 _atom_site_pbe_ddec_charge
 _atom_site_pbe_ddec_spin_density
 _atom_site_pbe_ddec_sum_bond_order
 _atom_site_pbe_magmom
Cu  Cu0  1  0.25052461  0.56646355  0.93463994  1  0.571118  0  0.413992  0.263178  0  2.657343  0
Cu  Cu1  1  0.56646151  0.93464301  0.25052435  1  0.57106  0  0.414003  0.263145  0  2.657428  0
Cu  Cu2  1  0.93464457  0.25052546  0.56646132  1  0.571095  0  0.414006  0.263168  0  2.657482  0
Cu  Cu3  1  0.74947633  0.43353966  0.06535571  1  0.571115  0  0.414047  0.2632  0  2.657454  0
Cu  Cu4  1  0.43353121  0.06536232  0.74947582  1  0.571037  0  0.413987  0.263188  0  2.657438  0
Cu  Cu5  1  0.06536321  0.74947513  0.43352807  1  0.571142  0  0.41398  0.26316  0  2.657376  0
Cu  Cu6  1  0.43387978  0.74964725  0.06566170  1  0.571091  0  0.414274  0.263607  0  2.656929  0
Cu  Cu7  1  0.74964640  0.06566665  0.43387109  1  0.570918  0  0.414127  0.263368  0  2.657049  0
Cu  Cu8  1  0.06565791  0.43388365  0.74964621  1  0.570965  0  0.414306  0.263631  0  2.656985  0
Cu  Cu9  1  0.56612732  0.25035310  0.93433423  1  0.570956  0  0.414166  0.263448  0  2.656986  0
Cu  Cu10  1  0.25035179  0.93434130  0.56611832  1  0.571015  0  0.414275  0.263554  0  2.657011  0
Cu  Cu11  1  0.93433139  0.56612681  0.25035196  1  0.570921  0  0.414209  0.263527  0  2.656882  0
H  H12  1  0.90845484  0.47119183  0.74002826  1  0.039012  0  0.098122  0.109752  0  1.014369  0
H  H13  1  0.47118640  0.74002360  0.90845380  1  0.038991  0  0.098153  0.109797  0  1.014313  0
H  H14  1  0.74002412  0.90845152  0.47118491  1  0.039086  0  0.098152  0.109763  0  1.01429  0
H  H15  1  0.09154477  0.52881794  0.25997925  1  0.038854  0  0.098147  0.109766  0  1.014289  0
H  H16  1  0.52881043  0.25997428  0.09154856  1  0.03903  0  0.098121  0.109714  0  1.01435  0
H  H17  1  0.25997131  0.09154265  0.52880931  1  0.039011  0  0.098128  0.109717  0  1.014401  0
H  H18  1  0.86221589  0.37090473  0.75944462  1  0.066338  0  0.100762  0.125322  0  1.001174  0
H  H19  1  0.37090194  0.75944639  0.86221605  1  0.066305  0  0.100757  0.12534  0  1.001257  0
H  H20  1  0.75944573  0.86221537  0.37090090  1  0.066239  0  0.100772  0.125347  0  1.001199  0
H  H21  1  0.13778301  0.62909966  0.24055572  1  0.066266  0  0.1008  0.125381  0  1.001182  0
H  H22  1  0.62909626  0.24055519  0.13778458  1  0.066299  0  0.100773  0.125335  0  1.001205  0
H  H23  1  0.24055521  0.13778337  0.62909601  1  0.066315  0  0.100779  0.125352  0  1.001214  0
H  H24  1  0.24040687  0.62926225  0.13805041  1  0.066038  0  0.100934  0.12549  0  1.000608  0
H  H25  1  0.62926252  0.13804801  0.24040953  1  0.066023  0  0.100954  0.125523  0  1.000632  0
H  H26  1  0.13805112  0.24040902  0.62926230  1  0.066052  0  0.100973  0.125508  0  1.000633  0
H  H27  1  0.75958996  0.37073882  0.86194973  1  0.066074  0  0.100988  0.125528  0  1.000649  0
H  H28  1  0.37073979  0.86194932  0.75959107  1  0.066086  0  0.100952  0.125485  0  1.000629  0
H  H29  1  0.86195119  0.75958959  0.37073680  1  0.066033  0  0.100972  0.125562  0  1.000662  0
H  H30  1  0.26005171  0.52909860  0.09181554  1  0.045513  0  0.097977  0.10963  0  1.014004  0
H  H31  1  0.52910204  0.09181298  0.26005666  1  0.045387  0  0.098019  0.109693  0  1.014023  0
H  H32  1  0.09181303  0.26005449  0.52910058  1  0.045426  0  0.097987  0.109642  0  1.01398  0
H  H33  1  0.73994237  0.47089764  0.90818565  1  0.045397  0  0.098022  0.109687  0  1.014  0
H  H34  1  0.47090026  0.90818371  0.73994377  1  0.045416  0  0.098024  0.10969  0  1.014037  0
H  H35  1  0.90818447  0.73994236  0.47089614  1  0.045308  0  0.098039  0.109734  0  1.014007  0
H  H36  1  0.79090060  0.60732400  0.85966736  1  0.003282  0  0.085024  0.116237  0  1.012779  0
H  H37  1  0.60732620  0.85966640  0.79090641  1  0.00347  0  0.085018  0.116228  0  1.012667  0
H  H38  1  0.85966893  0.79090653  0.60732331  1  0.003412  0  0.085018  0.116231  0  1.012662  0
H  H39  1  0.20908937  0.39267649  0.14033202  1  0.003501  0  0.085005  0.116226  0  1.012706  0
H  H40  1  0.39267750  0.14033272  0.20909935  1  0.003284  0  0.085029  0.116245  0  1.012761  0
H  H41  1  0.14033131  0.20909196  0.39267396  1  0.003418  0  0.085023  0.116247  0  1.012681  0
H  H42  1  0.90721931  0.61901244  0.90699893  1  0.015102  0  0.08619  0.121811  0  1.007289  0
H  H43  1  0.61901126  0.90699768  0.90722361  1  0.015063  0  0.086201  0.12183  0  1.007302  0
H  H44  1  0.90699972  0.90722377  0.61900938  1  0.015164  0  0.086187  0.121823  0  1.007287  0
H  H45  1  0.09277272  0.38098880  0.09299997  1  0.014939  0  0.08619  0.121854  0  1.007285  0
H  H46  1  0.38098900  0.09299954  0.09278011  1  0.015174  0  0.086203  0.12183  0  1.007257  0
H  H47  1  0.09300053  0.09277472  0.38098790  1  0.014985  0  0.086186  0.121825  0  1.007289  0
H  H48  1  0.85914124  0.60741264  0.79081501  1  0.003509  0  0.085308  0.116639  0  1.011961  0
H  H49  1  0.60741396  0.79081558  0.85914706  1  0.003519  0  0.085312  0.116659  0  1.011974  0
H  H50  1  0.79081808  0.85914710  0.60741128  1  0.00352  0  0.08529  0.116625  0  1.011965  0
H  H51  1  0.14084871  0.39258465  0.20918165  1  0.003519  0  0.0853  0.116639  0  1.011921  0
H  H52  1  0.39258906  0.20918393  0.14085862  1  0.003553  0  0.085303  0.116645  0  1.011939  0
H  H53  1  0.20918285  0.14085164  0.39258501  1  0.003531  0  0.08532  0.116673  0  1.011976  0
H  H54  1  0.73910822  0.45605946  0.67000714  1  0.044601  0  0.084808  0.120287  0  0.999395  0
H  H55  1  0.45605935  0.67000566  0.73910721  1  0.044566  0  0.084798  0.120258  0  0.999384  0
H  H56  1  0.67000677  0.73910850  0.45606235  1  0.044236  0  0.084823  0.12033  0  0.999331  0
H  H57  1  0.26088929  0.54393804  0.32999530  1  0.044207  0  0.08478  0.120272  0  0.999324  0
H  H58  1  0.54394021  0.32999323  0.26089184  1  0.044625  0  0.084802  0.120282  0  0.999375  0
H  H59  1  0.32999349  0.26089064  0.54393818  1  0.044235  0  0.084795  0.120273  0  0.999354  0
H  H60  1  0.70105120  0.35970385  0.70091516  1  0.032789  0  0.087095  0.131081  0  1.018908  0
H  H61  1  0.35970733  0.70091512  0.70105082  1  0.032746  0  0.087087  0.131068  0  1.019001  0
H  H62  1  0.70091377  0.70104754  0.35970442  1  0.032802  0  0.087083  0.131067  0  1.018931  0
H  H63  1  0.29894768  0.64029351  0.29908638  1  0.032302  0  0.0871  0.131088  0  1.018946  0
H  H64  1  0.64029636  0.29908527  0.29895097  1  0.032781  0  0.08708  0.131059  0  1.018928  0
H  H65  1  0.29908373  0.29894803  0.64029319  1  0.032844  0  0.087086  0.131048  0  1.01902  0
H  H66  1  0.67014812  0.45609866  0.73884153  1  0.045144  0  0.084766  0.119998  0  0.99918  0
H  H67  1  0.45610165  0.73884218  0.67014967  1  0.044984  0  0.084751  0.119972  0  0.99924  0
H  H68  1  0.73884460  0.67014853  0.45610218  1  0.044914  0  0.084755  0.119972  0  0.999252  0
H  H69  1  0.32984663  0.54389590  0.26115446  1  0.04486  0  0.084754  0.120007  0  0.999203  0
H  H70  1  0.54390068  0.26115835  0.32985425  1  0.04511  0  0.084762  0.120008  0  0.999242  0
H  H71  1  0.26115565  0.32984996  0.54389757  1  0.044957  0  0.084747  0.119962  0  0.999238  0
H  H72  1  0.28805857  0.39280210  0.02929942  1  0.044496  0  0.100346  0.110215  0  0.978555  0
H  H73  1  0.39280432  0.02929826  0.28806170  1  0.044748  0  0.100379  0.110307  0  0.978515  0
H  H74  1  0.02929768  0.28805930  0.39280147  1  0.044561  0  0.100363  0.110266  0  0.978535  0
H  H75  1  0.71194032  0.60719525  0.97070273  1  0.044545  0  0.100385  0.110313  0  0.978523  0
H  H76  1  0.60719801  0.97070419  0.71194212  1  0.044543  0  0.10037  0.11029  0  0.978539  0
H  H77  1  0.97070257  0.71194175  0.60719711  1  0.044524  0  0.100368  0.110281  0  0.978541  0
H  H78  1  0.23161156  0.39911444  0.92276957  1  0.058448  0  0.09494  0.109781  0  1.02761  0
H  H79  1  0.39911588  0.92277269  0.23161018  1  0.058395  0  0.094977  0.109803  0  1.027675  0
H  H80  1  0.92277530  0.23161135  0.39911453  1  0.058424  0  0.094983  0.109829  0  1.027626  0
H  H81  1  0.76839144  0.60088633  0.07722844  1  0.058364  0  0.094971  0.109828  0  1.027647  0
H  H82  1  0.60088575  0.07722695  0.76839209  1  0.058382  0  0.094972  0.109816  0  1.027629  0
H  H83  1  0.07722977  0.76839338  0.60088694  1  0.058384  0  0.094952  0.109795  0  1.027601  0
H  H84  1  0.60127312  0.76837756  0.07817488  1  0.096412  0  0.094973  0.110282  0  1.027121  0
H  H85  1  0.76837709  0.07817738  0.60127148  1  0.096398  0  0.094965  0.110266  0  1.027046  0
H  H86  1  0.07817733  0.60126965  0.76837522  1  0.096394  0  0.094954  0.110265  0  1.027119  0
H  H87  1  0.39873125  0.23162307  0.92182285  1  0.096458  0  0.094974  0.11024  0  1.027052  0
H  H88  1  0.23162385  0.92182265  0.39872886  1  0.096402  0  0.094956  0.110267  0  1.02707  0
H  H89  1  0.92182017  0.39872719  0.23161965  1  0.096323  0  0.094976  0.110213  0  1.027075  0
H  H90  1  0.60740216  0.71277763  0.97128640  1  0.046405  0  0.100402  0.110499  0  0.978646  0
H  H91  1  0.71278345  0.97128744  0.60740387  1  0.046348  0  0.100447  0.110568  0  0.978624  0
H  H92  1  0.97128742  0.60740493  0.71278438  1  0.04631  0  0.100467  0.110611  0  0.978629  0
H  H93  1  0.39259669  0.28721141  0.02871106  1  0.046301  0  0.100452  0.110553  0  0.978512  0
H  H94  1  0.28721887  0.02871245  0.39259864  1  0.046403  0  0.100422  0.110571  0  0.978631  0
H  H95  1  0.02871147  0.39259562  0.28721431  1  0.04632  0  0.100432  0.110495  0  0.978605  0
H  H96  1  0.22196374  0.29236214  0.77764353  1  0.016813  0  0.075135  0.117672  0  1.050518  0
H  H97  1  0.29236409  0.77764027  0.22195965  1  0.016643  0  0.075164  0.117718  0  1.050493  0
H  H98  1  0.77764187  0.22196090  0.29236403  1  0.016674  0  0.075161  0.117743  0  1.050491  0
H  H99  1  0.77803789  0.70763622  0.22235963  1  0.016749  0  0.075154  0.11768  0  1.050471  0
H  H100  1  0.70763754  0.22236000  0.77804032  1  0.016644  0  0.07515  0.117711  0  1.050505  0
H  H101  1  0.22235839  0.77803952  0.70763746  1  0.01668  0  0.075116  0.117628  0  1.050462  0
H  H102  1  0.34276141  0.34068019  0.80848139  1  0.035483  0  0.073823  0.110804  0  1.037817  0
H  H103  1  0.34068070  0.80848423  0.34275822  1  0.03588  0  0.073764  0.110765  0  1.03779  0
H  H104  1  0.80848409  0.34276028  0.34068176  1  0.035867  0  0.073813  0.110807  0  1.03776  0
H  H105  1  0.65724021  0.65932008  0.19151488  1  0.035864  0  0.073802  0.110779  0  1.037755  0
H  H106  1  0.65932094  0.19151924  0.65724076  1  0.035528  0  0.073787  0.110783  0  1.037812  0
H  H107  1  0.19151823  0.65724024  0.65931970  1  0.035501  0  0.073828  0.110808  0  1.037844  0
H  H108  1  0.28860634  0.22045249  0.77684840  1  0.040106  0  0.074707  0.116691  0  1.048951  0
H  H109  1  0.22045513  0.77684782  0.28860623  1  0.040227  0  0.074751  0.116719  0  1.048955  0
H  H110  1  0.77684976  0.28860551  0.22045472  1  0.040161  0  0.074747  0.11674  0  1.048916  0
H  H111  1  0.71139254  0.77954678  0.22315180  1  0.040106  0  0.074724  0.116667  0  1.048977  0
H  H112  1  0.77954718  0.22315143  0.71139550  1  0.040198  0  0.074727  0.1167  0  1.048944  0
H  H113  1  0.22315119  0.71139451  0.77954686  1  0.040141  0  0.074731  0.116707  0  1.048928  0
H  H114  1  0.22675453  0.22759479  0.98401938  1  0.004016  0  0.079368  0.105034  0  1.01255  0
H  H115  1  0.22759549  0.98401940  0.22675347  1  0.004052  0  0.079375  0.105028  0  1.012536  0
H  H116  1  0.98401625  0.22675067  0.22759187  1  0.004134  0  0.079344  0.10501  0  1.012653  0
H  H117  1  0.77324916  0.77240623  0.01598135  1  0.004044  0  0.079363  0.105013  0  1.012532  0
H  H118  1  0.77240615  0.01598280  0.77324949  1  0.004048  0  0.079366  0.105034  0  1.012561  0
H  H119  1  0.01598469  0.77324935  0.77240724  1  0.004075  0  0.079347  0.10501  0  1.012618  0
H  H120  1  0.15362974  0.22290814  0.87751917  1  0.035585  0  0.077704  0.126131  0  1.026226  0
H  H121  1  0.22290757  0.87751929  0.15362581  1  0.03558  0  0.077692  0.126104  0  1.026234  0
H  H122  1  0.87751835  0.15362506  0.22290534  1  0.035599  0  0.07768  0.126074  0  1.026293  0
H  H123  1  0.84637464  0.77709442  0.12248092  1  0.035574  0  0.077669  0.126063  0  1.026222  0
H  H124  1  0.77709338  0.12248265  0.84637443  1  0.035572  0  0.077667  0.126052  0  1.026289  0
H  H125  1  0.12248259  0.84637432  0.77709421  1  0.035572  0  0.077675  0.126056  0  1.026292  0
H  H126  1  0.22218681  0.15392470  0.87781366  1  0.033171  0  0.078051  0.126153  0  1.025224  0
H  H127  1  0.15392684  0.87781440  0.22218584  1  0.03313  0  0.078042  0.126124  0  1.025153  0
H  H128  1  0.87781380  0.22218403  0.15392527  1  0.033113  0  0.078056  0.126152  0  1.025162  0
H  H129  1  0.77781550  0.84607454  0.12218622  1  0.033115  0  0.07806  0.126137  0  1.025152  0
H  H130  1  0.84607548  0.12218868  0.77781569  1  0.033086  0  0.078077  0.126161  0  1.025168  0
H  H131  1  0.12218645  0.77781510  0.84607403  1  0.033112  0  0.078063  0.126156  0  1.025147  0
C  C132  1  0.12446523  0.52419707  0.02855519  1  0.523093  0  0.134929  0.231708  0  3.904147  0
C  C133  1  0.52419654  0.02855364  0.12447053  1  0.522651  0  0.134953  0.231776  0  3.904321  0
C  C134  1  0.02855561  0.12446930  0.52419760  1  0.522502  0  0.134999  0.231804  0  3.904133  0
C  C135  1  0.87552885  0.47580428  0.97144429  1  0.522439  0  0.134928  0.23173  0  3.904242  0
C  C136  1  0.47580509  0.97144281  0.87553212  1  0.52297  0  0.135002  0.231849  0  3.904073  0
C  C137  1  0.97144465  0.87552920  0.47580215  1  0.522804  0  0.135013  0.231867  0  3.904289  0
C  C138  1  0.03881176  0.51144645  0.03882650  1  0.024934  0  0.006467  -0.054587  0  3.987833  0
C  C139  1  0.51144648  0.03882300  0.03881325  1  0.025211  0  0.006403  -0.054885  0  3.98805  0
C  C140  1  0.03882591  0.03881342  0.51144818  1  0.025611  0  0.006485  -0.054568  0  3.987938  0
C  C141  1  0.96118644  0.48855322  0.96117547  1  -0.024852  0  0.006423  -0.054718  0  3.988004  0
C  C142  1  0.48855720  0.96117292  0.96118734  1  -0.025502  0  0.006427  -0.054528  0  3.987962  0
C  C143  1  0.96117572  0.96118494  0.48855498  1  -0.025275  0  0.006393  -0.054807  0  3.988038  0
C  C144  1  0.97157659  0.47594133  0.87556712  1  0.54013  0  0.134604  0.231581  0  3.904165  0
C  C145  1  0.47594264  0.87556498  0.97157667  1  0.540516  0  0.134606  0.231525  0  3.904011  0
C  C146  1  0.87556538  0.97157752  0.47593804  1  0.540728  0  0.134615  0.231635  0  3.903874  0
C  C147  1  0.02842094  0.52406256  0.12443642  1  0.540553  0  0.134595  0.231611  0  3.903656  0
C  C148  1  0.52406036  0.12443451  0.02842223  1  0.540681  0  0.13461  0.231655  0  3.903968  0
C  C149  1  0.12443351  0.02842431  0.52406038  1  0.539915  0  0.134554  0.231601  0  3.904045  0
C  C150  1  0.88864139  0.44664672  0.79126914  1  -0.004743  0  -0.155465  -0.291544  0  3.868977  0
C  C151  1  0.44664364  0.79126437  0.88864047  1  -0.004808  0  -0.155463  -0.291632  0  3.869203  0
C  C152  1  0.79126796  0.88864085  0.44664258  1  -0.004604  0  -0.155456  -0.291549  0  3.868953  0
C  C153  1  0.11135477  0.55335796  0.20873547  1  -0.004639  0  -0.155484  -0.291566  0  3.869147  0
C  C154  1  0.55335523  0.20873107  0.11135871  1  -0.00455  0  -0.155458  -0.291484  0  3.86899  0
C  C155  1  0.20873229  0.11135828  0.55335487  1  -0.00461  0  -0.155467  -0.291542  0  3.869127  0
C  C156  1  0.81265506  0.47864151  0.81256517  1  0.078071  0  -0.013474  0.261106  0  3.772214  0
C  C157  1  0.47864101  0.81256288  0.81265672  1  0.078095  0  -0.013473  0.261173  0  3.772372  0
C  C158  1  0.81256142  0.81265393  0.47863741  1  0.077953  0  -0.013423  0.261279  0  3.772253  0
C  C159  1  0.18734041  0.52136100  0.18743991  1  0.077505  0  -0.013464  0.261021  0  3.772537  0
C  C160  1  0.52136062  0.18743676  0.18734740  1  0.07801  0  -0.013434  0.261128  0  3.772408  0
C  C161  1  0.18743607  0.18734356  0.52135887  1  0.078007  0  -0.013447  0.261072  0  3.772447  0
C  C162  1  0.20870724  0.55351165  0.11155363  1  0.005656  0  -0.155644  -0.2915  0  3.868152  0
C  C163  1  0.55351133  0.11155170  0.20871081  1  0.005292  0  -0.155721  -0.291672  0  3.868254  0
C  C164  1  0.11155111  0.20870826  0.55351102  1  0.005282  0  -0.15572  -0.29157  0  3.868236  0
C  C165  1  0.79129097  0.44648994  0.88845009  1  0.005262  0  -0.155739  -0.291611  0  3.868298  0
C  C166  1  0.44648962  0.88844768  0.79128998  1  0.005254  0  -0.155709  -0.291594  0  3.868186  0
C  C167  1  0.88844708  0.79128947  0.44648736  1  0.005368  0  -0.155789  -0.29182  0  3.868353  0
C  C168  1  0.84464450  0.58392794  0.84468303  1  -0.043257  0  -0.244883  -0.418143  0  3.903885  0
C  C169  1  0.58392675  0.84468181  0.84464701  1  -0.043386  0  -0.244904  -0.41822  0  3.903877  0
C  C170  1  0.84468364  0.84464721  0.58392411  1  -0.043389  0  -0.244905  -0.418226  0  3.903851  0
C  C171  1  0.15534822  0.41607419  0.15531629  1  -0.043246  0  -0.244897  -0.418212  0  3.903889  0
C  C172  1  0.41607420  0.15531631  0.15535589  1  -0.043312  0  -0.244914  -0.418199  0  3.90392  0
C  C173  1  0.15531661  0.15535128  0.41607255  1  -0.043274  0  -0.244923  -0.418247  0  3.90399  0
C  C174  1  0.72572491  0.43504292  0.72556102  1  -0.100023  0  -0.242887  -0.416807  0  3.893551  0
C  C175  1  0.43504438  0.72556107  0.72572494  1  -0.099799  0  -0.242873  -0.41675  0  3.893632  0
C  C176  1  0.72555939  0.72572270  0.43504322  1  -0.09942  0  -0.242891  -0.416848  0  3.893533  0
C  C177  1  0.27427260  0.56495457  0.27444018  1  -0.09882  0  -0.242871  -0.416807  0  3.893553  0
C  C178  1  0.56495795  0.27444010  0.27427792  1  -0.100064  0  -0.242879  -0.416793  0  3.893606  0
C  C179  1  0.27443880  0.27427504  0.56495515  1  -0.099511  0  -0.242838  -0.416674  0  3.893619  0
C  C180  1  0.52746053  0.62327164  0.01793315  1  0.490492  0  0.134879  0.227748  0  3.904849  0
C  C181  1  0.62327317  0.01793093  0.52746006  1  0.490407  0  0.134845  0.227578  0  3.904837  0
C  C182  1  0.01792784  0.52745865  0.62327023  1  0.490281  0  0.134816  0.22769  0  3.904674  0
C  C183  1  0.47254042  0.37672648  0.98207161  1  0.49042  0  0.134787  0.22751  0  3.904631  0
C  C184  1  0.37672709  0.98206884  0.47254065  1  0.49039  0  0.134817  0.227665  0  3.904726  0
C  C185  1  0.98206966  0.47253883  0.37672543  1  0.49044  0  0.134807  0.227581  0  3.904764  0
C  C186  1  0.53802326  0.53798995  0.00727145  1  0.041119  0  0.005299  -0.055151  0  3.991382  0
C  C187  1  0.53799151  0.00726539  0.53802129  1  0.041061  0  0.005316  -0.054999  0  3.99126  0
C  C188  1  0.00726846  0.53802167  0.53799055  1  0.041206  0  0.005282  -0.055027  0  3.991208  0
C  C189  1  0.46197976  0.46200957  0.99273854  1  0.029968  0  0.005249  -0.054987  0  3.991249  0
C  C190  1  0.46200874  0.99273055  0.46197962  1  -0.022021  0  0.005251  -0.055083  0  3.991277  0
C  C191  1  0.99273455  0.46197911  0.46200931  1  -0.022001  0  0.005237  -0.055178  0  3.99133  0
C  C192  1  0.37680091  0.47272799  0.98216712  1  0.510865  0  0.134667  0.228411  0  3.903927  0
C  C193  1  0.47272633  0.98216029  0.37680080  1  0.562861  0  0.134604  0.228302  0  3.904112  0
C  C194  1  0.98216284  0.37679935  0.47272803  1  0.562827  0  0.13472  0.228486  0  3.904122  0
C  C195  1  0.62320280  0.52727434  0.01784257  1  0.562717  0  0.134626  0.228383  0  3.904181  0
C  C196  1  0.52727325  0.01783924  0.62320335  1  0.562679  0  0.134713  0.228468  0  3.904139  0
C  C197  1  0.01784086  0.62320360  0.52727506  1  0.562721  0  0.134634  0.228355  0  3.90418  0
C  C198  1  0.29386458  0.39181181  0.96278282  1  -0.01539  0  -0.153508  -0.283335  0  3.870991  0
C  C199  1  0.39181418  0.96278285  0.29386522  1  -0.015274  0  -0.153567  -0.283502  0  3.871088  0
C  C200  1  0.96278282  0.29386491  0.39181237  1  -0.01531  0  -0.153575  -0.283519  0  3.871106  0
C  C201  1  0.70613567  0.60818541  0.03721719  1  -0.014857  0  -0.153586  -0.283598  0  3.87119  0
C  C202  1  0.60818815  0.03721831  0.70613640  1  -0.015124  0  -0.153594  -0.283571  0  3.871185  0
C  C203  1  0.03721744  0.70613741  0.60818656  1  -0.014879  0  -0.153537  -0.283503  0  3.871126  0
C  C204  1  0.29857203  0.29875696  0.91248608  1  0.057233  0  -0.012445  0.268252  0  3.76722  0
C  C205  1  0.29875851  0.91248551  0.29856836  1  0.056877  0  -0.012489  0.268415  0  3.76695  0
C  C206  1  0.91248503  0.29856917  0.29875709  1  0.057133  0  -0.012516  0.268341  0  3.767104  0
C  C207  1  0.70143303  0.70124202  0.08751508  1  0.056716  0  -0.012525  0.268312  0  3.767097  0
C  C208  1  0.70124312  0.08751541  0.70143179  1  0.057042  0  -0.012532  0.268337  0  3.766964  0
C  C209  1  0.08751522  0.70143188  0.70124149  1  0.056747  0  -0.012503  0.268464  0  3.766874  0
C  C210  1  0.60845520  0.70631050  0.03757455  1  -0.034097  0  -0.153251  -0.283724  0  3.870788  0
C  C211  1  0.70631178  0.03757337  0.60845461  1  -0.034087  0  -0.153308  -0.283741  0  3.870734  0
C  C212  1  0.03757243  0.60845488  0.70631221  1  -0.034035  0  -0.153336  -0.283925  0  3.870763  0
C  C213  1  0.39154780  0.29368644  0.96242736  1  -0.034183  0  -0.153344  -0.283592  0  3.870537  0
C  C214  1  0.29369053  0.96242652  0.39154667  1  -0.034107  0  -0.153284  -0.283885  0  3.870886  0
C  C215  1  0.96242645  0.39154566  0.29368649  1  -0.03407  0  -0.153284  -0.283525  0  3.870637  0
C  C216  1  0.28746723  0.28761366  0.81291001  1  -0.085151  0  -0.257801  -0.428489  0  3.877181  0
C  C217  1  0.28761396  0.81291006  0.28746314  1  -0.085473  0  -0.257821  -0.428544  0  3.877156  0
C  C218  1  0.81291083  0.28746412  0.28761493  1  -0.08545  0  -0.257843  -0.428631  0  3.877191  0
C  C219  1  0.71253577  0.71238712  0.18708985  1  -0.08538  0  -0.257809  -0.428429  0  3.877107  0
C  C220  1  0.71238630  0.18709099  0.71253606  1  -0.085068  0  -0.257808  -0.428535  0  3.877075  0
C  C221  1  0.18709011  0.71253527  0.71238585  1  -0.084995  0  -0.257802  -0.428492  0  3.877085  0
C  C222  1  0.22068824  0.22118565  0.91319888  1  -0.060736  0  -0.246864  -0.413428  0  3.88683  0
C  C223  1  0.22118690  0.91319885  0.22068536  1  -0.060752  0  -0.246844  -0.413359  0  3.886657  0
C  C224  1  0.91319712  0.22068504  0.22118577  1  -0.060851  0  -0.246814  -0.413361  0  3.886896  0
C  C225  1  0.77931408  0.77881360  0.08680100  1  -0.060754  0  -0.246838  -0.41331  0  3.886609  0
C  C226  1  0.77881474  0.08680334  0.77931513  1  -0.060714  0  -0.246825  -0.413334  0  3.886716  0
C  C227  1  0.08680382  0.77931499  0.77881395  1  -0.06075  0  -0.246822  -0.413349  0  3.886775  0
I  I228  1  0.26135376  0.73897239  0.00013982  1  -0.487534  0  -0.234081  -0.411872  0  1.714893  0
I  I229  1  0.73896889  0.00013415  0.26134471  1  -0.487599  0  -0.234039  -0.411796  0  1.714919  0
I  I230  1  0.00014213  0.26135401  0.73897119  1  -0.487498  0  -0.234093  -0.411891  0  1.714821  0
I  I231  1  0.73865335  0.26103117  0.99985758  1  -0.487571  0  -0.234082  -0.411874  0  1.714912  0
I  I232  1  0.26102310  0.99985876  0.73864641  1  -0.487491  0  -0.234086  -0.411867  0  1.71486  0
I  I233  1  0.99985538  0.73865050  0.26102020  1  -0.487635  0  -0.234081  -0.411855  0  1.714899  0
I  I234  1  0.23800138  0.50017296  0.76221459  1  -0.472948  0  -0.242859  -0.395866  0  1.677341  0
I  I235  1  0.50016990  0.76221990  0.23800833  1  -0.473046  0  -0.242846  -0.395838  0  1.677233  0
I  I236  1  0.76222442  0.23801700  0.50017371  1  -0.472946  0  -0.242821  -0.395795  0  1.677219  0
I  I237  1  0.76198170  0.49982500  0.23777550  1  -0.472967  0  -0.242843  -0.395835  0  1.677181  0
I  I238  1  0.49983104  0.23778139  0.76198988  1  -0.472844  0  -0.242852  -0.39584  0  1.677359  0
I  I239  1  0.23778410  0.76199537  0.49982765  1  -0.472982  0  -0.242849  -0.395841  0  1.677326  0
N  N240  1  0.13089475  0.51384524  0.94647786  1  -0.707605  0  -0.257294  -0.143486  0  3.556916  0
N  N241  1  0.51384274  0.94647640  0.13089508  1  -0.707401  0  -0.25732  -0.14353  0  3.55721  0
N  N242  1  0.94647464  0.13089646  0.51384184  1  -0.707278  0  -0.25737  -0.143626  0  3.557052  0
N  N243  1  0.86910347  0.48616082  0.05352583  1  -0.707256  0  -0.257337  -0.143584  0  3.55708  0
N  N244  1  0.48615614  0.05352415  0.86910362  1  -0.707461  0  -0.257341  -0.143664  0  3.557049  0
N  N245  1  0.05352286  0.86910358  0.48615389  1  -0.707592  0  -0.257333  -0.143578  0  3.557096  0
N  N246  1  0.05370269  0.48642148  0.86924905  1  -0.724596  0  -0.256723  -0.143115  0  3.556833  0
N  N247  1  0.48641936  0.86924501  0.05370315  1  -0.724723  0  -0.256732  -0.143024  0  3.556602  0
N  N248  1  0.86924696  0.05370291  0.48641555  1  -0.724953  0  -0.256676  -0.143004  0  3.556594  0
N  N249  1  0.94629347  0.51358511  0.13075423  1  -0.724759  0  -0.256724  -0.143037  0  3.556395  0
N  N250  1  0.51358158  0.13075118  0.94629678  1  -0.724945  0  -0.256679  -0.143015  0  3.556604  0
N  N251  1  0.13075122  0.94629610  0.51357885  1  -0.724566  0  -0.256713  -0.143073  0  3.556688  0
N  N252  1  0.44635078  0.63056455  0.01224762  1  -0.711894  0  -0.25616  -0.142146  0  3.558386  0
N  N253  1  0.63056642  0.01224820  0.44634990  1  -0.711524  0  -0.256098  -0.142003  0  3.558271  0
N  N254  1  0.01224599  0.44634969  0.63056551  1  -0.711478  0  -0.256136  -0.142111  0  3.558266  0
N  N255  1  0.55365290  0.36943392  0.98775303  1  -0.711661  0  -0.256087  -0.142041  0  3.558264  0
N  N256  1  0.36943522  0.98775209  0.55365377  1  -0.711935  0  -0.256112  -0.142021  0  3.558369  0
N  N257  1  0.98775358  0.55365239  0.36943440  1  -0.71162  0  -0.256087  -0.142073  0  3.558253  0
N  N258  1  0.36959493  0.55387107  0.98786160  1  -0.732865  0  -0.256034  -0.14188  0  3.557588  0
N  N259  1  0.55387269  0.98786372  0.36959626  1  -0.732934  0  -0.256033  -0.141821  0  3.557651  0
N  N260  1  0.98786208  0.36959534  0.55387016  1  -0.732978  0  -0.256102  -0.14188  0  3.557741  0
N  N261  1  0.63040532  0.44612742  0.01213752  1  -0.73288  0  -0.256048  -0.141796  0  3.557798  0
N  N262  1  0.44612963  0.01213681  0.63040582  1  -0.732807  0  -0.256058  -0.141914  0  3.557875  0
N  N263  1  0.01213886  0.63040595  0.44612745  1  -0.733042  0  -0.256025  -0.141818  0  3.557702  0
