# generated using pymatgen
data_CuHg2H6C10I4(NO)4
_symmetry_space_group_name_H-M   'P 1'
_cell_length_a   9.95559246
_cell_length_b   10.47024935
_cell_length_c   20.09513317
_cell_angle_alpha   89.99995110
_cell_angle_beta   90.00008218
_cell_angle_gamma   89.99920700
_symmetry_Int_Tables_number   1
_chemical_formula_structural   CuHg2H6C10I4(NO)4
_chemical_formula_sum   'Cu4 Hg8 H24 C40 I16 N16 O16'
_cell_volume   2094.66715705
_cell_formula_units_Z   4
loop_
 _symmetry_equiv_pos_site_id
 _symmetry_equiv_pos_as_xyz
  1  'x, y, z'
loop_
 _atom_site_type_symbol
 _atom_site_label
 _atom_site_symmetry_multiplicity
 _atom_site_fract_x
 _atom_site_fract_y
 _atom_site_fract_z
 _atom_site_occupancy
 _atom_site_pbe_bader_charge
 _atom_site_pbe_bader_spin_density
 _atom_site_pbe_cm5_charge
 _atom_site_pbe_ddec_charge
 _atom_site_pbe_ddec_spin_density
 _atom_site_pbe_ddec_sum_bond_order
 _atom_site_pbe_magmom
Cu  Cu0  1  0.99999747  0.00000257  0.50000251  1  1.06991  0.581999  0.7521  0.68809  0.740917  2.450054  0.58
Cu  Cu1  1  0.50000149  0.49999968  0.50000222  1  1.069821  0.581992  0.75215  0.688154  0.740909  2.449851  0.58
Cu  Cu2  1  0.00000147  0.00000014  0.99999885  1  1.069934  0.581999  0.752176  0.688112  0.740916  2.449965  0.58
Cu  Cu3  1  0.49999921  0.49999831  0.99999742  1  1.069914  0.581999  0.75216  0.688104  0.74092  2.450036  0.58
Hg  Hg4  1  0.98118303  0.03544672  0.74999984  1  0.548495  0.000866  0.384135  0.486979  0.001425  2.57422  0.001
Hg  Hg5  1  0.51881715  0.53544454  0.75000057  1  0.548521  0.000866  0.384149  0.486974  0.001424  2.574251  0.001
Hg  Hg6  1  0.48118080  0.46456054  0.24999940  1  0.548489  0.000865  0.384115  0.486986  0.001422  2.574218  0.001
Hg  Hg7  1  0.01881995  0.96455741  0.25000013  1  0.54851  0.000866  0.384118  0.486975  0.001423  2.574265  0.001
Hg  Hg8  1  0.48693042  0.00160360  0.74999968  1  0.393498  -0.000117  0.340444  0.42921  -0.000216  2.488012  0.0
Hg  Hg9  1  0.01306146  0.50161295  0.75000139  1  0.393543  -0.000117  0.340465  0.429209  -0.000216  2.48798  0.0
Hg  Hg10  1  0.98692745  0.49838640  0.24999957  1  0.393538  -0.000117  0.340506  0.429277  -0.000216  2.487895  0.0
Hg  Hg11  1  0.51306352  0.99839003  0.25000079  1  0.39356  -0.000117  0.340464  0.429231  -0.000216  2.487883  0.0
H  H12  1  0.30843733  0.30999678  0.60422744  1  0.159036  0.00166  0.107093  0.098389  0.000909  1.035569  0.001
H  H13  1  0.19155365  0.80999997  0.60422679  1  0.158962  0.00166  0.10711  0.098418  0.000909  1.035552  0.001
H  H14  1  0.30843776  0.30999654  0.89577216  1  0.159056  0.00166  0.107101  0.098453  0.000909  1.035497  0.001
H  H15  1  0.80844388  0.19000249  0.10422548  1  0.159043  0.00166  0.107104  0.09836  0.000909  1.035554  0.001
H  H16  1  0.69156264  0.69000448  0.39577253  1  0.159064  0.00166  0.107104  0.09842  0.000909  1.035537  0.001
H  H17  1  0.80845033  0.19000034  0.39577468  1  0.159007  0.00166  0.107112  0.09844  0.000909  1.03551  0.001
H  H18  1  0.69155919  0.69000568  0.10422831  1  0.159033  0.00166  0.10711  0.098422  0.000909  1.035501  0.001
H  H19  1  0.19156212  0.81000164  0.89577250  1  0.159024  0.00166  0.107097  0.098382  0.000909  1.035612  0.001
H  H20  1  0.31731629  0.33356462  0.39697675  1  0.136858  0.001207  0.102315  0.088271  0.000604  1.049568  0.001
H  H21  1  0.18268681  0.83357175  0.39697660  1  0.136718  0.001207  0.102295  0.088288  0.000604  1.049587  0.001
H  H22  1  0.31731284  0.33356391  0.10302498  1  0.136857  0.001207  0.102314  0.088311  0.000604  1.049552  0.001
H  H23  1  0.81731359  0.16643119  0.89697365  1  0.136774  0.001207  0.102288  0.088256  0.000604  1.049597  0.001
H  H24  1  0.68268368  0.66643091  0.60302371  1  0.136727  0.001207  0.102292  0.088282  0.000604  1.049548  0.001
H  H25  1  0.81731818  0.16643047  0.60302586  1  0.136668  0.001207  0.102296  0.088248  0.000604  1.049584  0.001
H  H26  1  0.68268713  0.66643354  0.89697499  1  0.136848  0.001207  0.102291  0.088255  0.000604  1.049594  0.001
H  H27  1  0.18268436  0.83356625  0.10302383  1  0.136847  0.001207  0.1023  0.088265  0.000604  1.049613  0.001
H  H28  1  0.14736988  0.15461012  0.38917584  1  0.155548  0.002297  0.118277  0.107293  0.001062  1.002388  0.002
H  H29  1  0.35262675  0.65461215  0.38917729  1  0.155643  0.002297  0.118268  0.107248  0.001062  1.002469  0.002
H  H30  1  0.14736847  0.15460653  0.11082436  1  0.154971  0.002298  0.11826  0.107258  0.001062  1.00238  0.002
H  H31  1  0.64736659  0.34538603  0.88917216  1  0.155395  0.002296  0.11829  0.107283  0.001062  1.002441  0.002
H  H32  1  0.85262506  0.84538732  0.61082662  1  0.155547  0.002296  0.118319  0.107326  0.001062  1.002361  0.002
H  H33  1  0.64737522  0.34538816  0.61082516  1  0.155547  0.002297  0.118304  0.107336  0.001062  1.002425  0.002
H  H34  1  0.85262949  0.84538901  0.88917461  1  0.155502  0.002296  0.118283  0.107294  0.001062  1.002373  0.002
H  H35  1  0.35263137  0.65460951  0.11082432  1  0.155526  0.002297  0.11828  0.107267  0.001062  1.00242  0.002
C  C36  1  0.17776693  0.17889097  0.55195904  1  0.45686  -0.000692  0.108625  0.05766  -0.001729  3.94456  -0.001
C  C37  1  0.32223485  0.67889339  0.55195848  1  0.457058  -0.000692  0.108606  0.057607  -0.001728  3.944684  -0.001
C  C38  1  0.17776148  0.17889542  0.94804102  1  0.456382  -0.000692  0.108602  0.057546  -0.001729  3.944721  -0.001
C  C39  1  0.67776453  0.32110438  0.05195503  1  0.457015  -0.000691  0.108589  0.057506  -0.001728  3.945061  -0.001
C  C40  1  0.82223906  0.82110457  0.44804292  1  0.457089  -0.000692  0.108594  0.057591  -0.001729  3.94503  -0.001
C  C41  1  0.67776913  0.32110692  0.44804397  1  0.45699  -0.00069  0.108624  0.057543  -0.001726  3.94504  -0.001
C  C42  1  0.82223547  0.82110584  0.05195746  1  0.45697  -0.000692  0.108578  0.057548  -0.001728  3.945004  -0.001
C  C43  1  0.32223543  0.67889307  0.94804145  1  0.456667  -0.000693  0.108607  0.057624  -0.00173  3.944641  -0.001
C  C44  1  0.27290170  0.27633979  0.55587642  1  0.545302  0.003169  0.056713  0.062324  0.002211  3.907589  0.002
C  C45  1  0.22708763  0.77634346  0.55587629  1  0.545408  0.00317  0.05677  0.062394  0.002212  3.907569  0.002
C  C46  1  0.27290026  0.27634042  0.94412416  1  0.545349  0.003169  0.056721  0.062297  0.002212  3.907736  0.002
C  C47  1  0.77290976  0.22366003  0.05587445  1  0.545472  0.003169  0.056751  0.06248  0.002212  3.907599  0.002
C  C48  1  0.72709827  0.72366052  0.44412355  1  0.545362  0.003169  0.056726  0.062347  0.002212  3.907628  0.002
C  C49  1  0.77291535  0.22365685  0.44412567  1  0.545044  0.003169  0.056819  0.062507  0.002212  3.907559  0.002
C  C50  1  0.72709669  0.72366180  0.05587531  1  0.54542  0.003169  0.056773  0.062409  0.002212  3.907576  0.002
C  C51  1  0.22709623  0.77634219  0.94412353  1  0.545339  0.00317  0.056739  0.062361  0.002212  3.907615  0.002
C  C52  1  0.27787252  0.28845895  0.44177615  1  0.537743  0.005605  0.049723  0.062975  0.003813  3.93677  0.005
C  C53  1  0.22212333  0.78846460  0.44177503  1  0.537858  0.005605  0.04972  0.062962  0.003813  3.936603  0.005
C  C54  1  0.27786995  0.28845735  0.05822458  1  0.53775  0.005604  0.049685  0.062948  0.003813  3.936757  0.005
C  C55  1  0.77787419  0.21153540  0.94177403  1  0.53777  0.005604  0.049737  0.062979  0.003812  3.936672  0.005
C  C56  1  0.72212544  0.71153945  0.55822381  1  0.537829  0.005603  0.049699  0.062938  0.003812  3.936851  0.005
C  C57  1  0.77787965  0.21153476  0.55822743  1  0.537783  0.005605  0.049637  0.063018  0.003813  3.936619  0.005
C  C58  1  0.72212902  0.71154010  0.94177539  1  0.537725  0.005603  0.049755  0.063001  0.003811  3.936635  0.005
C  C59  1  0.22212578  0.78846109  0.05822445  1  0.537764  0.005604  0.049697  0.062927  0.003813  3.936807  0.005
C  C60  1  0.18403150  0.18985065  0.43682818  1  0.474957  -0.000983  0.055421  0.064251  -0.00141  3.887858  0.0
C  C61  1  0.31596878  0.68985506  0.43682662  1  0.475028  -0.000983  0.055521  0.064395  -0.001409  3.887711  0.0
C  C62  1  0.18402894  0.18985286  0.06317203  1  0.475502  -0.000983  0.055511  0.064357  -0.001409  3.887798  0.0
C  C63  1  0.68402571  0.31014208  0.93682352  1  0.475116  -0.000984  0.055444  0.064281  -0.00141  3.887719  0.0
C  C64  1  0.81596746  0.81014393  0.56317478  1  0.474882  -0.000983  0.05537  0.064228  -0.00141  3.887754  0.0
C  C65  1  0.68403420  0.31014525  0.56317633  1  0.475043  -0.000984  0.055482  0.064263  -0.00141  3.887692  0.0
C  C66  1  0.81597002  0.81014458  0.93682644  1  0.474929  -0.000982  0.055445  0.064266  -0.001409  3.887699  0.0
C  C67  1  0.31597024  0.68985250  0.06317296  1  0.475055  -0.000982  0.055481  0.064411  -0.001409  3.887773  0.0
C  C68  1  0.11128623  0.11791382  0.61117188  1  1.605708  -0.00074  0.196482  0.521441  -0.000528  4.235992  -0.001
C  C69  1  0.38871460  0.61791346  0.61116987  1  1.605198  -0.000741  0.196363  0.52128  -0.000528  4.236131  -0.001
C  C70  1  0.11128463  0.11791455  0.88882667  1  1.605808  -0.000741  0.196498  0.521509  -0.000528  4.235972  -0.001
C  C71  1  0.61128195  0.38209472  0.11116088  1  1.605263  -0.000742  0.196319  0.521191  -0.000529  4.236037  -0.001
C  C72  1  0.88871574  0.88208935  0.38883357  1  1.605285  -0.000741  0.196349  0.521243  -0.000529  4.236253  -0.001
C  C73  1  0.61128637  0.38209449  0.38884055  1  1.605371  -0.000742  0.196356  0.521189  -0.000529  4.236131  -0.001
C  C74  1  0.88871533  0.88209244  0.11116584  1  1.605289  -0.000741  0.196374  0.521302  -0.000529  4.236087  -0.001
C  C75  1  0.38871501  0.61791228  0.88882914  1  1.605756  -0.00074  0.196375  0.521335  -0.000528  4.236076  -0.001
I  I76  1  0.77543717  0.20080230  0.74999924  1  -0.280208  0.000411  -0.15185  -0.303221  0.000209  1.720938  0.0
I  I77  1  0.72456061  0.70079933  0.74999961  1  -0.280188  0.000411  -0.151848  -0.303197  0.000209  1.720932  0.0
I  I78  1  0.27543935  0.29920576  0.25000036  1  -0.280129  0.000411  -0.151864  -0.303226  0.000209  1.720909  0.0
I  I79  1  0.22456380  0.79919992  0.25000073  1  -0.280204  0.000411  -0.151869  -0.303248  0.00021  1.72098  0.0
I  I80  1  0.12479131  0.82153010  0.75000086  1  -0.19572  0.000617  -0.116513  -0.200863  0.000311  1.739377  0.0
I  I81  1  0.37520797  0.32153272  0.74999559  1  -0.195721  0.000616  -0.116511  -0.200852  0.00031  1.73937  0.0
I  I82  1  0.62478798  0.67847141  0.24999941  1  -0.195736  0.000615  -0.116512  -0.200855  0.000309  1.73943  0.0
I  I83  1  0.87520966  0.17847021  0.24999562  1  -0.195695  0.000617  -0.116505  -0.200844  0.000311  1.739441  0.0
I  I84  1  0.49125426  0.99097457  0.61831534  1  -0.206517  -0.000233  -0.137564  -0.206867  -0.000428  1.468911  0.0
I  I85  1  0.00874217  0.49097055  0.61831727  1  -0.206501  -0.000233  -0.137567  -0.206841  -0.000428  1.468888  0.0
I  I86  1  0.49125766  0.99097149  0.88168259  1  -0.20648  -0.000233  -0.137553  -0.206844  -0.000428  1.468962  0.0
I  I87  1  0.99125540  0.50902806  0.11831495  1  -0.206709  -0.000233  -0.137592  -0.206892  -0.000428  1.468866  0.0
I  I88  1  0.50874671  0.00902383  0.38168513  1  -0.206709  -0.000233  -0.137577  -0.20686  -0.000428  1.468857  0.0
I  I89  1  0.99125479  0.50902689  0.38168419  1  -0.206689  -0.000233  -0.137591  -0.206886  -0.000428  1.468898  0.0
I  I90  1  0.50874833  0.00902500  0.11831539  1  -0.206708  -0.000233  -0.137578  -0.206878  -0.000428  1.468872  0.0
I  I91  1  0.00874456  0.49097320  0.88168502  1  -0.206544  -0.000233  -0.137583  -0.206872  -0.000428  1.468889  0.0
N  N92  1  0.13539900  0.13651122  0.49222368  1  -1.208173  0.078413  -0.335118  -0.196931  0.051822  3.637792  0.068
N  N93  1  0.36459820  0.63651499  0.49222365  1  -1.20809  0.078419  -0.335141  -0.196929  0.051826  3.637902  0.068
N  N94  1  0.13539227  0.13651161  0.00777603  1  -1.208086  0.078413  -0.335151  -0.196906  0.051822  3.637806  0.068
N  N95  1  0.63539344  0.36348397  0.99222099  1  -1.208055  0.078409  -0.335106  -0.196856  0.051819  3.63799  0.068
N  N96  1  0.86460398  0.86348718  0.50777729  1  -1.207863  0.078409  -0.335062  -0.19688  0.051819  3.637863  0.068
N  N97  1  0.63540378  0.36348150  0.50777782  1  -1.207812  0.078414  -0.335161  -0.196919  0.051822  3.638029  0.068
N  N98  1  0.86460670  0.86348870  0.99222245  1  -1.207925  0.078407  -0.335124  -0.196872  0.051817  3.637744  0.068
N  N99  1  0.36460351  0.63651157  0.00777699  1  -1.208029  0.078415  -0.335161  -0.19706  0.051823  3.637913  0.068
N  N100  1  0.32257782  0.33073935  0.50064862  1  -1.195937  -0.003538  -0.302931  -0.227217  -0.003988  3.414427  -0.002
N  N101  1  0.17741657  0.83074177  0.50064647  1  -1.196112  -0.003536  -0.303004  -0.22733  -0.003986  3.414532  -0.002
N  N102  1  0.32257755  0.33074181  0.99935246  1  -1.195914  -0.003539  -0.302973  -0.227301  -0.003989  3.414364  -0.002
N  N103  1  0.82258065  0.16925894  0.00064518  1  -1.196121  -0.003537  -0.30296  -0.227257  -0.003987  3.414542  -0.002
N  N104  1  0.67742214  0.66925713  0.49935234  1  -1.196007  -0.003539  -0.302924  -0.227238  -0.003989  3.41442  -0.002
N  N105  1  0.82258741  0.16925663  0.49935549  1  -1.195748  -0.003537  -0.302961  -0.227379  -0.003987  3.414656  -0.002
N  N106  1  0.67742141  0.66925754  0.00064701  1  -1.195987  -0.003539  -0.303  -0.227293  -0.003989  3.414241  -0.002
N  N107  1  0.17742132  0.83074232  0.99935230  1  -1.196006  -0.003537  -0.30295  -0.227216  -0.003987  3.41447  -0.002
O  O108  1  0.02384655  0.03028899  0.59721028  1  -1.116839  0.099755  -0.329244  -0.528347  0.062668  2.363035  0.091
O  O109  1  0.47615251  0.53028939  0.59720883  1  -1.116794  0.099749  -0.329186  -0.528216  0.062665  2.363037  0.091
O  O110  1  0.02384901  0.03028683  0.90278974  1  -1.116802  0.099765  -0.329241  -0.528315  0.062675  2.362971  0.091
O  O111  1  0.52384400  0.46971213  0.09720471  1  -1.117057  0.099745  -0.32922  -0.528197  0.062662  2.363121  0.091
O  O112  1  0.97615040  0.96971323  0.40279168  1  -1.116958  0.099755  -0.329227  -0.52826  0.062668  2.363056  0.091
O  O113  1  0.52385650  0.46971379  0.40279462  1  -1.117125  0.099731  -0.329195  -0.528223  0.062653  2.363358  0.091
O  O114  1  0.97614895  0.96971253  0.09720923  1  -1.116996  0.09974  -0.329187  -0.528247  0.06266  2.363169  0.091
O  O115  1  0.47615295  0.53028532  0.90279128  1  -1.116826  0.099757  -0.32918  -0.528211  0.06267  2.362921  0.091
O  O116  1  0.13942500  0.15517631  0.66843848  1  -1.112539  0.022192  -0.29394  -0.453366  0.01367  2.25284  0.019
O  O117  1  0.36057646  0.65518014  0.66843944  1  -1.112295  0.022197  -0.293923  -0.453364  0.013673  2.252697  0.019
O  O118  1  0.13942524  0.15517809  0.83156156  1  -1.112305  0.022194  -0.293958  -0.453405  0.013671  2.25281  0.019
O  O119  1  0.63942528  0.34482603  0.16843844  1  -1.112006  0.022207  -0.293861  -0.453272  0.013679  2.252293  0.019
O  O120  1  0.86057597  0.84482304  0.33156248  1  -1.112392  0.022203  -0.293858  -0.453263  0.013677  2.252626  0.019
O  O121  1  0.63942652  0.34482112  0.33156003  1  -1.112022  0.022214  -0.29392  -0.4533  0.013683  2.252061  0.019
O  O122  1  0.86056970  0.84482126  0.16844040  1  -1.112243  0.022205  -0.293938  -0.453377  0.013678  2.25236  0.019
O  O123  1  0.36057770  0.65517714  0.83156202  1  -1.112554  0.022192  -0.293885  -0.453305  0.01367  2.252823  0.019
