# generated using pymatgen
data_CuH16C17IN4
_symmetry_space_group_name_H-M   'P 1'
_cell_length_a   8.52143436
_cell_length_b   9.51418912
_cell_length_c   10.63065480
_cell_angle_alpha   85.23879492
_cell_angle_beta   75.88330076
_cell_angle_gamma   72.67884520
_symmetry_Int_Tables_number   1
_chemical_formula_structural   CuH16C17IN4
_chemical_formula_sum   'Cu2 H32 C34 I2 N8'
_cell_volume   797.89248894
_cell_formula_units_Z   2
loop_
 _symmetry_equiv_pos_site_id
 _symmetry_equiv_pos_as_xyz
  1  'x, y, z'
loop_
 _atom_site_type_symbol
 _atom_site_label
 _atom_site_symmetry_multiplicity
 _atom_site_fract_x
 _atom_site_fract_y
 _atom_site_fract_z
 _atom_site_occupancy
 _atom_site_hle17_bader_spin_density
 _atom_site_hle17_ddec_charge
 _atom_site_hle17_ddec_spin_density
 _atom_site_hle17_ddec_sum_bond_order
 _atom_site_hle17_magmom
 _atom_site_hse06_10hf_bader_spin_density
 _atom_site_hse06_10hf_ddec_charge
 _atom_site_hse06_10hf_ddec_spin_density
 _atom_site_hse06_10hf_ddec_sum_bond_order
 _atom_site_hse06_10hf_magmom
 _atom_site_hse06_bader_spin_density
 _atom_site_hse06_ddec_charge
 _atom_site_hse06_ddec_spin_density
 _atom_site_hse06_ddec_sum_bond_order
 _atom_site_hse06_magmom
 _atom_site_pbe_bader_spin_density
 _atom_site_pbe_cm5_charge
 _atom_site_pbe_ddec_charge
 _atom_site_pbe_ddec_spin_density
 _atom_site_pbe_ddec_sum_bond_order
 _atom_site_pbe_magmom
Cu  Cu0  1  0.40879128  0.45477550  0.10952572  1  0  0.318689  0  2.080407  0  0  0.222031  0  2.574902  0  0  0.233669  0  2.519972  0  0  0.329952  0.217173  0  2.611459  0
Cu  Cu1  1  0.59120524  0.54522782  0.89046892  1  0  0.318686  0  2.080356  0  0  0.222041  0  2.574839  0  0  0.233744  0  2.519933  0  0  0.329923  0.217181  0  2.61142  0
H  H2  1  0.48024355  0.58152632  0.35991825  1  0  0.093855  0  0.995534  0  0  0.10194  0  1.06519  0  0  0.105069  0  1.063245  0  0  0.089894  0.099433  0  1.067022  0
H  H3  1  0.51975672  0.41846598  0.64007084  1  0  0.093891  0  0.99544  0  0  0.10195  0  1.065133  0  0  0.105079  0  1.063189  0  0  0.089921  0.099445  0  1.066965  0
H  H4  1  0.41580297  0.69477932  0.57998715  1  0  0.080534  0  0.968941  0  0  0.091172  0  1.034258  0  0  0.093659  0  1.03332  0  0  0.092068  0.089319  0  1.034926  0
H  H5  1  0.58421293  0.30519873  0.42000566  1  0  0.080599  0  0.968989  0  0  0.09121  0  1.034309  0  0  0.093698  0  1.033371  0  0  0.092127  0.089357  0  1.03497  0
H  H6  1  0.12042480  0.79914007  0.70041981  1  0  0.075167  0  1.00256  0  0  0.084167  0  1.070973  0  0  0.085999  0  1.071296  0  0  0.085962  0.082918  0  1.070598  0
H  H7  1  0.87959485  0.20084464  0.29957932  1  0  0.075129  0  1.002663  0  0  0.084057  0  1.07117  0  0  0.085897  0  1.071472  0  0  0.085895  0.082808  0  1.070791  0
H  H8  1  0.87968727  0.79174285  0.61307746  1  0  0.106196  0  0.960525  0  0  0.116557  0  1.020681  0  0  0.119359  0  1.020116  0  0  0.102003  0.114462  0  1.021345  0
H  H9  1  0.12032803  0.20825838  0.38692222  1  0  0.106226  0  0.960511  0  0  0.116585  0  1.020658  0  0  0.119389  0  1.02009  0  0  0.102016  0.114494  0  1.021321  0
H  H10  1  0.00380971  0.55423241  0.17635235  1  0  0.085985  0  0.972928  0  0  0.092199  0  1.046225  0  0  0.09532  0  1.041907  0  0  0.116639  0.089814  0  1.049124  0
H  H11  1  0.99618013  0.44576538  0.82365243  1  0  0.085983  0  0.972959  0  0  0.092188  0  1.046261  0  0  0.095311  0  1.041937  0  0  0.116644  0.089803  0  1.049163  0
H  H12  1  0.72989503  0.66111362  0.50506432  1  0  0.081494  0  0.915935  0  0  0.097364  0  0.976197  0  0  0.098005  0  0.976422  0  0  0.112678  0.097011  0  0.975938  0
H  H13  1  0.27010513  0.33889304  0.49493785  1  0  0.08146  0  0.91601  0  0  0.097359  0  0.976226  0  0  0.098002  0  0.97645  0  0  0.112691  0.097006  0  0.975967  0
H  H14  1  0.73164037  0.60442534  0.34989298  1  0  0.072615  0  0.959593  0  0  0.087563  0  1.026503  0  0  0.087892  0  1.027361  0  0  0.101782  0.087426  0  1.025437  0
H  H15  1  0.26835607  0.39557799  0.65011108  1  0  0.072554  0  0.959621  0  0  0.087502  0  1.026524  0  0  0.087818  0  1.027409  0  0  0.101743  0.087373  0  1.025438  0
H  H16  1  0.53003050  0.85054746  0.40578673  1  0  0.082435  0  0.947599  0  0  0.100163  0  1.010944  0  0  0.100869  0  1.011896  0  0  0.097186  0.099656  0  1.010256  0
H  H17  1  0.46996308  0.14945364  0.59421522  1  0  0.082434  0  0.947592  0  0  0.100147  0  1.010944  0  0  0.100855  0  1.011893  0  0  0.097185  0.099641  0  1.010258  0
H  H18  1  0.69374707  0.92268791  0.42120102  1  0  0.078371  0  0.925536  0  0  0.097495  0  0.982777  0  0  0.098671  0  0.98282  0  0  0.094535  0.097157  0  0.9818  0
H  H19  1  0.30624547  0.07731981  0.57880346  1  0  0.078366  0  0.925693  0  0  0.097488  0  0.982918  0  0  0.098666  0  0.98296  0  0  0.094555  0.097153  0  0.981933  0
H  H20  1  0.82325143  0.89401705  0.18763252  1  0  0.073299  0  0.925553  0  0  0.090148  0  0.987545  0  0  0.090131  0  0.988457  0  0  0.110026  0.090452  0  0.986371  0
H  H21  1  0.17674586  0.10598739  0.81237036  1  0  0.073314  0  0.925518  0  0  0.09015  0  0.987491  0  0  0.090129  0  0.988412  0  0  0.110031  0.090456  0  0.986305  0
H  H22  1  0.70079136  0.77915280  0.16996371  1  0  0.072319  0  0.959813  0  0  0.085501  0  1.03061  0  0  0.086176  0  1.030785  0  0  0.099769  0.085354  0  1.029981  0
H  H23  1  0.29920557  0.22085274  0.83003727  1  0  0.072338  0  0.959804  0  0  0.085501  0  1.030596  0  0  0.086176  0  1.030778  0  0  0.099758  0.085347  0  1.029972  0
H  H24  1  0.41803445  0.77192351  0.16763923  1  0  0.102972  0  0.980794  0  0  0.108698  0  1.054695  0  0  0.112443  0  1.051391  0  0  0.094247  0.103989  0  1.060396  0
H  H25  1  0.58196912  0.22807656  0.83236465  1  0  0.102992  0  0.980825  0  0  0.108722  0  1.054725  0  0  0.112468  0  1.051422  0  0  0.094266  0.104015  0  1.060425  0
H  H26  1  0.13859409  0.84079202  0.11380788  1  0  0.080986  0  0.976568  0  0  0.089494  0  1.04568  0  0  0.091711  0  1.045412  0  0  0.090094  0.087093  0  1.04764  0
H  H27  1  0.86140734  0.15920363  0.88619768  1  0  0.080912  0  0.976615  0  0  0.089404  0  1.045761  0  0  0.091622  0  1.045492  0  0  0.090038  0.087009  0  1.047718  0
H  H28  1  0.98801172  0.10347125  0.07498091  1  0  0.075588  0  0.983903  0  0  0.085085  0  1.05397  0  0  0.087401  0  1.053149  0  0  0.089048  0.083225  0  1.055016  0
H  H29  1  0.01198369  0.89652436  0.92502297  1  0  0.075587  0  0.983857  0  0  0.085083  0  1.053935  0  0  0.087406  0  1.053106  0  0  0.089034  0.083223  0  1.054982  0
H  H30  1  0.11612113  0.30309259  0.08699834  1  0  0.094447  0  0.986401  0  0  0.099671  0  1.060298  0  0  0.102632  0  1.058712  0  0  0.086683  0.097657  0  1.061231  0
H  H31  1  0.88387395  0.69690411  0.91300082  1  0  0.094466  0  0.986385  0  0  0.099708  0  1.060272  0  0  0.102677  0  1.058662  0  0  0.086701  0.09769  0  1.061204  0
H  H32  1  0.68498312  0.17607982  0.19141171  1  0  0.084213  0  0.96841  0  0  0.09479  0  1.035146  0  0  0.097334  0  1.031493  0  0  0.121375  0.092166  0  1.038917  0
H  H33  1  0.31501471  0.82392682  0.80858244  1  0  0.084147  0  0.968457  0  0  0.094746  0  1.035174  0  0  0.097294  0  1.031509  0  0  0.121361  0.092126  0  1.038948  0
C  C34  1  0.21560937  0.62493621  0.36452010  1  0  0.134091  0  3.82168  0  0  0.13599  0  4.062666  0  0  0.137966  0  4.085961  0  0  0.080582  0.133892  0  4.047545  0
C  C35  1  0.78438186  0.37506487  0.63547382  1  0  0.133999  0  3.821695  0  0  0.135901  0  4.062677  0  0  0.137881  0  4.085972  0  0  0.080496  0.1338  0  4.047562  0
C  C36  1  0.35121277  0.62921351  0.41471318  1  0  -0.141066  0  3.759288  0  0  -0.157676  0  4.004997  0  0  -0.160095  0  4.025705  0  0  -0.098167  -0.156598  0  3.991906  0
C  C37  1  0.64880235  0.37077777  0.58527504  1  0  -0.141171  0  3.759733  0  0  -0.157765  0  4.005471  0  0  -0.160187  0  4.026185  0  0  -0.09823  -0.156693  0  3.992385  0
C  C38  1  0.31362743  0.69287740  0.53575882  1  0  -0.098544  0  3.820289  0  0  -0.113234  0  4.072896  0  0  -0.116042  0  4.095982  0  0  -0.109571  -0.111462  0  4.057237  0
C  C39  1  0.68638111  0.30711165  0.46423834  1  0  -0.098507  0  3.820379  0  0  -0.113158  0  4.072941  0  0  -0.115971  0  4.096034  0  0  -0.109486  -0.111384  0  4.057275  0
C  C40  1  0.14561130  0.75175917  0.60530030  1  0  -0.077568  0  3.809564  0  0  -0.09316  0  4.061203  0  0  -0.09508  0  4.084433  0  0  -0.106034  -0.091424  0  4.044392  0
C  C41  1  0.85440849  0.24822884  0.39469386  1  0  -0.077325  0  3.809526  0  0  -0.092861  0  4.06112  0  0  -0.094778  0  4.084359  0  0  -0.105933  -0.091124  0  4.044303  0
C  C42  1  0.00887108  0.74756589  0.55737203  1  0  -0.143195  0  3.756316  0  0  -0.160286  0  4.005843  0  0  -0.162998  0  4.025376  0  0  -0.099389  -0.158341  0  3.992257  0
C  C43  1  0.99113734  0.25243420  0.44262999  1  0  -0.143476  0  3.756878  0  0  -0.160591  0  4.006383  0  0  -0.163307  0  4.025922  0  0  -0.099536  -0.158647  0  3.992795  0
C  C44  1  0.04723574  0.68234798  0.43651262  1  0  0.099501  0  3.788441  0  0  0.087942  0  4.029947  0  0  0.092054  0  4.05256  0  0  0.08859  0.085406  0  4.014662  0
C  C45  1  0.95277313  0.31765099  0.56347998  1  0  0.099575  0  3.788461  0  0  0.088064  0  4.029904  0  0  0.092179  0  4.052512  0  0  0.088636  0.085529  0  4.01462  0
C  C46  1  0.05152585  0.58738222  0.25174030  1  0  0.18952  0  3.643946  0  0  0.129491  0  3.911467  0  0  0.146168  0  3.921023  0  0  0.147665  0.119302  0  3.904981  0
C  C47  1  0.94847173  0.41261781  0.74826002  1  0  0.189611  0  3.643958  0  0  0.129591  0  3.911475  0  0  0.146271  0  3.92103  0  0  0.147662  0.119398  0  3.905  0
C  C48  1  0.76328541  0.68470968  0.40058085  1  0  0.011181  0  3.627518  0  0  -0.048804  0  3.883194  0  0  -0.044553  0  3.894914  0  0  -0.051779  -0.051636  0  3.875168  0
C  C49  1  0.23671030  0.31529586  0.59942224  1  0  0.01134  0  3.6275  0  0  -0.048625  0  3.883145  0  0  -0.044378  0  3.894863  0  0  -0.051743  -0.051453  0  3.875118  0
C  C50  1  0.66510615  0.84111772  0.36952119  1  0  -0.152576  0  3.666121  0  0  -0.198568  0  3.93071  0  0  -0.200491  0  3.942589  0  0  -0.163176  -0.197194  0  3.922365  0
C  C51  1  0.33488993  0.15888671  0.63048098  1  0  -0.152637  0  3.666476  0  0  -0.198643  0  3.931034  0  0  -0.200564  0  3.942911  0  0  -0.163214  -0.197272  0  3.922688  0
C  C52  1  0.69955662  0.87387906  0.22346764  1  0  0.010997  0  3.63339  0  0  -0.050161  0  3.890698  0  0  -0.045647  0  3.902496  0  0  -0.053785  -0.053155  0  3.881682  0
C  C53  1  0.30044030  0.12612648  0.77653429  1  0  0.010947  0  3.633558  0  0  -0.050102  0  3.890799  0  0  -0.045592  0  3.902595  0  0  -0.053818  -0.053096  0  3.881783  0
C  C54  1  0.42022177  0.00116576  0.16329711  1  0  0.095306  0  3.771641  0  0  0.087323  0  4.008916  0  0  0.091115  0  4.031921  0  0  0.089155  0.084262  0  3.993513  0
C  C55  1  0.57977502  0.99883647  0.83670884  1  0  0.095343  0  3.771658  0  0  0.087334  0  4.008999  0  0  0.091123  0  4.032009  0  0  0.089092  0.084266  0  3.993599  0
C  C56  1  0.35141701  0.88720895  0.15479876  1  0  -0.126048  0  3.735523  0  0  -0.144955  0  3.987215  0  0  -0.147574  0  4.007521  0  0  -0.09514  -0.142305  0  3.975159  0
C  C57  1  0.64858091  0.11278998  0.84520534  1  0  -0.126132  0  3.73563  0  0  -0.145049  0  3.98734  0  0  -0.147664  0  4.007642  0  0  -0.095158  -0.142396  0  3.975285  0
C  C58  1  0.19429708  0.92764754  0.12333666  1  0  -0.078671  0  3.782061  0  0  -0.095181  0  4.037187  0  0  -0.097301  0  4.060147  0  0  -0.104799  -0.094343  0  4.023026  0
C  C59  1  0.80570321  0.07235141  0.87667075  1  0  -0.07851  0  3.782004  0  0  -0.095008  0  4.037102  0  0  -0.097127  0  4.060061  0  0  -0.104748  -0.094178  0  4.022947  0
C  C60  1  0.11032303  0.07585727  0.10047707  1  0  -0.103613  0  3.816789  0  0  -0.117826  0  4.069461  0  0  -0.12059  0  4.092199  0  0  -0.111433  -0.115912  0  4.054313  0
C  C61  1  0.88967200  0.92413944  0.89952775  1  0  -0.103678  0  3.816853  0  0  -0.117885  0  4.069527  0  0  -0.120656  0  4.092264  0  0  -0.111417  -0.115972  0  4.05438  0
C  C62  1  0.18049530  0.18916131  0.10725064  1  0  -0.130218  0  3.744443  0  0  -0.146275  0  3.991461  0  0  -0.148261  0  4.011456  0  0  -0.096478  -0.145551  0  3.97912  0
C  C63  1  0.81950192  0.81083981  0.89274779  1  0  -0.13032  0  3.744515  0  0  -0.146437  0  3.991544  0  0  -0.148418  0  4.011543  0  0  -0.096551  -0.145703  0  3.979193  0
C  C64  1  0.33792539  0.15074175  0.13908150  1  0  0.136016  0  3.80711  0  0  0.135329  0  4.051075  0  0  0.137702  0  4.073931  0  0  0.079973  0.133713  0  4.036813  0
C  C65  1  0.66206818  0.84925936  0.86092139  1  0  0.13606  0  3.806983  0  0  0.135477  0  4.050862  0  0  0.137854  0  4.073721  0  0  0.080011  0.133862  0  4.036605  0
C  C66  1  0.57740215  0.14386791  0.17954267  1  0  0.185717  0  3.676413  0  0  0.12673  0  3.940726  0  0  0.143184  0  3.951229  0  0  0.147157  0.116503  0  3.932804  0
C  C67  1  0.42259627  0.85613322  0.82045647  1  0  0.185758  0  3.676303  0  0  0.126823  0  3.940643  0  0  0.143287  0  3.951145  0  0  0.147139  0.116595  0  3.932734  0
I  I68  1  0.71583759  0.47434486  0.10094496  1  0  -0.485965  0  1.419714  0  0  -0.437115  0  1.846415  0  0  -0.44969  0  1.805831  0  0  -0.210331  -0.426517  0  1.875178  0
I  I69  1  0.28415975  0.52565957  0.89905226  1  0  -0.485945  0  1.419745  0  0  -0.437113  0  1.846483  0  0  -0.449686  0  1.805904  0  0  -0.210329  -0.42651  0  1.875239  0
N  N70  1  0.21360125  0.56766401  0.24858117  1  0  -0.365673  0  3.29777  0  0  -0.306002  0  3.60847  0  0  -0.320268  0  3.613134  0  0  -0.376328  -0.297176  0  3.606332  0
N  N71  1  0.78639441  0.43233820  0.75141559  1  0  -0.365773  0  3.29779  0  0  -0.306098  0  3.608472  0  0  -0.320385  0  3.61317  0  0  -0.376368  -0.297268  0  3.606343  0
N  N72  1  0.94628554  0.65552543  0.36239779  1  0  -0.125528  0  3.515225  0  0  -0.034685  0  3.734958  0  0  -0.051369  0  3.759302  0  0  -0.245348  -0.023597  0  3.718203  0
N  N73  1  0.05371174  0.34447901  0.63760509  1  0  -0.125535  0  3.515257  0  0  -0.034733  0  3.734996  0  0  -0.051416  0  3.759337  0  0  -0.245274  -0.023646  0  3.718246  0
N  N74  1  0.57245129  0.00126683  0.18896806  1  0  -0.121144  0  3.529198  0  0  -0.029492  0  3.745861  0  0  -0.046445  0  3.771099  0  0  -0.245207  -0.017503  0  3.727328  0
N  N75  1  0.42754562  0.99873871  0.81103480  1  0  -0.121145  0  3.529075  0  0  -0.029633  0  3.745883  0  0  -0.046591  0  3.771121  0  0  -0.245118  -0.017637  0  3.727344  0
N  N76  1  0.44090538  0.23690347  0.14958694  1  0  -0.371695  0  3.311279  0  0  -0.313414  0  3.623306  0  0  -0.328141  0  3.629075  0  0  -0.380093  -0.30467  0  3.618884  0
N  N77  1  0.55909196  0.76310096  0.85041029  1  0  -0.371555  0  3.311174  0  0  -0.313336  0  3.62319  0  0  -0.32809  0  3.629003  0  0  -0.38001  -0.304599  0  3.618791  0
