# generated using pymatgen
data_MnH20C16(N4O3)2
_symmetry_space_group_name_H-M   'P 1'
_cell_length_a   5.29627409
_cell_length_b   9.57951672
_cell_length_c   10.54121275
_cell_angle_alpha   68.45548359
_cell_angle_beta   75.11989061
_cell_angle_gamma   82.64381352
_symmetry_Int_Tables_number   1
_chemical_formula_structural   MnH20C16(N4O3)2
_chemical_formula_sum   'Mn1 H20 C16 N8 O6'
_cell_volume   480.42953235
_cell_formula_units_Z   1
loop_
 _symmetry_equiv_pos_site_id
 _symmetry_equiv_pos_as_xyz
  1  'x, y, z'
loop_
 _atom_site_type_symbol
 _atom_site_label
 _atom_site_symmetry_multiplicity
 _atom_site_fract_x
 _atom_site_fract_y
 _atom_site_fract_z
 _atom_site_occupancy
 _atom_site_pbe_cm5_charge
 _atom_site_pbe_ddec_charge
 _atom_site_pbe_ddec_spin_density
 _atom_site_pbe_ddec_sum_bond_order
 _atom_site_pbe_magmom
Mn  Mn0  1  0.49999875  0.00000136  0.50000181  1  0.624281  1.034737  -4.564111  2.451562  -4.353
H  H1  1  0.27505728  0.96466766  0.32459988  1  0.290679  0.372823  -0.001  0.975412  -0.001
H  H2  1  0.72494625  0.03533351  0.67540029  1  0.290693  0.372848  -0.001  0.975371  -0.001
H  H3  1  0.05941191  0.87424527  0.46716482  1  0.291088  0.369018  -0.000851  0.980972  -0.003
H  H4  1  0.94057582  0.12575928  0.53283515  1  0.291137  0.369089  -0.000851  0.980889  -0.003
H  H5  1  0.02411513  0.30660107  0.13614302  1  0.114483  0.124534  -0.000128  1.032202  0.0
H  H6  1  0.97588846  0.69339897  0.86385754  1  0.114485  0.12454  -0.000128  1.032185  0.0
H  H7  1  0.36393212  0.41581060  0.91495344  1  0.131388  0.112116  -0.000689  1.003747  0.0
H  H8  1  0.63606358  0.58419273  0.08504313  1  0.131378  0.112078  -0.000689  1.00365  0.0
H  H9  1  0.07706921  0.20087619  0.70609202  1  0.135195  0.115121  0.000177  1.011564  0.0
H  H10  1  0.92293256  0.79912161  0.29390955  1  0.135197  0.115144  0.000177  1.011534  0.0
H  H11  1  0.71140304  0.09026438  0.91648517  1  0.115568  0.138386  -0.000175  1.021914  0.0
H  H12  1  0.28859895  0.90973002  0.08351663  1  0.115565  0.138464  -0.000175  1.02199  0.0
H  H13  1  0.52548123  0.25944524  0.65497850  1  0.115268  0.110203  3.5e-05  1.035453  0.0
H  H14  1  0.47452611  0.74055706  0.34502175  1  0.115252  0.110197  3.5e-05  1.035496  0.0
H  H15  1  0.60132860  0.39184076  0.72197351  1  0.105433  0.080737  -0.000415  1.054406  0.0
H  H16  1  0.39867081  0.60816381  0.27802692  1  0.105423  0.08071  -0.000415  1.054396  0.0
H  H17  1  0.32317597  0.58827136  0.58821570  1  0.100111  0.103994  0.000166  0.981005  0.0
H  H18  1  0.67682193  0.41172747  0.41178219  1  0.100102  0.103989  0.000167  0.980969  0.0
H  H19  1  0.21488789  0.45600204  0.53376612  1  0.093107  0.08525  4.7e-05  1.007609  0.0
H  H20  1  0.78511390  0.54399681  0.46623223  1  0.093118  0.085256  4.7e-05  1.007609  0.0
C  C21  1  0.64984318  0.10635051  0.17640138  1  0.210737  0.554509  -0.011514  4.232758  -0.009
C  C22  1  0.35015663  0.89364729  0.82360043  1  0.210721  0.554664  -0.011516  4.232611  -0.009
C  C23  1  0.83965631  0.18979242  0.04344382  1  0.018192  0.024454  -0.010673  3.908521  -0.008
C  C24  1  0.16034927  0.81020652  0.95655784  1  0.018188  0.024391  -0.010678  3.908389  -0.008
C  C25  1  0.02184983  0.28388119  0.04258851  1  -0.060664  -0.106557  -0.002838  3.927694  -0.001
C  C26  1  0.97815599  0.71611433  0.95741242  1  -0.060666  -0.1066  -0.00284  3.927722  -0.001
C  C27  1  0.21306998  0.34372788  0.92258757  1  0.071717  0.05037  -0.009728  3.815069  -0.006
C  C28  1  0.78693555  0.65627430  0.07740820  1  0.071746  0.050524  -0.009729  3.814924  -0.006
C  C29  1  0.04857833  0.22215529  0.80369819  1  0.064976  0.047594  -0.001778  3.81865  0.0
C  C30  1  0.95142535  0.77784360  0.19630181  1  0.064978  0.047582  -0.001779  3.818736  0.0
C  C31  1  0.85050655  0.16278036  0.91993516  1  -0.070769  -0.141213  -0.005338  3.936902  -0.004
C  C32  1  0.14949507  0.83721971  0.08006658  1  -0.07081  -0.141323  -0.005339  3.937046  -0.004
C  C33  1  0.45116367  0.35747829  0.68590025  1  -0.063185  -0.106795  -0.000848  3.868164  0.0
C  C34  1  0.54883980  0.64252400  0.31409954  1  -0.063158  -0.106775  -0.000848  3.868177  0.0
C  C35  1  0.38148097  0.48589357  0.56198770  1  -0.160457  -0.153394  -0.00068  3.912024  -0.001
C  C36  1  0.61851873  0.51410753  0.43801012  1  -0.160494  -0.153443  -0.00068  3.912122  -0.001
N  N37  1  0.75151025  0.79657866  0.54016375  1  -0.28744  -0.556862  -0.014653  2.977289  0.004
N  N38  1  0.24847782  0.20342240  0.45983266  1  -0.287394  -0.556709  -0.014649  2.97757  0.004
N  N39  1  0.73683384  0.69696398  0.65151116  1  0.084916  0.436104  -0.013432  4.489132  -0.015
N  N40  1  0.26316021  0.30303163  0.34849309  1  0.084864  0.435948  -0.013429  4.489143  -0.015
N  N41  1  0.72280625  0.59861483  0.75969853  1  -0.222454  -0.438397  -0.047007  2.626379  -0.041
N  N42  1  0.27719525  0.40138853  0.24029922  1  -0.222492  -0.438419  -0.04701  2.626047  -0.041
N  N43  1  0.22833532  0.30875392  0.80732050  1  -0.205721  0.110516  -0.010801  3.727351  -0.011
N  N44  1  0.77167031  0.69124604  0.19267699  1  -0.205688  0.110535  -0.010805  3.727139  -0.011
O  O45  1  0.72081768  0.08423617  0.28969214  1  -0.305424  -0.539704  -0.032423  2.275327  -0.016
O  O46  1  0.27918371  0.91576837  0.71030711  1  -0.305443  -0.539771  -0.032425  2.275308  -0.016
O  O47  1  0.44714224  0.05950906  0.16497294  1  -0.305744  -0.537872  -0.009092  2.198075  -0.01
O  O48  1  0.55285583  0.94048536  0.83502933  1  -0.305724  -0.537949  -0.009095  2.198047  -0.01
O  O49  1  0.24740910  0.89911521  0.42600436  1  -0.573105  -0.772279  -0.044294  2.199214  -0.028
O  O50  1  0.75258075  0.10088599  0.57399747  1  -0.573154  -0.77236  -0.044299  2.199231  -0.028
