# generated using pymatgen
data_ZnH27C25N3O7
_symmetry_space_group_name_H-M   'P 1'
_cell_length_a   9.85241200
_cell_length_b   13.34108661
_cell_length_c   14.72218933
_cell_angle_alpha   89.90002632
_cell_angle_beta   71.34823686
_cell_angle_gamma   80.72415161
_symmetry_Int_Tables_number   1
_chemical_formula_structural   ZnH27C25N3O7
_chemical_formula_sum   'Zn2 H54 C50 N6 O14'
_cell_volume   1806.93633353
_cell_formula_units_Z   2
loop_
 _symmetry_equiv_pos_site_id
 _symmetry_equiv_pos_as_xyz
  1  'x, y, z'
loop_
 _atom_site_type_symbol
 _atom_site_label
 _atom_site_symmetry_multiplicity
 _atom_site_fract_x
 _atom_site_fract_y
 _atom_site_fract_z
 _atom_site_occupancy
 _atom_site_pbe_bader_charge
 _atom_site_pbe_bader_spin_density
 _atom_site_pbe_cm5_charge
 _atom_site_pbe_ddec_charge
 _atom_site_pbe_ddec_spin_density
 _atom_site_pbe_ddec_sum_bond_order
 _atom_site_pbe_magmom
Zn  Zn0  1  0.85771100  0.04180925  0.00214479  1  1.325104  0  0.664742  0.896507  0  2.360384  0
Zn  Zn1  1  0.14229334  0.95819141  0.99785272  1  1.325381  0  0.664753  0.896514  0  2.360435  0
H  H2  1  0.32606091  0.61286737  0.46745056  1  0.522222  0  0.306436  0.285253  0  1.017834  0
H  H3  1  0.67393290  0.38713256  0.53255736  1  0.522251  0  0.306415  0.285222  0  1.017905  0
H  H4  1  0.19593688  0.36736824  0.49961184  1  0.524823  0  0.305643  0.281459  0  1.018216  0
H  H5  1  0.80407511  0.63264077  0.50038332  1  0.524651  0  0.30564  0.281555  0  1.017984  0
H  H6  1  0.29208498  0.62851468  0.61431545  1  0.094632  0  0.103837  0.104046  0  1.034244  0
H  H7  1  0.70792580  0.37148598  0.38568475  1  0.094599  0  0.103845  0.104005  0  1.034404  0
H  H8  1  0.49187244  0.25007864  0.66250796  1  0.100851  0  0.103318  0.105869  0  1.007333  0
H  H9  1  0.50813299  0.74991746  0.33749001  1  0.100971  0  0.103349  0.105893  0  1.007199  0
H  H10  1  0.46612613  0.44782832  0.39945235  1  0.060664  0  0.113722  0.069399  0  0.991372  0
H  H11  1  0.53388681  0.55216776  0.60054198  1  0.060814  0  0.113739  0.068956  0  0.991673  0
H  H12  1  0.06937281  0.36466016  0.64021858  1  0.098635  0  0.10276  0.110048  0  1.047932  0
H  H13  1  0.93063599  0.63534430  0.35978136  1  0.09864  0  0.102736  0.110075  0  1.047849  0
H  H14  1  0.16006609  0.49487749  0.38351089  1  0.087589  0  0.115531  0.073172  0  0.97733  0
H  H15  1  0.83993880  0.50512090  0.61649194  1  0.087541  0  0.115521  0.073207  0  0.977336  0
H  H16  1  0.69424208  0.22621724  0.94980284  1  0.120348  0  0.128778  0.061245  0  0.993831  0
H  H17  1  0.30574763  0.77378193  0.05020393  1  0.120298  0  0.128779  0.061224  0  0.994039  0
H  H18  1  0.29260695  0.15790147  0.99481881  1  0.109122  0  0.107248  0.136192  0  1.019258  0
H  H19  1  0.70738237  0.84210379  0.00518530  1  0.109373  0  0.107268  0.136207  0  1.019238  0
H  H20  1  0.28003748  0.21359361  0.10830001  1  0.042424  0  0.103415  0.115113  0  0.995681  0
H  H21  1  0.71994883  0.78640632  0.89170341  1  0.042428  0  0.103408  0.115102  0  0.995846  0
H  H22  1  0.39595211  0.09398957  0.06388944  1  0.095478  0  0.116473  0.14221  0  0.993756  0
H  H23  1  0.60403152  0.90600809  0.93611455  1  0.095435  0  0.116457  0.142205  0  0.993831  0
H  H24  1  0.88431916  0.78536082  0.59620023  1  0.070895  0  0.104931  0.106554  0  1.005406  0
H  H25  1  0.11569339  0.21464134  0.40379076  1  0.071266  0  0.104903  0.106525  0  1.005381  0
H  H26  1  0.37429099  0.15199932  0.80404986  1  0.106037  0  0.1056  0.111514  0  1.000129  0
H  H27  1  0.62571177  0.84799450  0.19594801  1  0.093557  0  0.105589  0.111451  0  1.000239  0
H  H28  1  0.25673536  0.73596323  0.76111757  1  0.090453  0  0.102115  0.104252  0  1.029119  0
H  H29  1  0.74326256  0.26403744  0.23888268  1  0.090587  0  0.102129  0.104273  0  1.029138  0
H  H30  1  0.95550583  0.27085847  0.78250111  1  0.069645  0  0.099156  0.099259  0  1.018362  0
H  H31  1  0.04450029  0.72914370  0.21749194  1  0.069561  0  0.099138  0.099216  0  1.018326  0
H  H32  1  0.54010524  0.35290759  0.93350119  1  0.053905  0  0.109174  0.115784  0  1.018528  0
H  H33  1  0.45989447  0.64709004  0.06649800  1  0.053904  0  0.109168  0.115753  0  1.018573  0
H  H34  1  0.36468984  0.37191605  0.02334988  1  0.062095  0  0.107611  0.119288  0  0.995848  0
H  H35  1  0.63530558  0.62808159  0.97664819  1  0.061962  0  0.107617  0.119309  0  0.995783  0
H  H36  1  0.38849479  0.31670316  0.90762481  1  0.079147  0  0.108098  0.125203  0  0.992664  0
H  H37  1  0.61150761  0.68329218  0.09237449  1  0.079166  0  0.108088  0.125218  0  0.992624  0
H  H38  1  0.43111917  0.58641597  0.27841056  1  0.033514  0  0.091024  0.087401  0  1.000213  0
H  H39  1  0.56888715  0.41358088  0.72158518  1  0.033885  0  0.091022  0.087429  0  1.000233  0
H  H40  1  0.25502941  0.62283967  0.26913917  1  0.020183  0  0.092028  0.092291  0  0.985844  0
H  H41  1  0.74497154  0.37716177  0.73086382  1  0.020291  0  0.092052  0.092348  0  0.985842  0
H  H42  1  0.85201428  0.89384243  0.74358185  1  0.106501  0  0.107118  0.113032  0  0.997087  0
H  H43  1  0.14798614  0.10615672  0.25641718  1  0.106395  0  0.107096  0.113008  0  0.997144  0
H  H44  1  0.57644007  0.40743455  0.21191340  1  -0.00143  0  0.089871  0.082717  0  0.979838  0
H  H45  1  0.42355516  0.59256839  0.78807994  1  -0.001765  0  0.089901  0.082839  0  0.979767  0
H  H46  1  0.49906973  0.32322348  0.15868822  1  0.008647  0  0.087676  0.081157  0  1.003951  0
H  H47  1  0.50091263  0.67677950  0.84131399  1  0.00868  0  0.087685  0.081226  0  1.003919  0
H  H48  1  0.26790296  0.44990782  0.19795987  1  0.017307  0  0.087855  0.077698  0  0.983738  0
H  H49  1  0.73208385  0.55009896  0.80204816  1  0.017382  0  0.087829  0.07773  0  0.983577  0
H  H50  1  0.41699105  0.50523930  0.12897519  1  -0.02426  0  0.081608  0.065355  0  1.023119  0
H  H51  1  0.58299079  0.49476140  0.87102510  1  -0.024076  0  0.08158  0.065375  0  1.023069  0
H  H52  1  0.48168446  0.27696278  0.32731603  1  0.01804  0  0.096697  0.100624  0  0.978796  0
H  H53  1  0.51832292  0.72303863  0.67267743  1  0.018373  0  0.096731  0.100692  0  0.978778  0
H  H54  1  0.30737437  0.31206151  0.31522486  1  0.02372  0  0.090926  0.086977  0  1.001714  0
H  H55  1  0.69261871  0.68794147  0.68478117  1  0.023293  0  0.090916  0.087026  0  1.001779  0
C  C56  1  0.10169963  0.63602944  0.50964218  1  1.398949  0  0.2403  0.477274  0  4.145931  0
C  C57  1  0.89830275  0.36397048  0.49036051  1  1.399484  0  0.240245  0.477222  0  4.145752  0
C  C58  1  0.08910176  0.14144503  0.88147348  1  1.547743  0  0.212931  0.585329  0  4.182838  0
C  C59  1  0.91088973  0.85855565  0.11852339  1  1.548034  0  0.212908  0.585236  0  4.182852  0
C  C60  1  0.36863724  0.36064712  0.55225255  1  1.415198  0  0.239893  0.475662  0  4.146819  0
C  C61  1  0.63138016  0.63934820  0.44774422  1  1.414758  0  0.239864  0.475802  0  4.146998  0
C  C62  1  0.19518732  0.68638030  0.64203880  1  -0.080205  0  -0.087582  -0.108206  0  3.972991  0
C  C63  1  0.80481436  0.31361809  0.35795997  1  -0.080227  0  -0.087556  -0.108144  0  3.9731  0
C  C64  1  0.15779600  0.20616650  0.80187949  1  -0.043512  0  -0.017079  -0.027779  0  3.96786  0
C  C65  1  0.84220513  0.79383416  0.19811599  1  -0.043513  0  -0.017102  -0.027683  0  3.967588  0
C  C66  1  0.37424557  0.25454594  0.68988029  1  -0.056858  0  -0.087222  -0.107818  0  3.995983  0
C  C67  1  0.62576559  0.74544863  0.31011985  1  -0.056711  0  -0.087222  -0.107805  0  3.995736  0
C  C68  1  0.28956904  0.31247970  0.64150176  1  -0.019131  0  -0.013053  -0.016477  0  3.976173  0
C  C69  1  0.71043957  0.68752553  0.35850230  1  -0.019149  0  -0.013145  -0.016493  0  3.976215  0
C  C70  1  0.36696490  0.42300060  0.39522372  1  0.358102  0  0.015227  0.106707  0  3.814765  0
C  C71  1  0.63304141  0.57700082  0.60477744  1  0.357783  0  0.015246  0.107782  0  3.814598  0
C  C72  1  0.13773776  0.31980717  0.67620674  1  -0.098009  0  -0.090183  -0.114373  0  3.967552  0
C  C73  1  0.86226836  0.68019501  0.32378903  1  -0.102502  0  -0.090104  -0.114412  0  3.967486  0
C  C74  1  0.26527959  0.51675259  0.37840428  1  0.337402  0  0.016192  0.11011  0  3.813604  0
C  C75  1  0.73472245  0.48324428  0.62159849  1  0.337458  0  0.016166  0.109709  0  3.813805  0
C  C76  1  0.61190128  0.17917861  0.98528690  1  1.379349  0  0.184357  0.293609  0  4.070432  0
C  C77  1  0.38808826  0.82081677  0.01472059  1  1.379081  0  0.184222  0.293421  0  4.070648  0
C  C78  1  0.35354289  0.16849333  0.04382061  1  0.264908  0  -0.135039  -0.276726  0  3.864234  0
C  C79  1  0.64644627  0.83150812  0.95618354  1  0.264853  0  -0.134967  -0.276673  0  3.864353  0
C  C80  1  0.96533302  0.77507118  0.63290996  1  -0.009534  0  -0.087267  -0.109324  0  4.001167  0
C  C81  1  0.03467009  0.22492568  0.36708919  1  -0.009836  0  -0.087252  -0.109254  0  4.001082  0
C  C82  1  0.30916283  0.20112317  0.76871929  1  -0.060513  0  -0.08778  -0.103798  0  3.998581  0
C  C83  1  0.69084099  0.79887521  0.23127766  1  -0.048023  0  -0.087713  -0.103739  0  3.998481  0
C  C84  1  0.08970310  0.70065591  0.59568809  1  -0.030592  0  -0.012637  -0.019551  0  3.986148  0
C  C85  1  0.91029466  0.29933642  0.40431764  1  -0.031088  0  -0.012696  -0.019581  0  3.985902  0
C  C86  1  0.17634545  0.74605744  0.72401123  1  -0.01729  0  -0.08544  -0.09428  0  3.973117  0
C  C87  1  0.82365121  0.25394400  0.27599132  1  -0.017315  0  -0.085478  -0.094388  0  3.973135  0
C  C88  1  0.07295894  0.26736568  0.75602030  1  0.003434  0  -0.086511  -0.090493  0  3.984895  0
C  C89  1  0.92704629  0.73263574  0.24397566  1  0.007936  0  -0.086553  -0.09053  0  3.984748  0
C  C90  1  0.43999611  0.32113729  0.96336672  1  0.273585  0  -0.124581  -0.276837  0  3.923281  0
C  C91  1  0.55999966  0.67886339  0.03663263  1  0.273714  0  -0.124587  -0.2769  0  3.923291  0
C  C92  1  0.33188267  0.55760216  0.27923524  1  -0.038427  0  -0.162456  -0.19968  0  3.921602  0
C  C93  1  0.66811041  0.44240082  0.72077079  1  -0.038901  0  -0.162572  -0.199834  0  3.921618  0
C  C94  1  0.94713055  0.83489213  0.71458536  1  -0.105427  0  -0.085134  -0.099322  0  3.989848  0
C  C95  1  0.05287436  0.16510170  0.28541477  1  -0.105488  0  -0.085108  -0.099363  0  3.98991  0
C  C96  1  0.47282661  0.38333402  0.21560062  1  0.00699  0  -0.166204  -0.14057  0  3.954358  0
C  C97  1  0.52716129  0.61666819  0.78440108  1  0.007122  0  -0.166208  -0.14066  0  3.954622  0
C  C98  1  0.36897450  0.47465792  0.19933831  1  0.009128  0  -0.167277  -0.145098  0  3.97964  0
C  C99  1  0.63101286  0.52534658  0.80066691  1  0.008834  0  -0.167196  -0.145061  0  3.979397  0
C  C100  1  0.40679344  0.34113214  0.31360021  1  -0.004709  0  -0.161955  -0.199598  0  3.913448  0
C  C101  1  0.59320750  0.65886929  0.68640074  1  -0.004627  0  -0.162014  -0.200111  0  3.913782  0
C  C102  1  0.03329698  0.88523030  0.84895929  1  1.579836  0  0.215973  0.588286  0  4.17788  0
C  C103  1  0.96671092  0.11477339  0.15103405  1  1.579708  0  0.215882  0.587906  0  4.177685  0
C  C104  1  0.05253634  0.82068751  0.76085556  1  -0.011027  0  -0.015338  -0.025531  0  3.958491  0
C  C105  1  0.94746677  0.17930935  0.23914290  1  -0.011196  0  -0.015274  -0.025332  0  3.958221  0
N  N106  1  0.47457384  0.22090093  0.99697969  1  -1.235628  0  -0.276943  0.032408  0  3.745683  0
N  N107  1  0.52541568  0.77909901  0.00302507  1  -1.235648  0  -0.276914  0.032528  0  3.745619  0
N  N108  1  0.23648636  0.59372424  0.45488296  1  -1.237748  0  -0.419243  -0.391832  0  3.562534  0
N  N109  1  0.76351318  0.40626961  0.54512647  1  -1.237722  0  -0.419204  -0.391741  0  3.562701  0
N  N110  1  0.29950549  0.38199518  0.48728087  1  -1.252329  0  -0.417837  -0.38805  0  3.553642  0
N  N111  1  0.70050367  0.61800777  0.51272171  1  -1.251893  0  -0.417798  -0.388447  0  3.553573  0
O  O112  1  0.64792650  0.09235041  0.01230476  1  -1.157623  0  -0.290266  -0.412256  0  2.365665  0
O  O113  1  0.35206787  0.90764267  0.98770035  1  -1.157483  0  -0.290223  -0.412132  0  2.365681  0
O  O114  1  0.95118304  0.15009552  0.91055117  1  -1.141658  0  -0.319421  -0.560289  0  2.315048  0
O  O115  1  0.04881113  0.84990286  0.08943766  1  -1.141793  0  -0.319382  -0.560233  0  2.314994  0
O  O116  1  0.99007867  0.62194708  0.49154215  1  -1.187443  0  -0.30638  -0.524538  0  2.242921  0
O  O117  1  0.00992511  0.37806043  0.50845953  1  -1.187649  0  -0.306277  -0.524439  0  2.242845  0
O  O118  1  0.49516342  0.37670057  0.53906198  1  -1.192856  0  -0.312062  -0.532392  0  2.236593  0
O  O119  1  0.50485328  0.62329323  0.46093766  1  -1.192479  0  -0.312066  -0.532498  0  2.236753  0
O  O120  1  0.91375907  0.94686017  0.88212011  1  -1.162806  0  -0.313037  -0.547933  0  2.342672  0
O  O121  1  0.08624013  0.05313062  0.11788125  1  -1.162834  0  -0.312927  -0.547743  0  2.342419  0
O  O122  1  0.17606717  0.08054660  0.91249820  1  -1.175596  0  -0.311566  -0.554759  0  2.357023  0
O  O123  1  0.82392179  0.91946017  0.08750327  1  -1.175802  0  -0.31157  -0.554721  0  2.357198  0
O  O124  1  0.13763816  0.87341682  0.88348868  1  -1.172128  0  -0.318763  -0.551471  0  2.321667  0
O  O125  1  0.86237186  0.12659599  0.11650078  1  -1.171589  0  -0.318781  -0.551294  0  2.321428  0
