# generated using pymatgen
data_ZnH16(C11N6)2
_symmetry_space_group_name_H-M   'P 1'
_cell_length_a   10.37715271
_cell_length_b   10.37717964
_cell_length_c   11.97743679
_cell_angle_alpha   70.75468226
_cell_angle_beta   70.75516831
_cell_angle_gamma   66.75709224
_symmetry_Int_Tables_number   1
_chemical_formula_structural   ZnH16(C11N6)2
_chemical_formula_sum   'Zn2 H32 C44 N24'
_cell_volume   1088.88937475
_cell_formula_units_Z   2
loop_
 _symmetry_equiv_pos_site_id
 _symmetry_equiv_pos_as_xyz
  1  'x, y, z'
loop_
 _atom_site_type_symbol
 _atom_site_label
 _atom_site_symmetry_multiplicity
 _atom_site_fract_x
 _atom_site_fract_y
 _atom_site_fract_z
 _atom_site_occupancy
 _atom_site_hle17_bader_spin_density
 _atom_site_hle17_ddec_charge
 _atom_site_hle17_ddec_spin_density
 _atom_site_hle17_ddec_sum_bond_order
 _atom_site_hle17_magmom
 _atom_site_hse06_10hf_bader_spin_density
 _atom_site_hse06_10hf_ddec_charge
 _atom_site_hse06_10hf_ddec_spin_density
 _atom_site_hse06_10hf_ddec_sum_bond_order
 _atom_site_hse06_10hf_magmom
 _atom_site_hse06_bader_spin_density
 _atom_site_hse06_ddec_charge
 _atom_site_hse06_ddec_spin_density
 _atom_site_hse06_ddec_sum_bond_order
 _atom_site_hse06_magmom
 _atom_site_pbe_bader_spin_density
 _atom_site_pbe_cm5_charge
 _atom_site_pbe_ddec_charge
 _atom_site_pbe_ddec_spin_density
 _atom_site_pbe_ddec_sum_bond_order
 _atom_site_pbe_magmom
Zn  Zn0  1  0.07253594  0.92745987  0.74999963  1  0  0.826791  0  1.979257  0  0  0.612351  0  2.443903  0  0  0.652406  0  2.402165  0  0  0.751719  0.584892  0  2.472231  0
Zn  Zn1  1  0.92746145  0.07253857  0.25000244  1  0  0.826788  0  1.979299  0  0  0.612352  0  2.443951  0  0  0.652411  0  2.402208  0  0  0.751733  0.584894  0  2.47228  0
H  H2  1  0.49891619  0.59058591  0.13323149  1  0  0.103404  0  0.929531  0  0  0.115696  0  0.987908  0  0  0.119089  0  0.985064  0  0  0.110101  0.113368  0  0.989666  0
H  H3  1  0.40941288  0.50108528  0.36676972  1  0  0.103411  0  0.929536  0  0  0.1157  0  0.98792  0  0  0.119106  0  0.985058  0  0  0.110096  0.11337  0  0.989683  0
H  H4  1  0.50108380  0.40941697  0.86677014  1  0  0.103413  0  0.929477  0  0  0.115708  0  0.987849  0  0  0.119114  0  0.984984  0  0  0.110118  0.113373  0  0.989624  0
H  H5  1  0.59058840  0.49891645  0.63322685  1  0  0.103392  0  0.929448  0  0  0.11568  0  0.987833  0  0  0.119084  0  0.984973  0  0  0.110107  0.113352  0  0.989594  0
H  H6  1  0.76338458  0.47537672  0.13306223  1  0  0.098992  0  0.993226  0  0  0.098401  0  1.072047  0  0  0.10281  0  1.069332  0  0  0.097911  0.095456  0  1.073803  0
H  H7  1  0.52462068  0.23661660  0.36694011  1  0  0.098916  0  0.993285  0  0  0.098344  0  1.0721  0  0  0.10275  0  1.069388  0  0  0.097884  0.095398  0  1.073855  0
H  H8  1  0.23661521  0.52462069  0.86693944  1  0  0.098952  0  0.993231  0  0  0.098371  0  1.072055  0  0  0.102779  0  1.069342  0  0  0.097889  0.095426  0  1.073811  0
H  H9  1  0.47538239  0.76338304  0.63305823  1  0  0.098954  0  0.993264  0  0  0.098367  0  1.072089  0  0  0.102774  0  1.069378  0  0  0.097886  0.095422  0  1.073845  0
H  H10  1  0.94364017  0.50673929  0.93413029  1  0  0.063554  0  0.943787  0  0  0.073963  0  1.00611  0  0  0.076417  0  1.003963  0  0  0.10834  0.072725  0  1.006592  0
H  H11  1  0.49325525  0.05636193  0.56587239  1  0  0.063598  0  0.943711  0  0  0.073977  0  1.006066  0  0  0.076431  0  1.003918  0  0  0.10833  0.07274  0  1.006548  0
H  H12  1  0.05636074  0.49325490  0.06587285  1  0  0.063612  0  0.943747  0  0  0.073989  0  1.0061  0  0  0.076442  0  1.003954  0  0  0.108342  0.072751  0  1.006583  0
H  H13  1  0.50674607  0.94363984  0.43412583  1  0  0.063587  0  0.943754  0  0  0.07397  0  1.006104  0  0  0.076422  0  1.003956  0  0  0.108334  0.072732  0  1.006586  0
H  H14  1  0.62231986  0.75012406  0.74682100  1  0  0.070413  0  0.950616  0  0  0.079978  0  1.015395  0  0  0.082315  0  1.013912  0  0  0.110034  0.0783  0  1.016409  0
H  H15  1  0.24986949  0.37767862  0.75317841  1  0  0.070403  0  0.950646  0  0  0.079977  0  1.015413  0  0  0.082303  0  1.01394  0  0  0.110043  0.078301  0  1.016423  0
H  H16  1  0.37768352  0.24987780  0.25317908  1  0  0.070391  0  0.950667  0  0  0.079951  0  1.015459  0  0  0.08229  0  1.013968  0  0  0.110038  0.07827  0  1.016484  0
H  H17  1  0.75012567  0.62232292  0.24681756  1  0  0.070374  0  0.950652  0  0  0.079931  0  1.015445  0  0  0.082273  0  1.013951  0  0  0.110024  0.07825  0  1.016466  0
H  H18  1  0.91852954  0.84838017  0.01342888  1  0  0.073339  0  0.98043  0  0  0.072658  0  1.06011  0  0  0.075972  0  1.056779  0  0  0.113463  0.070693  0  1.061684  0
H  H19  1  0.15162503  0.08147042  0.48656897  1  0  0.073309  0  0.980426  0  0  0.072629  0  1.060119  0  0  0.075944  0  1.056786  0  0  0.113489  0.070669  0  1.061689  0
H  H20  1  0.08146618  0.15162909  0.98657044  1  0  0.073387  0  0.980356  0  0  0.072674  0  1.060063  0  0  0.075989  0  1.056731  0  0  0.113523  0.070714  0  1.061637  0
H  H21  1  0.84836992  0.91852900  0.51343104  1  0  0.073293  0  0.98047  0  0  0.072625  0  1.060137  0  0  0.075939  0  1.056804  0  0  0.11349  0.070665  0  1.061707  0
H  H22  1  0.66573718  0.88365547  0.13004246  1  0  0.109354  0  1.002644  0  0  0.110124  0  1.077383  0  0  0.114691  0  1.074596  0  0  0.105631  0.106938  0  1.079472  0
H  H23  1  0.11634829  0.33426387  0.36996191  1  0  0.109361  0  1.002659  0  0  0.110156  0  1.077363  0  0  0.114727  0  1.074581  0  0  0.105635  0.106971  0  1.079453  0
H  H24  1  0.33426048  0.11634850  0.86996289  1  0  0.109337  0  1.002636  0  0  0.110119  0  1.077368  0  0  0.114678  0  1.074593  0  0  0.105624  0.106933  0  1.079459  0
H  H25  1  0.88364705  0.66573449  0.63003914  1  0  0.109381  0  1.002663  0  0  0.110182  0  1.077367  0  0  0.114751  0  1.074588  0  0  0.105644  0.106995  0  1.079458  0
H  H26  1  0.53763326  0.09074879  0.78566898  1  0  0.112284  0  0.987616  0  0  0.118988  0  1.050781  0  0  0.122407  0  1.049878  0  0  0.108964  0.116737  0  1.051077  0
H  H27  1  0.90924222  0.46236141  0.71433287  1  0  0.11236  0  0.987506  0  0  0.119016  0  1.050735  0  0  0.12243  0  1.04983  0  0  0.109009  0.116765  0  1.051031  0
H  H28  1  0.46236341  0.90923985  0.21433627  1  0  0.112305  0  0.987539  0  0  0.118967  0  1.050762  0  0  0.12238  0  1.049856  0  0  0.108964  0.116716  0  1.051058  0
H  H29  1  0.09076390  0.53763832  0.28566536  1  0  0.112333  0  0.987486  0  0  0.118987  0  1.050726  0  0  0.1224  0  1.04982  0  0  0.108993  0.116736  0  1.051023  0
H  H30  1  0.79432144  0.04807805  0.68560459  1  0  0.078918  0  0.991552  0  0  0.079974  0  1.07034  0  0  0.083457  0  1.066128  0  0  0.116326  0.077421  0  1.073382  0
H  H31  1  0.95190636  0.20567390  0.81439267  1  0  0.078956  0  0.99152  0  0  0.079951  0  1.070356  0  0  0.083434  0  1.066145  0  0  0.116338  0.077402  0  1.073389  0
H  H32  1  0.20567376  0.95191155  0.31439580  1  0  0.078939  0  0.99163  0  0  0.080002  0  1.070364  0  0  0.083485  0  1.066152  0  0  0.116326  0.07745  0  1.073403  0
H  H33  1  0.04809397  0.79432787  0.18560752  1  0  0.07901  0  0.991526  0  0  0.080007  0  1.070349  0  0  0.08349  0  1.06614  0  0  0.11636  0.07746  0  1.073378  0
C  C34  1  0.38987626  0.74340803  0.93317886  1  0  0.24129  0  3.843297  0  0  0.223905  0  4.117132  0  0  0.230874  0  4.136463  0  0  0.20409  0.21885  0  4.105347  0
C  C35  1  0.25659427  0.61012250  0.56682115  1  0  0.241337  0  3.843174  0  0  0.223976  0  4.116982  0  0  0.230941  0  4.136314  0  0  0.204096  0.218912  0  4.105206  0
C  C36  1  0.61012610  0.25659379  0.06682070  1  0  0.2414  0  3.843227  0  0  0.224  0  4.117092  0  0  0.230969  0  4.136421  0  0  0.204129  0.21892  0  4.105338  0
C  C37  1  0.74340500  0.38987920  0.43317688  1  0  0.241287  0  3.843318  0  0  0.22384  0  4.117218  0  0  0.230809  0  4.136545  0  0  0.204043  0.218789  0  4.105425  0
C  C38  1  0.54069243  0.67869028  0.93964122  1  0  -0.036524  0  3.799076  0  0  -0.015497  0  4.031174  0  0  -0.020233  0  4.054751  0  0  -0.000712  -0.012634  0  4.015777  0
C  C39  1  0.32130784  0.45930790  0.56035956  1  0  -0.036486  0  3.799098  0  0  -0.01547  0  4.0312  0  0  -0.020202  0  4.054773  0  0  -0.000679  -0.012601  0  4.015805  0
C  C40  1  0.45930997  0.32131158  0.06036083  1  0  -0.036613  0  3.799101  0  0  -0.015592  0  4.031241  0  0  -0.020328  0  4.054818  0  0  -0.000736  -0.012717  0  4.015848  0
C  C41  1  0.67869140  0.54069377  0.43963681  1  0  -0.036566  0  3.799172  0  0  -0.015488  0  4.031244  0  0  -0.02022  0  4.054816  0  0  -0.00071  -0.012624  0  4.015846  0
C  C42  1  0.58179474  0.60167389  0.04971672  1  0  -0.03494  0  3.681562  0  0  -0.063446  0  3.928347  0  0  -0.061228  0  3.947078  0  0  -0.066723  -0.064545  0  3.916207  0
C  C43  1  0.39832909  0.41820632  0.45028447  1  0  -0.035026  0  3.681616  0  0  -0.063549  0  3.928465  0  0  -0.061342  0  3.947188  0  0  -0.066742  -0.064649  0  3.916325  0
C  C44  1  0.41820795  0.39833017  0.95028541  1  0  -0.034863  0  3.681447  0  0  -0.063378  0  3.928299  0  0  -0.061167  0  3.947016  0  0  -0.066719  -0.064479  0  3.916158  0
C  C45  1  0.60167729  0.58179557  0.54971219  1  0  -0.03492  0  3.681549  0  0  -0.063444  0  3.928373  0  0  -0.061233  0  3.947096  0  0  -0.066748  -0.064545  0  3.916235  0
C  C46  1  0.72779063  0.53911762  0.04936563  1  0  -0.123594  0  3.756128  0  0  -0.134627  0  4.012081  0  0  -0.141893  0  4.035112  0  0  -0.091867  -0.130427  0  3.997901  0
C  C47  1  0.46088041  0.27221225  0.45063562  1  0  -0.123447  0  3.756191  0  0  -0.13448  0  4.012105  0  0  -0.141747  0  4.035146  0  0  -0.091819  -0.130281  0  3.997924  0
C  C48  1  0.27221386  0.46088101  0.95063508  1  0  -0.12363  0  3.756147  0  0  -0.134664  0  4.01209  0  0  -0.141935  0  4.03513  0  0  -0.091875  -0.130465  0  3.99791  0
C  C49  1  0.53912191  0.72778954  0.54936230  1  0  -0.123577  0  3.756183  0  0  -0.134607  0  4.012119  0  0  -0.141877  0  4.035158  0  0  -0.091846  -0.130408  0  3.997939  0
C  C50  1  0.82808031  0.55604280  0.93884377  1  0  0.110665  0  3.741937  0  0  0.081895  0  4.003753  0  0  0.087107  0  4.021616  0  0  0.035455  0.078506  0  3.991726  0
C  C51  1  0.44395175  0.17192166  0.56115748  1  0  0.110547  0  3.741887  0  0  0.081801  0  4.003707  0  0  0.087014  0  4.02157  0  0  0.035417  0.078411  0  3.991682  0
C  C52  1  0.17192214  0.44395576  0.06115675  1  0  0.110654  0  3.741994  0  0  0.081915  0  4.003802  0  0  0.087131  0  4.021662  0  0  0.035474  0.078528  0  3.991774  0
C  C53  1  0.55604815  0.82808113  0.43883919  1  0  0.110638  0  3.741889  0  0  0.081892  0  4.003702  0  0  0.087111  0  4.021559  0  0  0.035469  0.078505  0  3.991674  0
C  C54  1  0.65042012  0.69007825  0.83404515  1  0  0.086546  0  3.708152  0  0  0.054598  0  3.959206  0  0  0.059589  0  3.976057  0  0  0.044358  0.051385  0  3.947974  0
C  C55  1  0.30991969  0.34958102  0.66595498  1  0  0.0866  0  3.708242  0  0  0.054666  0  3.959271  0  0  0.059658  0  3.976136  0  0  0.044368  0.051449  0  3.948038  0
C  C56  1  0.34958292  0.30992471  0.16595637  1  0  0.086617  0  3.708322  0  0  0.054686  0  3.959355  0  0  0.05967  0  3.97623  0  0  0.044371  0.051469  0  3.94812  0
C  C57  1  0.69008124  0.65042181  0.33404220  1  0  0.086667  0  3.708231  0  0  0.054748  0  3.959196  0  0  0.059712  0  3.976109  0  0  0.044451  0.051537  0  3.94796  0
C  C58  1  0.82989796  0.89938674  0.96725801  1  0  0.136338  0  3.682896  0  0  0.103689  0  3.932584  0  0  0.110428  0  3.951129  0  0  0.044776  0.099477  0  3.92007  0
C  C59  1  0.10061202  0.17010137  0.53273813  1  0  0.136479  0  3.682713  0  0  0.103788  0  3.932456  0  0  0.110528  0  3.951004  0  0  0.044737  0.09957  0  3.919945  0
C  C60  1  0.17009899  0.10061270  0.03273973  1  0  0.136276  0  3.682685  0  0  0.103682  0  3.932385  0  0  0.110422  0  3.950928  0  0  0.044723  0.099462  0  3.919876  0
C  C61  1  0.89938600  0.82989815  0.46726260  1  0  0.136441  0  3.682822  0  0  0.103779  0  3.932518  0  0  0.11052  0  3.951063  0  0  0.044731  0.099561  0  3.920007  0
C  C62  1  0.68764247  0.91950208  0.03104325  1  0  -0.14233  0  3.661612  0  0  -0.158499  0  3.906885  0  0  -0.166594  0  3.928492  0  0  -0.077943  -0.153806  0  3.894228  0
C  C63  1  0.08049949  0.31236002  0.46895711  1  0  -0.142374  0  3.661592  0  0  -0.15854  0  3.906846  0  0  -0.166648  0  3.928456  0  0  -0.077924  -0.153848  0  3.894193  0
C  C64  1  0.31235725  0.08049862  0.96895911  1  0  -0.14227  0  3.66146  0  0  -0.15846  0  3.906703  0  0  -0.166554  0  3.928322  0  0  -0.077929  -0.153768  0  3.894051  0
C  C65  1  0.91949853  0.68763950  0.53104361  1  0  -0.142354  0  3.661578  0  0  -0.158566  0  3.906829  0  0  -0.166671  0  3.928436  0  0  -0.077929  -0.153873  0  3.894179  0
C  C66  1  0.57663222  0.98836079  0.96794038  1  0  0.101  0  3.723297  0  0  0.110856  0  3.954852  0  0  0.115103  0  3.976287  0  0  0.018739  0.108061  0  3.940912  0
C  C67  1  0.01163757  0.42336993  0.53206040  1  0  0.10097  0  3.723376  0  0  0.110858  0  3.954877  0  0  0.115107  0  3.976311  0  0  0.018749  0.108062  0  3.940938  0
C  C68  1  0.42336797  0.01163557  0.03206315  1  0  0.100975  0  3.723215  0  0  0.110878  0  3.954728  0  0  0.115128  0  3.976161  0  0  0.018785  0.108084  0  3.940787  0
C  C69  1  0.98836270  0.57663178  0.46793648  1  0  0.10098  0  3.723249  0  0  0.110897  0  3.954732  0  0  0.115146  0  3.976163  0  0  0.018756  0.108102  0  3.940793  0
C  C70  1  0.61699692  0.03532782  0.84127115  1  0  -0.139867  0  3.662913  0  0  -0.155992  0  3.906103  0  0  -0.163803  0  3.92676  0  0  -0.074839  -0.150307  0  3.891066  0
C  C71  1  0.96466598  0.38299834  0.65873020  1  0  -0.139959  0  3.663127  0  0  -0.156096  0  3.906397  0  0  -0.163893  0  3.927033  0  0  -0.074927  -0.15041  0  3.89136  0
C  C72  1  0.38299864  0.96466406  0.15873346  1  0  -0.139882  0  3.662953  0  0  -0.156015  0  3.906217  0  0  -0.16381  0  3.926849  0  0  -0.074899  -0.150331  0  3.89118  0
C  C73  1  0.03533771  0.61700239  0.34126678  1  0  -0.139915  0  3.662937  0  0  -0.156052  0  3.906202  0  0  -0.163846  0  3.926834  0  0  -0.074942  -0.150366  0  3.891166  0
C  C74  1  0.76143557  0.01148776  0.78380568  1  0  0.138347  0  3.677688  0  0  0.103966  0  3.928992  0  0  0.111576  0  3.945717  0  0  0.049053  0.099291  0  3.916769  0
C  C75  1  0.98850639  0.23856591  0.71619433  1  0  0.138311  0  3.677708  0  0  0.103986  0  3.929009  0  0  0.111598  0  3.945733  0  0  0.049029  0.09931  0  3.916787  0
C  C76  1  0.23856460  0.98850859  0.21619703  1  0  0.138306  0  3.677783  0  0  0.103959  0  3.929092  0  0  0.111571  0  3.945816  0  0  0.049082  0.099284  0  3.916869  0
C  C77  1  0.01149013  0.76143791  0.28380472  1  0  0.138264  0  3.677722  0  0  0.103924  0  3.929046  0  0  0.111534  0  3.945769  0  0  0.049055  0.099247  0  3.916824  0
N  N78  1  0.20139977  0.84788908  0.86552483  1  0  -0.138161  0  3.316174  0  0  -0.06666  0  3.630761  0  0  -0.077582  0  3.643679  0  0  -0.137868  -0.059482  0  3.622332  0
N  N79  1  0.15210713  0.79859926  0.63447498  1  0  -0.138231  0  3.316157  0  0  -0.066724  0  3.630748  0  0  -0.077645  0  3.643659  0  0  -0.137886  -0.059546  0  3.62232  0
N  N80  1  0.79860240  0.15210729  0.13447560  1  0  -0.138216  0  3.316214  0  0  -0.066713  0  3.630804  0  0  -0.077639  0  3.64372  0  0  -0.137871  -0.059536  0  3.622375  0
N  N81  1  0.84788785  0.20140019  0.36552668  1  0  -0.138118  0  3.316057  0  0  -0.066611  0  3.630638  0  0  -0.077534  0  3.643553  0  0  -0.137852  -0.059434  0  3.622211  0
N  N82  1  0.15989527  0.81056525  0.98687787  1  0  -0.107148  0  3.013267  0  0  -0.093682  0  3.305872  0  0  -0.094181  0  3.320156  0  0  -0.100422  -0.093235  0  3.29664  0
N  N83  1  0.18943322  0.84010324  0.51312224  1  0  -0.107108  0  3.013347  0  0  -0.093647  0  3.305958  0  0  -0.094147  0  3.320238  0  0  -0.100408  -0.093201  0  3.296725  0
N  N84  1  0.84010653  0.18943220  0.01312235  1  0  -0.106978  0  3.013278  0  0  -0.093485  0  3.305833  0  0  -0.093985  0  3.320116  0  0  -0.100345  -0.093041  0  3.296602  0
N  N85  1  0.81056141  0.15989730  0.48688004  1  0  -0.107114  0  3.013191  0  0  -0.093654  0  3.305798  0  0  -0.094156  0  3.320081  0  0  -0.100403  -0.093209  0  3.296568  0
N  N86  1  0.27706860  0.74474899  0.03106120  1  0  -0.294292  0  2.957621  0  0  -0.277524  0  3.246128  0  0  -0.286701  0  3.261354  0  0  -0.218248  -0.271442  0  3.236716  0
N  N87  1  0.25525418  0.72293207  0.46893834  1  0  -0.294323  0  2.957659  0  0  -0.277566  0  3.24618  0  0  -0.286741  0  3.261403  0  0  -0.218259  -0.27148  0  3.236768  0
N  N88  1  0.72293413  0.25525175  0.96893858  1  0  -0.294457  0  2.957774  0  0  -0.277699  0  3.246306  0  0  -0.286877  0  3.26153  0  0  -0.218347  -0.271607  0  3.236899  0
N  N89  1  0.74474781  0.27707083  0.53106101  1  0  -0.29433  0  2.95765  0  0  -0.277554  0  3.246195  0  0  -0.286728  0  3.261412  0  0  -0.218265  -0.271472  0  3.236778  0
N  N90  1  0.34486268  0.80734292  0.82872784  1  0  -0.288424  0  2.93337  0  0  -0.270793  0  3.201088  0  0  -0.27799  0  3.21495  0  0  -0.217084  -0.265923  0  3.192011  0
N  N91  1  0.19265831  0.65513631  0.67127284  1  0  -0.288418  0  2.933208  0  0  -0.2708  0  3.200926  0  0  -0.277995  0  3.214783  0  0  -0.217099  -0.265929  0  3.191852  0
N  N92  1  0.65513941  0.19265672  0.17127246  1  0  -0.288444  0  2.933335  0  0  -0.270808  0  3.201066  0  0  -0.278004  0  3.214926  0  0  -0.217097  -0.26593  0  3.191995  0
N  N93  1  0.80734378  0.34486333  0.32872746  1  0  -0.288456  0  2.933333  0  0  -0.270816  0  3.201071  0  0  -0.278011  0  3.214929  0  0  -0.217087  -0.265947  0  3.191991  0
N  N94  1  0.79088487  0.63058669  0.83264691  1  0  -0.313223  0  3.137633  0  0  -0.269436  0  3.404959  0  0  -0.280298  0  3.420072  0  0  -0.321851  -0.262113  0  3.39458  0
N  N95  1  0.36940709  0.20911563  0.66735376  1  0  -0.313189  0  3.137615  0  0  -0.269414  0  3.404937  0  0  -0.280275  0  3.420042  0  0  -0.321821  -0.262089  0  3.394558  0
N  N96  1  0.20911760  0.36941189  0.16735443  1  0  -0.313256  0  3.137782  0  0  -0.269476  0  3.4051  0  0  -0.280337  0  3.420209  0  0  -0.321856  -0.262151  0  3.394721  0
N  N97  1  0.63059216  0.79088604  0.33264261  1  0  -0.313226  0  3.137695  0  0  -0.269451  0  3.405014  0  0  -0.280309  0  3.420116  0  0  -0.321881  -0.26213  0  3.394635  0
N  N98  1  0.86712644  0.94400017  0.84520041  1  0  -0.319375  0  3.31063  0  0  -0.228748  0  3.587333  0  0  -0.247572  0  3.602059  0  0  -0.335567  -0.215774  0  3.576793  0
N  N99  1  0.05599848  0.13286954  0.65479591  1  0  -0.319393  0  3.310333  0  0  -0.228734  0  3.58702  0  0  -0.247561  0  3.601745  0  0  -0.335507  -0.215761  0  3.576486  0
N  N100  1  0.13287083  0.05600149  0.15479907  1  0  -0.319339  0  3.310469  0  0  -0.228766  0  3.58722  0  0  -0.247592  0  3.601945  0  0  -0.335578  -0.215791  0  3.576684  0
N  N101  1  0.94400055  0.86713001  0.34520450  1  0  -0.31939  0  3.310438  0  0  -0.228728  0  3.587099  0  0  -0.247553  0  3.601822  0  0  -0.335538  -0.215755  0  3.576565  0
