# generated using pymatgen
data_DyAgH12C14N2O11
_symmetry_space_group_name_H-M   'P 1'
_cell_length_a   7.29308128
_cell_length_b   13.89849792
_cell_length_c   19.25424418
_cell_angle_alpha   100.90196245
_cell_angle_beta   90.00019142
_cell_angle_gamma   89.99880314
_symmetry_Int_Tables_number   1
_chemical_formula_structural   DyAgH12C14N2O11
_chemical_formula_sum   'Dy4 Ag4 H48 C56 N8 O44'
_cell_volume   1916.44234595
_cell_formula_units_Z   4
loop_
 _symmetry_equiv_pos_site_id
 _symmetry_equiv_pos_as_xyz
  1  'x, y, z'
loop_
 _atom_site_type_symbol
 _atom_site_label
 _atom_site_symmetry_multiplicity
 _atom_site_fract_x
 _atom_site_fract_y
 _atom_site_fract_z
 _atom_site_occupancy
 _atom_site_pbe_bader_charge
 _atom_site_pbe_bader_spin_density
 _atom_site_pbe_cm5_charge
 _atom_site_pbe_ddec_charge
 _atom_site_pbe_ddec_spin_density
 _atom_site_pbe_ddec_sum_bond_order
 _atom_site_pbe_magmom
Dy  Dy0  1  0.92729125  0.70870195  0.86179293  1  2.161184  0  1.485316  1.969559  0  2.130727  0
Dy  Dy1  1  0.42728729  0.79128733  0.63819715  1  2.161314  0  1.485243  1.96957  0  2.1307  0
Dy  Dy2  1  0.07272242  0.29128127  0.13820760  1  2.161504  0  1.48519  1.969718  0  2.13034  0
Dy  Dy3  1  0.57271540  0.20872078  0.36180550  1  2.161334  0  1.4853  1.969564  0  2.130564  0
Ag  Ag4  1  0.43792280  0.62585209  0.02673219  1  0.633031  0  0.438333  0.499855  0  1.648905  0
Ag  Ag5  1  0.93793186  0.87415696  0.47325804  1  0.633096  0  0.438402  0.499942  0  1.648972  0
Ag  Ag6  1  0.56206207  0.37414532  0.97328416  1  0.633141  0  0.438368  0.499918  0  1.648843  0
Ag  Ag7  1  0.06206672  0.12585744  0.52672983  1  0.63301  0  0.438412  0.500003  0  1.648863  0
H  H8  1  0.32090472  0.97861517  0.05167739  1  0.159061  0  0.117496  0.135769  0  1.009121  0
H  H9  1  0.82092402  0.52137913  0.44831707  1  0.158908  0  0.117503  0.135725  0  1.00899  0
H  H10  1  0.67909112  0.02137742  0.94831602  1  0.159583  0  0.117498  0.13576  0  1.009011  0
H  H11  1  0.17907456  0.47863035  0.55168056  1  0.159268  0  0.11747  0.13574  0  1.009047  0
H  H12  1  0.09937849  0.99220860  0.15491455  1  0.125543  0  0.111364  0.11571  0  1.016378  0
H  H13  1  0.59944956  0.50781033  0.34506044  1  0.115727  0  0.111404  0.115666  0  1.01611  0
H  H14  1  0.90059815  0.00779267  0.84507425  1  0.125091  0  0.111344  0.115682  0  1.016199  0
H  H15  1  0.40056958  0.49220402  0.65492431  1  0.115794  0  0.111405  0.115753  0  1.016148  0
H  H16  1  0.81053534  0.89135069  0.13824753  1  0.114606  0  0.115074  0.127057  0  0.985216  0
H  H17  1  0.31058611  0.60866745  0.36172709  1  0.114456  0  0.115049  0.126956  0  0.985297  0
H  H18  1  0.18945639  0.10863754  0.86174741  1  0.114507  0  0.115062  0.127061  0  0.98534  0
H  H19  1  0.68942755  0.39135726  0.63826468  1  0.114552  0  0.115093  0.127048  0  0.985369  0
H  H20  1  0.11346329  0.34378292  0.91240572  1  0.129906  0  0.112145  0.122173  0  1.035154  0
H  H21  1  0.61341905  0.15621090  0.58758953  1  0.130097  0  0.112137  0.122171  0  1.035155  0
H  H22  1  0.88652295  0.65619519  0.08759520  1  0.13002  0  0.11219  0.12212  0  1.035178  0
H  H23  1  0.38657130  0.84380313  0.41241699  1  0.130568  0  0.112083  0.122095  0  1.035156  0
H  H24  1  0.84228725  0.24913768  0.85238738  1  0.109994  0  0.112608  0.114134  0  0.988897  0
H  H25  1  0.34220689  0.25083973  0.64760243  1  0.110466  0  0.112485  0.114079  0  0.988941  0
H  H26  1  0.15768254  0.75085889  0.14762316  1  0.110041  0  0.112629  0.114253  0  0.988755  0
H  H27  1  0.65778895  0.74916994  0.35240509  1  0.11059  0  0.112474  0.114084  0  0.989033  0
H  H28  1  0.59331349  0.34372301  0.80240735  1  0.128407  0  0.117282  0.131518  0  0.986526  0
H  H29  1  0.09327175  0.15625191  0.69758237  1  0.128359  0  0.117274  0.131562  0  0.986643  0
H  H30  1  0.40666177  0.65627640  0.19759939  1  0.127981  0  0.117256  0.131472  0  0.986674  0
H  H31  1  0.90671860  0.84375399  0.30241948  1  0.128485  0  0.117292  0.131585  0  0.986608  0
H  H32  1  0.60975578  0.86044691  0.88986620  1  0.661386  0  0.29725  0.40465  0  0.932781  0
H  H33  1  0.10975236  0.63955167  0.61012883  1  0.661311  0  0.297325  0.404738  0  0.932672  0
H  H34  1  0.39027159  0.13954371  0.11013942  1  0.661332  0  0.297244  0.404645  0  0.932782  0
H  H35  1  0.89025444  0.36045638  0.38987069  1  0.661002  0  0.29727  0.404687  0  0.932742  0
H  H36  1  0.70115704  0.86664066  0.81788608  1  0.641862  0  0.30298  0.389476  0  0.944981  0
H  H37  1  0.20115998  0.63335916  0.68210922  1  0.641935  0  0.303051  0.389545  0  0.944881  0
H  H38  1  0.29887856  0.13334707  0.18212074  1  0.641744  0  0.302956  0.38954  0  0.944936  0
H  H39  1  0.79882214  0.36664676  0.31789315  1  0.641799  0  0.303066  0.389539  0  0.944877  0
H  H40  1  0.86038601  0.71123351  0.70393710  1  0.645604  0  0.307548  0.397647  0  0.935314  0
H  H41  1  0.36038215  0.78875082  0.79606266  1  0.645555  0  0.307396  0.397404  0  0.935678  0
H  H42  1  0.13960160  0.28876875  0.29606533  1  0.645623  0  0.307523  0.39769  0  0.935282  0
H  H43  1  0.63961506  0.21124050  0.20394098  1  0.645632  0  0.307402  0.397398  0  0.93562  0
H  H44  1  0.01480211  0.79618804  0.72757472  1  0.657318  0  0.303151  0.399371  0  0.938454  0
H  H45  1  0.51480687  0.70380348  0.77241879  1  0.657075  0  0.303156  0.399328  0  0.93848  0
H  H46  1  0.98518138  0.20381714  0.27242756  1  0.657255  0  0.303151  0.399455  0  0.938317  0
H  H47  1  0.48519994  0.29619579  0.22758014  1  0.65721  0  0.303138  0.399232  0  0.938616  0
H  H48  1  0.24725071  0.56559242  0.78376025  1  0.641435  0  0.2978  0.404003  0  0.922473  0
H  H49  1  0.74724957  0.93440115  0.71624003  1  0.641112  0  0.297802  0.404041  0  0.922381  0
H  H50  1  0.75275747  0.43440828  0.21623731  1  0.641446  0  0.297798  0.404049  0  0.922407  0
H  H51  1  0.25276546  0.06560544  0.28375983  1  0.641234  0  0.297813  0.404114  0  0.922296  0
H  H52  1  0.24116601  0.67110843  0.77312737  1  0.614317  0  0.298869  0.366895  0  0.99328  0
H  H53  1  0.74115698  0.82888071  0.72686662  1  0.614174  0  0.298824  0.366883  0  0.993278  0
H  H54  1  0.75883531  0.32889229  0.22687071  1  0.614348  0  0.298871  0.366948  0  0.993208  0
H  H55  1  0.25884434  0.17112670  0.27313750  1  0.614152  0  0.298849  0.366948  0  0.993207  0
C  C56  1  0.26614933  0.86501478  0.91922071  1  1.614818  0  0.227636  0.576506  0  4.203005  0
C  C57  1  0.76611688  0.63496519  0.58076643  1  1.614507  0  0.227525  0.576527  0  4.203075  0
C  C58  1  0.73386022  0.13497206  0.08077820  1  1.614579  0  0.22749  0.576517  0  4.202732  0
C  C59  1  0.23385702  0.36503693  0.41922870  1  1.614647  0  0.227456  0.576475  0  4.202829  0
C  C60  1  0.14456971  0.87869328  0.98342751  1  0.497827  0  0.121121  0.110793  0  3.991802  0
C  C61  1  0.64456881  0.62128954  0.51656505  1  0.497826  0  0.121241  0.110547  0  3.992482  0
C  C62  1  0.85543984  0.12128762  0.01656649  1  0.49771  0  0.121203  0.110611  0  3.991531  0
C  C63  1  0.35542703  0.37871205  0.48344041  1  0.497725  0  0.121229  0.110624  0  3.991925  0
C  C64  1  0.19158296  0.93880799  0.04756708  1  -0.001664  0  -0.060199  -0.104482  0  3.868461  0
C  C65  1  0.69159791  0.56118696  0.45242835  1  -0.001221  0  -0.060204  -0.104275  0  3.868373  0
C  C66  1  0.80841699  0.06117941  0.95242256  1  -0.002457  0  -0.060194  -0.104405  0  3.868378  0
C  C67  1  0.30840342  0.43882565  0.54758059  1  -0.002153  0  -0.060129  -0.104433  0  3.868709  0
C  C68  1  0.06961679  0.94540822  0.10416890  1  -0.028934  0  -0.06042  -0.021958  0  3.921671  0
C  C69  1  0.56965345  0.55459445  0.39581853  1  -0.019623  0  -0.060503  -0.022181  0  3.920992  0
C  C70  1  0.93037494  0.05458727  0.89582332  1  -0.028668  0  -0.060421  -0.021937  0  3.921575  0
C  C71  1  0.43034375  0.44541802  0.60418260  1  -0.01927  0  -0.06047  -0.021886  0  3.921861  0
C  C72  1  0.90877898  0.88998328  0.09548939  1  -0.027431  0  -0.066148  -0.118337  0  3.906933  0
C  C73  1  0.40880127  0.61002598  0.40449512  1  -0.02832  0  -0.066041  -0.1179  0  3.906491  0
C  C74  1  0.09122097  0.11001000  0.90450203  1  -0.02749  0  -0.066182  -0.118335  0  3.906873  0
C  C75  1  0.59118771  0.38999381  0.59550641  1  -0.028658  0  -0.066124  -0.118288  0  3.90704  0
C  C76  1  0.87558135  0.82975725  0.02999325  1  0.492705  0  0.120077  0.120082  0  3.978923  0
C  C77  1  0.37559349  0.67023629  0.46999182  1  0.493666  0  0.119969  0.119669  0  3.979459  0
C  C78  1  0.12443094  0.17023529  0.96999807  1  0.492579  0  0.119988  0.119794  0  3.979233  0
C  C79  1  0.62440097  0.32977179  0.53000927  1  0.493852  0  0.119938  0.119697  0  3.978764  0
C  C80  1  0.72030684  0.75809678  0.01569316  1  1.581803  0  0.209501  0.554272  0  4.205509  0
C  C81  1  0.22032848  0.74189679  0.48428447  1  1.582301  0  0.209479  0.554497  0  4.205155  0
C  C82  1  0.27969860  0.24189578  0.98429921  1  1.582052  0  0.209523  0.554401  0  4.20536  0
C  C83  1  0.77967970  0.25810908  0.51571582  1  1.581681  0  0.209516  0.554453  0  4.205255  0
C  C84  1  0.15103728  0.54644605  0.93454284  1  1.577398  0  0.210972  0.559018  0  4.202162  0
C  C85  1  0.65103542  0.95354187  0.56545246  1  1.580636  0  0.210963  0.558976  0  4.201826  0
C  C86  1  0.84896267  0.45353429  0.06545993  1  1.581208  0  0.21114  0.55939  0  4.201832  0
C  C87  1  0.34896042  0.04646319  0.43454358  1  1.580537  0  0.211002  0.559081  0  4.201812  0
C  C88  1  0.01009117  0.48081061  0.89310500  1  0.515565  0  0.124308  0.137438  0  3.947699  0
C  C89  1  0.51005413  0.01918146  0.60689459  1  0.514814  0  0.124239  0.137324  0  3.947242  0
C  C90  1  0.98991152  0.51917266  0.10689814  1  0.513645  0  0.124028  0.137093  0  3.947297  0
C  C91  1  0.48994719  0.98082806  0.39310565  1  0.514358  0  0.124039  0.137051  0  3.947114  0
C  C92  1  0.00337455  0.37955686  0.88901062  1  0.007375  0  -0.065205  -0.104524  0  3.876842  0
C  C93  1  0.50332925  0.12044181  0.61098615  1  0.007684  0  -0.065328  -0.104515  0  3.876879  0
C  C94  1  0.99661854  0.62042930  0.11099080  1  0.007378  0  -0.065081  -0.104133  0  3.876472  0
C  C95  1  0.49667207  0.87956858  0.38902094  1  0.007463  0  -0.065034  -0.104043  0  3.876292  0
C  C96  1  0.85321243  0.32811011  0.85566312  1  -0.071613  0  -0.0668  -0.037024  0  3.970811  0
C  C97  1  0.35315312  0.17187819  0.64432912  1  -0.072612  0  -0.066547  -0.036828  0  3.971211  0
C  C98  1  0.14677381  0.67187758  0.14434161  1  -0.07094  0  -0.066886  -0.037328  0  3.970741  0
C  C99  1  0.64684683  0.82813067  0.35567467  1  -0.073025  0  -0.066669  -0.03712  0  3.971194  0
C  C100  1  0.71561097  0.37950236  0.82751177  1  -0.032328  0  -0.07245  -0.141597  0  3.96143  0
C  C101  1  0.21558145  0.12048524  0.67248229  1  -0.032158  0  -0.072561  -0.14177  0  3.962133  0
C  C102  1  0.28438898  0.62048605  0.17249253  1  -0.032273  0  -0.072449  -0.141496  0  3.961806  0
C  C103  1  0.78441987  0.87952440  0.32752367  1  -0.031693  0  -0.072413  -0.141556  0  3.962157  0
C  C104  1  0.73903521  0.48018148  0.83068347  1  0.50795  0  0.122985  0.121276  0  3.982036  0
C  C105  1  0.23900709  0.01980808  0.66931139  1  0.507751  0  0.123076  0.121361  0  3.98191  0
C  C106  1  0.26098530  0.51980912  0.16932059  1  0.507581  0  0.123072  0.121284  0  3.981939  0
C  C107  1  0.76099286  0.98019708  0.33068984  1  0.50762  0  0.122964  0.121248  0  3.981883  0
C  C108  1  0.60193399  0.54270908  0.80101686  1  1.612449  0  0.227412  0.574358  0  4.187482  0
C  C109  1  0.10191411  0.95728315  0.69898568  1  1.612186  0  0.227546  0.574613  0  4.187293  0
C  C110  1  0.39808790  0.45729038  0.19899197  1  1.612659  0  0.227493  0.574498  0  4.187544  0
C  C111  1  0.89806665  0.04272488  0.30101281  1  1.611857  0  0.227429  0.57454  0  4.187362  0
N  N112  1  0.98994322  0.82597521  0.97511543  1  -1.25786  0  -0.380338  -0.352072  0  3.553675  0
N  N113  1  0.48993627  0.67400528  0.52486997  1  -1.257713  0  -0.380329  -0.351702  0  3.554064  0
N  N114  1  0.01007182  0.17400710  0.02487564  1  -1.257701  0  -0.380226  -0.351735  0  3.553658  0
N  N115  1  0.51005820  0.32598952  0.47512475  1  -1.257553  0  -0.380341  -0.351693  0  3.553579  0
N  N116  1  0.88377700  0.52897604  0.86236319  1  -1.235077  0  -0.37291  -0.348382  0  3.516214  0
N  N117  1  0.38375876  0.97100876  0.63763613  1  -1.234181  0  -0.372879  -0.348392  0  3.515989  0
N  N118  1  0.11623392  0.47101746  0.13763968  1  -1.234589  0  -0.372941  -0.348461  0  3.516071  0
N  N119  1  0.61624941  0.02900157  0.36236784  1  -1.233823  0  -0.372911  -0.348377  0  3.515649  0
O  O120  1  0.19738360  0.81379389  0.86221347  1  -1.193622  0  -0.368817  -0.637753  0  2.271909  0
O  O121  1  0.69736598  0.68618615  0.63777724  1  -1.193523  0  -0.368805  -0.637868  0  2.27173  0
O  O122  1  0.80264241  0.18619145  0.13778318  1  -1.193226  0  -0.368827  -0.637846  0  2.271702  0
O  O123  1  0.30262300  0.31381087  0.36221881  1  -1.192906  0  -0.368788  -0.637847  0  2.271619  0
O  O124  1  0.42261057  0.90281393  0.92577508  1  -1.179773  0  -0.30035  -0.518745  0  2.179424  0
O  O125  1  0.92259059  0.59719169  0.57422590  1  -1.179522  0  -0.300303  -0.51865  0  2.17938  0
O  O126  1  0.57739761  0.09717569  0.07421640  1  -1.179727  0  -0.300198  -0.518638  0  2.179429  0
O  O127  1  0.07738605  0.40282380  0.42578029  1  -1.179903  0  -0.30021  -0.518656  0  2.17969  0
O  O128  1  0.71356177  0.70449359  0.95428780  1  -1.170647  0  -0.380841  -0.631249  0  2.331485  0
O  O129  1  0.21359249  0.79551444  0.54568519  1  -1.170642  0  -0.380752  -0.631372  0  2.331287  0
O  O130  1  0.28644092  0.29548450  0.04571208  1  -1.170322  0  -0.380904  -0.63139  0  2.331439  0
O  O131  1  0.78643488  0.20450301  0.45430878  1  -1.17029  0  -0.380811  -0.631374  0  2.331548  0
O  O132  1  0.61215538  0.75140267  0.06642340  1  -1.117076  0  -0.323805  -0.501876  0  2.269992  0
O  O133  1  0.11217219  0.74860891  0.43355690  1  -1.117575  0  -0.323926  -0.502041  0  2.269862  0
O  O134  1  0.38782401  0.24860004  0.93356454  1  -1.117337  0  -0.323758  -0.501867  0  2.269864  0
O  O135  1  0.88782639  0.25141024  0.56644975  1  -1.117527  0  -0.323906  -0.502049  0  2.26968  0
O  O136  1  0.65631385  0.63080490  0.80003974  1  -1.182158  0  -0.357801  -0.615949  0  2.298509  0
O  O137  1  0.15628115  0.86917336  0.69995017  1  -1.182153  0  -0.357891  -0.616118  0  2.298216  0
O  O138  1  0.34369707  0.36919227  0.19996412  1  -1.182276  0  -0.35779  -0.615932  0  2.298414  0
O  O139  1  0.84370920  0.13083032  0.30004984  1  -1.182349  0  -0.357847  -0.616132  0  2.298464  0
O  O140  1  0.44998930  0.50536306  0.78067191  1  -1.179705  0  -0.306719  -0.530746  0  2.144713  0
O  O141  1  0.94998843  0.99463073  0.71933695  1  -1.179876  0  -0.306667  -0.530777  0  2.145216  0
O  O142  1  0.55001888  0.49464583  0.21933292  1  -1.179877  0  -0.306705  -0.530796  0  2.145057  0
O  O143  1  0.04999917  0.00538591  0.28065276  1  -1.179722  0  -0.306609  -0.530723  0  2.144986  0
O  O144  1  0.14067078  0.63723936  0.93300061  1  -1.178598  0  -0.3733  -0.640728  0  2.350125  0
O  O145  1  0.64065211  0.86274657  0.56699909  1  -1.178733  0  -0.373372  -0.640804  0  2.349968  0
O  O146  1  0.85931820  0.36274345  0.06701649  1  -1.178654  0  -0.373336  -0.640884  0  2.350028  0
O  O147  1  0.35934235  0.13726070  0.43299774  1  -1.17884  0  -0.373392  -0.640791  0  2.349749  0
O  O148  1  0.26644350  0.50790058  0.97069517  1  -1.121275  0  -0.317147  -0.513435  0  2.386969  0
O  O149  1  0.76643836  0.99210161  0.52930726  1  -1.12431  0  -0.317053  -0.51331  0  2.386875  0
O  O150  1  0.73358524  0.49208694  0.02930071  1  -1.124048  0  -0.317141  -0.513486  0  2.386937  0
O  O151  1  0.23354377  0.00790706  0.47068611  1  -1.124051  0  -0.316985  -0.513329  0  2.387064  0
O  O152  1  0.72658316  0.84403305  0.86225920  1  -1.298681  0  -0.654225  -0.8571  0  2.131877  0
O  O153  1  0.22657382  0.65596649  0.63773558  1  -1.298793  0  -0.65432  -0.85726  0  2.131894  0
O  O154  1  0.27344421  0.15595470  0.13774866  1  -1.298547  0  -0.654209  -0.857215  0  2.131659  0
O  O155  1  0.77342201  0.34404017  0.36226741  1  -1.298322  0  -0.654348  -0.857211  0  2.131826  0
O  O156  1  0.91753260  0.75484098  0.74574358  1  -1.293042  0  -0.626899  -0.82193  0  2.1554  0
O  O157  1  0.41753704  0.74515439  0.75425349  1  -1.292933  0  -0.626753  -0.821692  0  2.155478  0
O  O158  1  0.08245775  0.24516276  0.25425955  1  -1.292964  0  -0.626879  -0.822049  0  2.155231  0
O  O159  1  0.58247388  0.25484930  0.24574756  1  -1.292995  0  -0.626759  -0.821617  0  2.155646  0
O  O160  1  0.15525559  0.61662220  0.77726767  1  -1.261768  0  -0.626884  -0.833702  0  2.094971  0
O  O161  1  0.65524839  0.88337148  0.72272576  1  -1.261312  0  -0.626848  -0.833714  0  2.094877  0
O  O162  1  0.84474847  0.38337779  0.22273084  1  -1.261836  0  -0.626881  -0.833826  0  2.094903  0
O  O163  1  0.34475842  0.11663438  0.27727401  1  -1.261413  0  -0.626877  -0.8339  0  2.094725  0
