# generated using pymatgen
data_ZnH20C38(NO3)2
_symmetry_space_group_name_H-M   'P 1'
_cell_length_a   14.64838791
_cell_length_b   15.66075371
_cell_length_c   28.08973491
_cell_angle_alpha   90.10041619
_cell_angle_beta   105.95185939
_cell_angle_gamma   98.51758560
_symmetry_Int_Tables_number   1
_chemical_formula_structural   ZnH20C38(NO3)2
_chemical_formula_sum   'Zn2 H40 C76 N4 O12'
_cell_volume   6121.33552039
_cell_formula_units_Z   2
loop_
 _symmetry_equiv_pos_site_id
 _symmetry_equiv_pos_as_xyz
  1  'x, y, z'
loop_
 _atom_site_type_symbol
 _atom_site_label
 _atom_site_symmetry_multiplicity
 _atom_site_fract_x
 _atom_site_fract_y
 _atom_site_fract_z
 _atom_site_occupancy
 _atom_site_pbe_bader_charge
 _atom_site_pbe_bader_spin_density
 _atom_site_pbe_cm5_charge
 _atom_site_pbe_ddec_charge
 _atom_site_pbe_ddec_spin_density
 _atom_site_pbe_ddec_sum_bond_order
 _atom_site_pbe_magmom
Zn  Zn0  1  0.59335060  0.48274002  0.51177547  1  1.282867  0  0.664234  0.813809  0  2.447224  0
Zn  Zn1  1  0.40640673  0.51696902  0.48657417  1  1.283616  0  0.664627  0.814822  0  2.445551  0
H  H2  1  0.64143763  0.48052225  0.36493155  1  0.084574  0  0.102654  0.104269  0  1.005013  0
H  H3  1  0.36898151  0.85221816  0.52703753  1  0.050699  0  0.101681  0.102649  0  1.012009  0
H  H4  1  0.97605680  0.67135999  0.41240060  1  0.062069  0  0.112819  0.116032  0  0.979784  0
H  H5  1  0.02443365  0.32958306  0.58730861  1  0.07457  0  0.112444  0.115557  0  0.978908  0
H  H6  1  0.76310412  0.53324929  0.48134881  1  0.140566  0  0.127101  0.099427  0  1.003944  0
H  H7  1  0.23617211  0.46456996  0.51615104  1  0.123327  0  0.126955  0.100655  0  1.006038  0
H  H8  1  0.69374127  0.35241580  0.57686104  1  0.128406  0  0.128981  0.109287  0  0.971381  0
H  H9  1  0.30656414  0.64911413  0.42272876  1  0.123088  0  0.130506  0.108357  0  0.964517  0
H  H10  1  0.14206484  0.69329908  0.40132161  1  0.073434  0  0.115356  0.122194  0  0.981644  0
H  H11  1  0.85841640  0.30828500  0.59864984  1  0.085651  0  0.114427  0.121772  0  0.982767  0
H  H12  1  0.85818991  0.59566255  0.45076068  1  0.08918  0  0.114466  0.115675  0  0.9934  0
H  H13  1  0.36456951  0.53388998  0.63401626  1  0.075844  0  0.102975  0.104794  0  1.00499  0
H  H14  1  0.14201846  0.40445162  0.54852068  1  0.087187  0  0.114518  0.115994  0  0.993766  0
H  H15  1  0.63584082  0.48000670  0.27486155  1  0.063228  0  0.107662  0.114316  0  0.981522  0
H  H16  1  0.36713346  0.53115328  0.72379348  1  0.0859  0  0.107697  0.114712  0  0.981315  0
H  H17  1  0.64519749  0.46013912  0.67056084  1  0.09059  0  0.104875  0.10786  0  1.001767  0
H  H18  1  0.34743479  0.52134269  0.32786349  1  0.100852  0  0.105235  0.108195  0  1.001307  0
H  H19  1  0.64841396  0.45661073  0.76044127  1  0.076451  0  0.107881  0.114376  0  0.981233  0
H  H20  1  0.34124915  0.52167175  0.23768652  1  0.075533  0  0.108149  0.115157  0  0.981936  0
H  H21  1  0.54028938  0.70908012  0.88184597  1  0.086669  0  0.115748  0.121267  0  0.981411  0
H  H22  1  0.49716432  0.28662999  0.12327302  1  0.107279  0  0.11559  0.120977  0  0.982499  0
H  H23  1  0.52786303  0.71386141  0.96812689  1  0.05021  0  0.106756  0.106675  0  1.003406  0
H  H24  1  0.54064855  0.22184348  0.52274701  1  0.092038  0  0.101032  0.104  0  1.03924  0
H  H25  1  0.49700965  0.28027609  0.03505621  1  0.063326  0  0.106715  0.106676  0  1.004018  0
H  H26  1  0.47966963  0.70988413  0.02781995  1  0.061128  0  0.103497  0.103639  0  1.02079  0
H  H27  1  0.46444855  0.27627315  0.96175410  1  0.061792  0  0.103471  0.103929  0  1.020837  0
H  H28  1  0.76287006  0.05535115  0.56933415  1  0.035853  0  0.097135  0.095526  0  1.004122  0
H  H29  1  0.24606312  0.94702201  0.51278900  1  0.077354  0  0.098565  0.098356  0  0.999992  0
H  H30  1  0.45764106  0.78645438  0.08799486  1  0.022808  0  0.088233  0.119088  0  1.007043  0
H  H31  1  0.40189191  0.73284002  0.13141954  1  0.056871  0  0.102731  0.150508  0  0.979481  0
H  H32  1  0.52620534  0.76365218  0.14860569  1  0.070614  0  0.104261  0.152735  0  0.977972  0
H  H33  1  0.44731737  0.19554987  0.89521106  1  0.015567  0  0.088322  0.119279  0  1.006407  0
H  H34  1  0.39607321  0.23826565  0.83646125  1  0.092966  0  0.103557  0.15201  0  0.978993  0
H  H35  1  0.46236722  0.77919342  0.51573903  1  0.081437  0  0.10225  0.106424  0  1.032362  0
H  H36  1  0.51919968  0.23530284  0.85532645  1  0.072461  0  0.103395  0.151619  0  0.979005  0
H  H37  1  0.24377178  0.24897243  0.48485701  1  0.090698  0  0.100998  0.10482  0  1.006077  0
H  H38  1  0.75803099  0.75128856  0.54477952  1  0.067555  0  0.101244  0.105875  0  1.001394  0
H  H39  1  0.80687427  0.91028443  0.56414293  1  0.090516  0  0.098036  0.096949  0  1.003091  0
H  H40  1  0.19901705  0.09103158  0.49523166  1  0.053625  0  0.097864  0.097002  0  1.001675  0
H  H41  1  0.64004168  0.15032494  0.55507248  1  0.048035  0  0.098168  0.096817  0  1.02233  0
C  C42  1  0.57446402  0.66351378  0.51471736  1  1.529961  0  0.213192  0.594868  0  4.164253  0
C  C43  1  0.51689312  0.57150051  0.87473056  1  -0.016553  0  -0.013264  -0.074357  0  4.002763  0
C  C44  1  0.49489750  0.50139204  0.35165849  1  0.019427  0  -0.015033  -0.030833  0  3.956441  0
C  C45  1  0.50449579  0.49663604  0.64718704  1  -0.0132  0  -0.015472  -0.026712  0  3.953638  0
C  C46  1  0.50316120  0.57499425  0.97321720  1  0.001024  0  0.005443  0.045363  0  3.971936  0
C  C47  1  0.49046991  0.41628275  0.02464839  1  -0.009117  0  0.004172  0.043442  0  3.970169  0
C  C48  1  0.48747391  0.41470252  0.97210886  1  -0.003778  0  0.00388  0.048821  0  4.003777  0
C  C49  1  0.49184360  0.57519327  0.02338666  1  -0.046851  0  0.003434  0.048135  0  4.003485  0
C  C50  1  0.49738873  0.49425158  0.94799724  1  -0.033046  0  0.001145  -0.006672  0  3.931781  0
C  C51  1  0.48980690  0.49646773  0.04879780  1  0.020165  0  0.001694  -0.005116  0  3.927364  0
C  C52  1  0.51967000  0.65141099  0.94906992  1  -0.011777  0  -0.083708  -0.124973  0  3.979256  0
C  C53  1  0.42506038  0.33681973  0.49627849  1  1.564995  0  0.213155  0.594505  0  4.165634  0
C  C54  1  0.49373334  0.34180030  0.05213217  1  -0.02605  0  -0.083271  -0.124785  0  3.979379  0
C  C55  1  0.52704808  0.64960261  0.90065842  1  -0.022226  0  -0.070243  -0.068341  0  3.977225  0
C  C56  1  0.49402166  0.34454471  0.10177985  1  0.017064  0  -0.070353  -0.066884  0  3.979989  0
C  C57  1  0.49804732  0.50091540  0.40552464  1  1.559432  0  0.216305  0.596398  0  4.170082  0
C  C58  1  0.50270363  0.49834473  0.59355418  1  1.574358  0  0.212506  0.58763  0  4.180467  0
C  C59  1  0.48276927  0.65000048  0.04748077  1  -0.033604  0  -0.085128  -0.1886  0  3.926818  0
C  C60  1  0.47534574  0.33778444  0.94449629  1  -0.069434  0  -0.085178  -0.189125  0  3.928278  0
C  C61  1  0.60628810  0.75774532  0.52869963  1  -0.063816  0  -0.020067  -0.029645  0  3.984064  0
C  C62  1  0.39596045  0.24308920  0.50368183  1  -0.02735  0  -0.019801  -0.026894  0  3.980443  0
C  C63  1  0.73114151  0.88149446  0.55381155  1  -0.091113  0  -0.095938  -0.143113  0  4.015347  0
C  C64  1  0.48706944  0.49900982  0.09932602  1  -0.04742  0  0.003251  0.041527  0  4.006196  0
C  C65  1  0.27424881  0.11988116  0.50185522  1  -0.099782  0  -0.095757  -0.143062  0  4.013294  0
C  C66  1  0.70471889  0.79377820  0.54305991  1  0.051408  0  -0.089451  -0.097187  0  4.008141  0
C  C67  1  0.29841289  0.20706301  0.49606649  1  -0.014878  0  -0.091465  -0.100457  0  4.014632  0
C  C68  1  0.53703972  0.81003623  0.52718308  1  0.034708  0  -0.081072  -0.132189  0  3.942541  0
C  C69  1  0.46691176  0.19120730  0.51807290  1  -0.035882  0  -0.081603  -0.13348  0  3.942072  0
C  C70  1  0.56164408  0.89971876  0.53801442  1  -0.055441  0  -0.003657  0.034215  0  3.949093  0
C  C71  1  0.44463386  0.10203876  0.52421946  1  0.059052  0  -0.00413  0.032476  0  3.952607  0
C  C72  1  0.66111963  0.93637747  0.55063586  1  -0.003753  0  -0.007405  0.079782  0  4.020588  0
C  C73  1  0.34562448  0.06544612  0.51508170  1  -0.055698  0  -0.008096  0.080821  0  4.019012  0
C  C74  1  0.48962503  0.95561227  0.53366635  1  -0.031778  0  -0.002228  0.03667  0  3.953885  0
C  C75  1  0.50152897  0.49209943  0.89770240  1  0.013529  0  0.003379  0.041057  0  4.005409  0
C  C76  1  0.51772843  0.04646033  0.53633422  1  -0.025965  0  -0.00328  0.035311  0  3.956945  0
C  C77  1  0.61785016  0.08055912  0.55024045  1  0.026891  0  -0.093549  -0.130082  0  4.030599  0
C  C78  1  0.39033140  0.92169280  0.52596373  1  -0.029948  0  -0.092909  -0.130217  0  4.026143  0
C  C79  1  0.68676326  0.02775648  0.55822049  1  -0.108872  0  -0.096018  -0.13955  0  4.040294  0
C  C80  1  0.32137842  0.97445969  0.51806274  1  -0.075981  0  -0.095415  -0.141552  0  4.036859  0
C  C81  1  0.48083890  0.57864342  0.17577283  1  1.312081  0  0.239187  0.435523  0  4.09417  0
C  C82  1  0.49211406  0.41190309  0.81861105  1  1.299293  0  0.239409  0.435479  0  4.09656  0
C  C83  1  0.15986722  0.64217110  0.42695822  1  0.01524  0  -0.078879  -0.179015  0  3.972368  0
C  C84  1  0.84034146  0.35863888  0.57250132  1  0.079386  0  -0.079287  -0.17989  0  3.974582  0
C  C85  1  0.24998624  0.61856273  0.43826405  1  0.447059  0  0.05107  0.087892  0  3.943704  0
C  C86  1  0.48124441  0.57766152  0.12316725  1  0.003461  0  -0.014107  -0.144886  0  3.934784  0
C  C87  1  0.75009540  0.38200147  0.56088220  1  0.360439  0  0.049594  0.081965  0  3.949553  0
C  C88  1  0.21016063  0.51433263  0.49120010  1  0.553377  0  0.07231  0.07504  0  3.870381  0
C  C89  1  0.78950603  0.48466051  0.50708637  1  0.521174  0  0.073406  0.075576  0  3.8716  0
C  C90  1  0.11598294  0.53332927  0.48223926  1  -0.008201  0  0.002639  -0.015753  0  3.949852  0
C  C91  1  0.88403465  0.46632271  0.51658364  1  0.004625  0  0.002263  -0.0139  0  3.946665  0
C  C92  1  0.09011444  0.59964212  0.44864080  1  -0.01957  0  0.008544  0.10736  0  4.025483  0
C  C93  1  0.91003428  0.40061714  0.55058558  1  -0.060509  0  0.00897  0.107978  0  4.020641  0
C  C94  1  0.04681971  0.48848954  0.50524970  1  -0.034726  0  0.005202  0.04039  0  3.962788  0
C  C95  1  0.95325996  0.51115803  0.49362472  1  0.076191  0  0.006162  0.039401  0  3.963608  0
C  C96  1  0.92987432  0.57783372  0.45972294  1  -0.048446  0  -0.073661  -0.106006  0  3.98215  0
C  C97  1  0.49002874  0.41193346  0.87099454  1  -0.015416  0  -0.013809  -0.142939  0  3.933232  0
C  C98  1  0.07025709  0.42214257  0.53939363  1  -0.014444  0  -0.072942  -0.105619  0  3.978975  0
C  C99  1  0.99547229  0.62059221  0.43808497  1  -0.029048  0  -0.081688  -0.12907  0  3.992676  0
C  C100  1  0.00480112  0.37986025  0.56129804  1  -0.055216  0  -0.081746  -0.129426  0  3.987888  0
C  C101  1  0.48971440  0.41993261  0.17784801  1  1.351646  0  0.237584  0.432043  0  4.12162  0
C  C102  1  0.52258398  0.57397955  0.82309848  1  1.344573  0  0.236063  0.429834  0  4.125666  0
C  C103  1  0.40676273  0.51256666  0.26576601  1  -0.047821  0  -0.084765  -0.152443  0  3.984839  0
C  C104  1  0.58647057  0.47349347  0.73254833  1  0.04301  0  -0.084184  -0.151637  0  3.978261  0
C  C105  1  0.41021854  0.51276171  0.31579301  1  -0.047515  0  -0.080248  -0.076537  0  3.972351  0
C  C106  1  0.58467108  0.47516132  0.68274252  1  -0.036503  0  -0.079551  -0.077369  0  3.970177  0
C  C107  1  0.57622393  0.48989744  0.33678184  1  0.019199  0  -0.082328  -0.07871  0  3.980438  0
C  C108  1  0.47629146  0.65363744  0.09650055  1  0.026185  0  0.017035  0.194968  0  3.926245  0
C  C109  1  0.42606752  0.51670281  0.66203426  1  -0.040242  0  -0.08152  -0.077794  0  3.978281  0
C  C110  1  0.57318316  0.48969526  0.28682570  1  0.002399  0  -0.086145  -0.153989  0  3.985164  0
C  C111  1  0.42748895  0.51511083  0.71174495  1  -0.037336  0  -0.085845  -0.156365  0  3.987774  0
C  C112  1  0.48832418  0.50088674  0.25157613  1  0.291554  0  0.090962  0.197048  0  4.015755  0
C  C113  1  0.50774874  0.49352554  0.74667863  1  0.302016  0  0.090924  0.197835  0  4.018359  0
C  C114  1  0.46482209  0.73888835  0.11694144  1  -0.025761  0  -0.235133  -0.418172  0  3.965987  0
C  C115  1  0.45850560  0.24576655  0.86928577  1  -0.065747  0  -0.234998  -0.418113  0  3.965982  0
C  C116  1  0.47496559  0.33374981  0.89436585  1  0.061387  0  0.016572  0.193583  0  3.929605  0
C  C117  1  0.49001718  0.42148981  0.12535035  1  -0.02186  0  -0.013315  -0.077125  0  4.006448  0
N  N118  1  0.48547308  0.49950132  0.19981116  1  -1.179992  0  -0.23284  -0.211221  0  3.576023  0
N  N119  1  0.50863454  0.49320348  0.79818768  1  -1.174559  0  -0.233218  -0.212316  0  3.582908  0
N  N120  1  0.27396123  0.55492403  0.46997189  1  -1.268297  0  -0.32122  -0.190218  0  3.540589  0
N  N121  1  0.72570790  0.44449967  0.52843057  1  -1.233798  0  -0.31986  -0.185386  0  3.540078  0
O  O122  1  0.63875518  0.61456309  0.52182794  1  -1.151893  0  -0.321746  -0.546652  0  2.291284  0
O  O123  1  0.47985993  0.34568296  0.79240150  1  -1.099913  0  -0.274558  -0.43639  0  2.105646  0
O  O124  1  0.53788943  0.64167515  0.80237963  1  -1.104427  0  -0.287115  -0.446982  0  2.062366  0
O  O125  1  0.49310196  0.35386323  0.20154780  1  -1.108654  0  -0.286747  -0.44721  0  2.06672  0
O  O126  1  0.36019832  0.38529346  0.48703225  1  -1.154003  0  -0.321563  -0.54815  0  2.29342  0
O  O127  1  0.48435099  0.63914531  0.49682071  1  -1.167772  0  -0.322526  -0.560787  0  2.351654  0
O  O128  1  0.51387672  0.36140458  0.50016273  1  -1.178556  0  -0.321411  -0.558167  0  2.350771  0
O  O129  1  0.57782485  0.49308499  0.43656910  1  -1.171427  0  -0.319948  -0.554944  0  2.323384  0
O  O130  1  0.42677486  0.51618064  0.56292560  1  -1.167156  0  -0.319072  -0.552413  0  2.325528  0
O  O131  1  0.42026986  0.50817034  0.41612099  1  -1.160435  0  -0.320164  -0.550834  0  2.323735  0
O  O132  1  0.57739836  0.48174557  0.58273914  1  -1.16229  0  -0.319514  -0.551303  0  2.322916  0
O  O133  1  0.47789656  0.64423573  0.19928814  1  -1.097899  0  -0.273126  -0.435457  0  2.108074  0
