# generated using pymatgen
data_CuH10C18S2(NO)4
_symmetry_space_group_name_H-M   'P 1'
_cell_length_a   14.75191989
_cell_length_b   15.11647792
_cell_length_c   15.11661595
_cell_angle_alpha   72.79990689
_cell_angle_beta   87.98224038
_cell_angle_gamma   87.98138398
_symmetry_Int_Tables_number   1
_chemical_formula_structural   CuH10C18S2(NO)4
_chemical_formula_sum   'Cu6 H60 C108 S12 N24 O24'
_cell_volume   3217.12079267
_cell_formula_units_Z   6
loop_
 _symmetry_equiv_pos_site_id
 _symmetry_equiv_pos_as_xyz
  1  'x, y, z'
loop_
 _atom_site_type_symbol
 _atom_site_label
 _atom_site_symmetry_multiplicity
 _atom_site_fract_x
 _atom_site_fract_y
 _atom_site_fract_z
 _atom_site_occupancy
 _atom_site_pbe_bader_charge
 _atom_site_pbe_bader_spin_density
 _atom_site_pbe_cm5_charge
 _atom_site_pbe_ddec_charge
 _atom_site_pbe_ddec_spin_density
 _atom_site_pbe_ddec_sum_bond_order
 _atom_site_pbe_magmom
Cu  Cu0  1  0.97320531  0.75424468  0.65267322  1  1.071469  0.569484  0.732288  0.703673  0.733295  2.380022  0.568
Cu  Cu1  1  0.52680081  0.34732357  0.24576560  1  1.071288  0.56948  0.732243  0.703687  0.73328  2.379957  0.568
Cu  Cu2  1  0.02679975  0.24575737  0.34732550  1  1.071408  0.569481  0.7323  0.703696  0.733292  2.380088  0.568
Cu  Cu3  1  0.47320582  0.65267569  0.75423780  1  1.071244  0.569483  0.732285  0.703666  0.733288  2.379995  0.568
Cu  Cu4  1  0.24999471  0.85994835  0.14005266  1  1.080523  0.578096  0.72363  0.721162  0.730016  2.334544  0.575
Cu  Cu5  1  0.75000036  0.14005003  0.85994898  1  1.080724  0.578094  0.723656  0.721091  0.730018  2.33461  0.575
H  H6  1  0.79816790  0.48821634  0.56742306  1  0.117396  0.000125  0.117348  0.15325  0.000118  1.015474  0.0
H  H7  1  0.96462103  0.66937906  0.26615978  1  0.058746  0.000478  0.098835  0.106254  0.000269  1.017623  0.0
H  H8  1  0.07627630  0.76024425  0.14994858  1  0.08557  0.000762  0.112822  0.086809  0.000257  1.009862  0.001
H  H9  1  0.22052247  0.82311848  0.35312442  1  0.151388  0.00086  0.130598  0.119951  0.000365  0.964442  0.001
H  H10  1  0.12055041  0.72896130  0.47888988  1  0.130304  0.000356  0.119433  0.142695  0.000116  0.985727  0.0
H  H11  1  0.94345420  0.97915632  0.33503100  1  0.142579  0.000689  0.120099  0.150584  0.000359  1.017079  0.0
H  H12  1  0.77509759  0.81232243  0.70042587  1  0.156571  0.000757  0.119681  0.134085  0.000359  1.003167  0.001
H  H13  1  0.63965120  0.73562988  0.78854909  1  0.168342  0.002107  0.127737  0.107823  0.001047  0.979879  0.002
H  H14  1  0.53333374  0.69403798  0.55442112  1  0.107804  0.001964  0.110171  0.078406  0.000856  1.043922  0.001
H  H15  1  0.66774436  0.76310554  0.45694111  1  0.041783  0.001164  0.093919  0.092612  0.000601  1.044311  0.001
H  H16  1  0.37917421  0.18165486  0.01229915  1  0.140776  0.000486  0.118425  0.154915  0.000325  1.004969  0.0
H  H17  1  0.41362995  0.99743539  0.76436866  1  0.089978  3.3e-05  0.100824  0.105013  2.8e-05  1.011009  0.0
H  H18  1  0.44410804  0.86884227  0.69406661  1  0.079608  -3.2e-05  0.122922  0.097372  -7.5e-05  0.965918  0.0
H  H19  1  0.42150088  0.66981391  0.95033761  1  0.183718  0.000211  0.114774  0.097782  0.000261  1.057471  0.0
H  H20  1  0.39284719  0.78941954  0.03111648  1  0.130813  -7.8e-05  0.108295  0.114447  -0.000107  1.039524  0.0
H  H21  1  0.70182576  0.43258333  0.51178275  1  0.118245  0.000125  0.11732  0.15323  0.000118  1.015546  0.0
H  H22  1  0.53537601  0.73385034  0.33060763  1  0.058468  0.000479  0.09884  0.106266  0.00027  1.01758  0.0
H  H23  1  0.42371099  0.85006483  0.23975119  1  0.085353  0.000765  0.112779  0.086742  0.000258  1.009841  0.001
H  H24  1  0.27946369  0.64688109  0.17687579  1  0.151438  0.000863  0.130633  0.120018  0.000366  0.964397  0.001
H  H25  1  0.37944311  0.52111511  0.27102958  1  0.13027  0.000358  0.119442  0.142774  0.000117  0.985834  0.0
H  H26  1  0.55655469  0.66495650  0.02082662  1  0.142611  0.000689  0.120116  0.150672  0.000359  1.017147  0.0
H  H27  1  0.72491266  0.29956411  0.18767814  1  0.154049  0.000758  0.119711  0.13415  0.000359  1.003099  0.001
H  H28  1  0.86036362  0.21144438  0.26436700  1  0.168291  0.002107  0.127706  0.107764  0.001047  0.979952  0.002
H  H29  1  0.96666620  0.44558192  0.30595941  1  0.107825  0.001964  0.110136  0.078399  0.000857  1.043827  0.001
H  H30  1  0.83224784  0.54305393  0.23689079  1  0.041878  0.001164  0.0939  0.092594  0.000601  1.044477  0.001
H  H31  1  0.12081851  0.98769398  0.81835204  1  0.140921  0.000486  0.118436  0.154981  0.000325  1.00494  0.0
H  H32  1  0.08637530  0.23563351  0.00257013  1  0.08999  3.3e-05  0.100849  0.105047  2.8e-05  1.011135  0.0
H  H33  1  0.05588636  0.30593701  0.13115819  1  0.079514  -3.2e-05  0.12295  0.097437  -7.5e-05  0.965755  0.0
H  H34  1  0.07849249  0.04966164  0.33018230  1  0.183655  0.000211  0.11476  0.097759  0.000261  1.057465  0.0
H  H35  1  0.10715457  0.96888547  0.21057726  1  0.130854  -7.8e-05  0.108326  0.114429  -0.000107  1.039512  0.0
H  H36  1  0.20182896  0.51177711  0.43258982  1  0.117685  0.000125  0.117365  0.153272  0.000118  1.015436  0.0
H  H37  1  0.03536962  0.33061162  0.73384365  1  0.058644  0.000478  0.098839  0.106213  0.000269  1.01764  0.0
H  H38  1  0.92371410  0.23975401  0.85005666  1  0.085443  0.000763  0.112812  0.086735  0.000257  1.009871  0.001
H  H39  1  0.77946806  0.17687429  0.64687709  1  0.151235  0.000862  0.130626  0.120011  0.000365  0.964316  0.001
H  H40  1  0.87944420  0.27103019  0.52110979  1  0.130215  0.000357  0.119426  0.142775  0.000117  0.98574  0.0
H  H41  1  0.05654965  0.02083886  0.66496247  1  0.142581  0.000689  0.120113  0.150645  0.000359  1.017049  0.0
H  H42  1  0.22490882  0.18767693  0.29956824  1  0.154121  0.000758  0.119728  0.134148  0.000359  1.003078  0.001
H  H43  1  0.36035884  0.26436808  0.21145317  1  0.168164  0.002108  0.127724  0.107864  0.001047  0.9798  0.002
H  H44  1  0.46666814  0.30596187  0.44558370  1  0.107737  0.001965  0.110142  0.078357  0.000857  1.043869  0.001
H  H45  1  0.33225200  0.23689222  0.54305600  1  0.041777  0.001164  0.093887  0.092566  0.000601  1.044502  0.001
H  H46  1  0.62082477  0.81834232  0.98769269  1  0.140758  0.000486  0.11841  0.154923  0.000325  1.004798  0.0
H  H47  1  0.58637267  0.00255970  0.23563086  1  0.089888  3.3e-05  0.100806  0.105033  2.8e-05  1.010952  0.0
H  H48  1  0.55589058  0.13115135  0.30593421  1  0.079615  -3.2e-05  0.122955  0.097446  -7.5e-05  0.965788  0.0
H  H49  1  0.57848953  0.33018028  0.04966085  1  0.183644  0.000211  0.114744  0.097737  0.000261  1.057509  0.0
H  H50  1  0.60714600  0.21057331  0.96888288  1  0.130804  -7.8e-05  0.108315  0.114411  -0.000107  1.039507  0.0
H  H51  1  0.29816466  0.56741764  0.48822767  1  0.118133  0.000125  0.117367  0.153324  0.000118  1.015365  0.0
H  H52  1  0.46461883  0.26615426  0.66939357  1  0.058423  0.000478  0.098813  0.106201  0.000269  1.017596  0.0
H  H53  1  0.57628167  0.14994454  0.76025207  1  0.085559  0.000764  0.112781  0.086822  0.000258  1.009903  0.001
H  H54  1  0.72052930  0.35311796  0.82312445  1  0.15128  0.000861  0.130591  0.11996  0.000365  0.964515  0.001
H  H55  1  0.62055588  0.47888817  0.72897309  1  0.130178  0.000357  0.119424  0.142734  0.000117  0.985744  0.0
H  H56  1  0.44345129  0.33503731  0.97916911  1  0.142548  0.000689  0.120133  0.150664  0.000359  1.017179  0.0
H  H57  1  0.27509457  0.70043181  0.81231625  1  0.154107  0.000758  0.119694  0.134093  0.000359  1.003191  0.001
H  H58  1  0.13964752  0.78855577  0.73562664  1  0.168429  0.002106  0.127725  0.107777  0.001046  0.979996  0.002
H  H59  1  0.03333396  0.55442487  0.69404021  1  0.107914  0.001964  0.11017  0.078397  0.000857  1.043813  0.001
H  H60  1  0.16774657  0.45694308  0.76310929  1  0.041869  0.001164  0.093881  0.09254  0.000601  1.044474  0.001
H  H61  1  0.87917516  0.01230644  0.18165108  1  0.140831  0.000486  0.118392  0.154925  0.000325  1.005008  0.0
H  H62  1  0.91362370  0.76436773  0.99742915  1  0.090052  3.3e-05  0.100844  0.105027  2.8e-05  1.011151  0.0
H  H63  1  0.94410962  0.69406907  0.86883591  1  0.079608  -3.2e-05  0.122949  0.097429  -7.5e-05  0.965868  0.0
H  H64  1  0.92150832  0.95034381  0.66981435  1  0.183531  0.000211  0.114836  0.097841  0.000261  1.05743  0.0
H  H65  1  0.89284909  0.03111794  0.78942181  1  0.13077  -7.8e-05  0.108319  0.114423  -0.000107  1.039579  0.0
C  C66  1  0.85689419  0.59224463  0.68202430  1  1.619748  -0.002174  0.187209  0.532384  -0.001541  4.282819  -0.002
C  C67  1  0.88917984  0.59241288  0.58611041  1  0.503651  0.000389  0.07336  0.06561  0.000122  4.054185  0.0
C  C68  1  0.85023818  0.53835675  0.53936505  1  -0.269205  -0.000867  -0.090552  -0.228163  -0.000888  3.950092  0.0
C  C69  1  0.96826433  0.63992381  0.45320261  1  0.454569  5.1e-05  0.117845  0.112182  8e-06  4.023171  0.0
C  C70  1  0.03265085  0.69172635  0.38301068  1  0.041929  -0.001934  0.00268  0.081517  -0.002139  4.039536  -0.001
C  C71  1  0.02126239  0.70103271  0.28879125  1  -0.074484  0.002453  -0.094634  -0.183145  0.00166  3.981111  0.002
C  C72  1  0.08197969  0.75274280  0.22350753  1  0.53611  -0.001041  0.039006  0.090141  -0.001167  3.992837  -0.001
C  C73  1  0.16370225  0.78693650  0.33675508  1  0.495866  -0.00045  0.061218  0.117936  -0.000547  3.87821  0.0
C  C74  1  0.10682253  0.73493165  0.40697873  1  -0.014415  0.003183  -0.070954  -0.140072  0.002129  3.86542  0.003
C  C75  1  0.04745661  0.89662616  0.50566166  1  1.638223  -0.002607  0.197283  0.531223  -0.002195  4.279757  -0.003
C  C76  1  0.95209071  0.88856208  0.47859862  1  0.505109  0.000344  0.082356  0.076594  -0.000504  4.029082  0.0
C  C77  1  0.91225016  0.93155742  0.39572787  1  -0.262411  7.3e-05  -0.079149  -0.202411  -0.000198  3.904899  0.0
C  C78  1  0.81081789  0.83837360  0.51611267  1  0.446658  -0.00067  0.137323  0.14844  -0.001005  3.948815  0.0
C  C79  1  0.73279429  0.79372183  0.57097110  1  0.044318  -0.003067  0.00906  0.08417  -0.00355  4.016054  -0.002
C  C80  1  0.72438511  0.78544580  0.66556959  1  -0.003456  0.005268  -0.057457  -0.102197  0.003523  3.841165  0.004
C  C81  1  0.64818273  0.74385583  0.71485896  1  0.49501  -0.001442  0.069067  0.133269  -0.00182  3.854004  -0.001
C  C82  1  0.58866812  0.72078257  0.58374983  1  0.484795  -0.001249  0.040205  0.09207  -0.001442  3.969004  -0.001
C  C83  1  0.66308230  0.76016045  0.52987589  1  -0.006469  0.004533  -0.09503  -0.18599  0.003053  3.990926  0.004
C  C84  1  0.31682967  0.02424209  0.16617272  1  1.609342  -0.002582  0.192809  0.535861  -0.002019  4.260506  -0.003
C  C85  1  0.34931576  0.03335626  0.06861666  1  0.514791  0.000519  0.073886  0.069793  -5.2e-05  4.057584  0.0
C  C86  1  0.37621614  0.11326301  0.00336361  1  -0.265844  -0.000422  -0.087978  -0.223187  -0.000517  3.929189  0.0
C  C87  1  0.38457102  0.97394061  0.95226619  1  0.435203  0.0003  0.123485  0.12536  4.4e-05  3.995108  0.001
C  C88  1  0.40194697  0.90380496  0.90466179  1  -0.011934  -0.000527  0.001105  0.074396  -0.000658  4.041933  0.0
C  C89  1  0.41630640  0.92580253  0.80842991  1  -0.063006  0.000317  -0.085431  -0.170119  0.000213  3.949516  0.0
C  C90  1  0.43338321  0.85455525  0.76875682  1  0.572349  -0.000481  0.055221  0.118458  -0.000472  3.936581  0.0
C  C91  1  0.42160311  0.74336964  0.91107436  1  0.417312  0.000109  0.045613  0.092959  -7.8e-05  3.922425  0.0
C  C92  1  0.40505853  0.80999399  0.95655561  1  0.000339  0.000281  -0.078106  -0.136109  0.000128  3.899796  0.0
C  C93  1  0.64311000  0.31798009  0.40775510  1  1.619933  -0.002175  0.187386  0.532807  -0.001543  4.282743  -0.002
C  C94  1  0.61082234  0.41389723  0.40758163  1  0.50748  0.000389  0.073267  0.065336  0.000122  4.05469  0.0
C  C95  1  0.64975468  0.46064450  0.46164102  1  -0.272969  -0.000868  -0.090436  -0.228038  -0.000889  3.949955  0.0
C  C96  1  0.53172734  0.54680378  0.36006711  1  0.454553  5.1e-05  0.117791  0.112129  9e-06  4.023308  0.0
C  C97  1  0.46734069  0.61699445  0.30826182  1  0.043038  -0.001937  0.002811  0.081754  -0.002143  4.039441  -0.001
C  C98  1  0.47873365  0.71121425  0.29895690  1  -0.074601  0.002461  -0.094732  -0.183273  0.001664  3.980879  0.002
C  C99  1  0.41800740  0.77650000  0.24724990  1  0.536505  -0.001042  0.039222  0.090379  -0.001168  3.992465  -0.001
C  C100  1  0.33628025  0.66325001  0.21306124  1  0.495927  -0.000451  0.06107  0.117737  -0.000547  3.878376  0.0
C  C101  1  0.39316329  0.59302480  0.26506373  1  -0.014885  0.00319  -0.070956  -0.140175  0.002135  3.865549  0.003
C  C102  1  0.45254190  0.49434254  0.10337666  1  1.63819  -0.002607  0.197324  0.531252  -0.002195  4.279504  -0.003
C  C103  1  0.54790758  0.52139679  0.11143471  1  0.505106  0.000344  0.082352  0.076677  -0.000504  4.02901  0.0
C  C104  1  0.58775248  0.60426382  0.06842882  1  -0.262706  7.3e-05  -0.079146  -0.202477  -0.000198  3.904778  0.0
C  C105  1  0.68918296  0.48388456  0.16162143  1  0.446777  -0.000671  0.137358  0.148498  -0.001006  3.948786  0.0
C  C106  1  0.76721079  0.42902312  0.20627235  1  0.044228  -0.003067  0.009077  0.084199  -0.00355  4.015689  -0.002
C  C107  1  0.77562419  0.33442362  0.21455151  1  -0.000479  0.005267  -0.057556  -0.102439  0.003523  3.841374  0.004
C  C108  1  0.85182697  0.28513574  0.25614129  1  0.494478  -0.001443  0.069051  0.133367  -0.001821  3.854033  -0.001
C  C109  1  0.91133370  0.41624796  0.27921506  1  0.484649  -0.001248  0.040198  0.092026  -0.001441  3.968847  -0.001
C  C110  1  0.83692364  0.47012159  0.23983380  1  -0.006308  0.004532  -0.094956  -0.185863  0.003053  3.990897  0.004
C  C111  1  0.18318129  0.83383135  0.97576419  1  1.609501  -0.002583  0.192757  0.53592  -0.002019  4.260802  -0.003
C  C112  1  0.15070232  0.93138771  0.96664472  1  0.513915  0.000519  0.073954  0.069605  -5.3e-05  4.058002  0.0
C  C113  1  0.12378851  0.99663598  0.88673970  1  -0.265586  -0.00042  -0.088017  -0.223273  -0.000516  3.929272  0.0
C  C114  1  0.11544783  0.04773526  0.02605940  1  0.435126  0.000303  0.123489  0.125288  4.7e-05  3.995064  0.001
C  C115  1  0.09806275  0.09533978  0.09619352  1  -0.011952  -0.000527  0.001125  0.074554  -0.000657  4.04144  0.0
C  C116  1  0.08369840  0.19157625  0.07419711  1  -0.062955  0.000316  -0.085338  -0.170118  0.000213  3.949395  0.0
C  C117  1  0.06661270  0.23124537  0.14544466  1  0.572257  -0.000481  0.055132  0.118363  -0.000473  3.936493  0.0
C  C118  1  0.07839343  0.08892989  0.25662803  1  0.417843  0.000108  0.045605  0.092849  -7.8e-05  3.922124  0.0
C  C119  1  0.09495111  0.04345049  0.19000178  1  0.000142  0.00028  -0.07821  -0.136194  0.000127  3.89971  0.0
C  C120  1  0.14310266  0.40776001  0.31797611  1  1.619717  -0.002175  0.18726  0.532461  -0.001542  4.282905  -0.002
C  C121  1  0.11081886  0.40758138  0.41389485  1  0.507432  0.00039  0.073311  0.065398  0.000122  4.054531  0.0
C  C122  1  0.14976072  0.46163335  0.46064206  1  -0.272749  -0.000868  -0.090543  -0.228047  -0.000888  3.950095  0.0
C  C123  1  0.03172963  0.36006900  0.54680068  1  0.454464  5.1e-05  0.117826  0.112146  8e-06  4.02325  0.0
C  C124  1  0.96734239  0.30826715  0.61699180  1  0.042653  -0.001935  0.002804  0.081866  -0.00214  4.039514  -0.001
C  C125  1  0.97873524  0.29895189  0.71121089  1  -0.073732  0.002456  -0.094709  -0.183232  0.001661  3.981191  0.002
C  C126  1  0.91801432  0.24724863  0.77649616  1  0.535649  -0.00104  0.039175  0.090398  -0.001167  3.992687  -0.001
C  C127  1  0.83628740  0.21306246  0.66324801  1  0.495893  -0.00045  0.061197  0.117887  -0.000547  3.878183  0.0
C  C128  1  0.89316777  0.26506666  0.59302187  1  -0.014504  0.003186  -0.070999  -0.140307  0.002132  3.865498  0.003
C  C129  1  0.95254311  0.10337440  0.49433844  1  1.638287  -0.002607  0.197251  0.531195  -0.002195  4.279961  -0.003
C  C130  1  0.04790824  0.11143851  0.52139754  1  0.504952  0.000344  0.08233  0.076608  -0.000504  4.0291  0.0
C  C131  1  0.08775090  0.06844114  0.60426809  1  -0.262299  7.3e-05  -0.079084  -0.202413  -0.000198  3.904852  0.0
C  C132  1  0.18918100  0.16162837  0.48388311  1  0.446686  -0.000672  0.137404  0.148604  -0.001006  3.948757  0.0
C  C133  1  0.26721027  0.20627538  0.42902770  1  0.044173  -0.003066  0.009044  0.08415  -0.003549  4.015765  -0.002
C  C134  1  0.27561712  0.21455897  0.33442850  1  -0.000981  0.005268  -0.057483  -0.102244  0.003523  3.840982  0.004
C  C135  1  0.35182440  0.25614691  0.28514275  1  0.495457  -0.001444  0.069063  0.133222  -0.001821  3.853663  -0.001
C  C136  1  0.41133666  0.27921317  0.41625666  1  0.484985  -0.00125  0.040194  0.092074  -0.001441  3.968848  -0.001
C  C137  1  0.33692304  0.23983536  0.47012526  1  -0.006313  0.004532  -0.095  -0.185937  0.003053  3.991057  0.004
C  C138  1  0.68317478  0.97575789  0.83382530  1  1.609396  -0.002583  0.192762  0.535721  -0.002019  4.260769  -0.003
C  C139  1  0.65069284  0.96664103  0.93138057  1  0.514743  0.00052  0.073951  0.06998  -5.2e-05  4.057434  0.0
C  C140  1  0.62378972  0.88673289  0.99663021  1  -0.266011  -0.000421  -0.087956  -0.223266  -0.000516  3.928713  0.0
C  C141  1  0.61543624  0.02605665  0.04773179  1  0.435248  0.000301  0.123444  0.125318  4.5e-05  3.995045  0.001
C  C142  1  0.59805580  0.09618802  0.09534098  1  -0.012038  -0.000527  0.001199  0.074625  -0.000657  4.041517  0.0
C  C143  1  0.58369356  0.07419181  0.19157063  1  -0.063522  0.000316  -0.085375  -0.170181  0.000213  3.949206  0.0
C  C144  1  0.56661129  0.14543900  0.23124272  1  0.572799  -0.000481  0.055151  0.118436  -0.000472  3.936212  0.0
C  C145  1  0.57839618  0.25662536  0.08892802  1  0.417873  0.000108  0.045535  0.092806  -7.8e-05  3.922347  0.0
C  C146  1  0.59495106  0.18999977  0.04344986  1  0.000168  0.000281  -0.078158  -0.136141  0.000127  3.899813  0.0
C  C147  1  0.35689685  0.68203093  0.59224756  1  1.620378  -0.002176  0.187231  0.532405  -0.001542  4.28304  -0.002
C  C148  1  0.38917923  0.58611091  0.59242281  1  0.50679  0.00039  0.07344  0.065562  0.000122  4.054437  0.0
C  C149  1  0.35023886  0.53936276  0.53836743  1  -0.272691  -0.000868  -0.090674  -0.228278  -0.000888  3.949991  0.0
C  C150  1  0.46826271  0.45320143  0.63993351  1  0.454711  5.1e-05  0.117747  0.112037  8e-06  4.023205  0.0
C  C151  1  0.53265071  0.38301146  0.69173985  1  0.042694  -0.001935  0.002822  0.081924  -0.002141  4.039379  -0.001
C  C152  1  0.52126168  0.28879452  0.70104308  1  -0.073842  0.002457  -0.0946  -0.18312  0.001662  3.981032  0.002
C  C153  1  0.58198530  0.22350597  0.75274903  1  0.536217  -0.001041  0.039091  0.090097  -0.001167  3.992901  -0.001
C  C154  1  0.66371124  0.33675383  0.78694102  1  0.495902  -0.00045  0.061257  0.117997  -0.000547  3.878321  0.0
C  C155  1  0.60682754  0.40697699  0.73493585  1  -0.014741  0.003187  -0.071011  -0.140277  0.002132  3.86558  0.003
C  C156  1  0.54745640  0.50566073  0.89662539  1  1.638241  -0.002606  0.197267  0.531184  -0.002195  4.279751  -0.003
C  C157  1  0.45209356  0.47860104  0.88856410  1  0.505078  0.000344  0.08234  0.076648  -0.000504  4.02902  0.0
C  C158  1  0.41225013  0.39573263  0.93157229  1  -0.262476  7.4e-05  -0.079116  -0.202396  -0.000198  3.905029  0.0
C  C159  1  0.31082133  0.51611616  0.83837109  1  0.446601  -0.000671  0.13737  0.148632  -0.001006  3.948463  0.0
C  C160  1  0.23279568  0.57097689  0.79372555  1  0.044285  -0.003067  0.009076  0.084183  -0.00355  4.015829  -0.002
C  C161  1  0.22438230  0.66557503  0.78544480  1  -0.000633  0.005267  -0.057527  -0.102353  0.003523  3.841429  0.004
C  C162  1  0.14818334  0.71486786  0.74385140  1  0.4944  -0.001442  0.069037  0.133294  -0.001821  3.854133  -0.001
C  C163  1  0.08866739  0.58375397  0.72078854  1  0.485056  -0.001249  0.040221  0.092081  -0.001442  3.968575  -0.001
C  C164  1  0.16307956  0.52987763  0.76016847  1  -0.006588  0.004533  -0.094948  -0.185863  0.003054  3.990828  0.004
C  C165  1  0.81681901  0.16617265  0.02423754  1  1.609311  -0.002583  0.192667  0.535739  -0.002019  4.260907  -0.003
C  C166  1  0.84929997  0.06861636  0.03335490  1  0.51401  0.00052  0.073962  0.06986  -5.2e-05  4.057519  0.0
C  C167  1  0.87620843  0.00336659  0.11326130  1  -0.265685  -0.000421  -0.087988  -0.223251  -0.000516  3.929142  0.0
C  C168  1  0.88455718  0.95226749  0.97393846  1  0.435174  0.000302  0.12348  0.125312  4.6e-05  3.995167  0.001
C  C169  1  0.90193763  0.90466012  0.90380474  1  -0.011918  -0.000527  0.001147  0.074612  -0.000657  4.041591  0.0
C  C170  1  0.91630381  0.80842785  0.92579919  1  -0.0629  0.000316  -0.085384  -0.170142  0.000213  3.949615  0.0
C  C171  1  0.93338962  0.76875664  0.85455290  1  0.572227  -0.000481  0.05521  0.118443  -0.000473  3.936527  0.0
C  C172  1  0.92160192  0.91107616  0.74336810  1  0.417764  0.000108  0.045517  0.092829  -7.8e-05  3.92225  0.0
C  C173  1  0.90504767  0.95655425  0.80999387  1  8e-05  0.000281  -0.078203  -0.136226  0.000127  3.899725  0.0
S  S174  1  0.89622497  0.55969948  0.43063324  1  0.219484  -0.000571  0.100841  0.132348  -0.000816  2.924703  0.0
S  S175  1  0.79996931  0.90699317  0.40220399  1  0.252132  0.008268  0.114923  0.149337  0.004498  2.787301  0.005
S  S176  1  0.40835040  0.09081699  0.90235945  1  0.223814  0.00412  0.107087  0.14311  0.002183  2.856135  0.003
S  S177  1  0.60376114  0.56938129  0.44029145  1  0.219085  -0.000572  0.100838  0.132348  -0.000816  2.924408  0.0
S  S178  1  0.70003840  0.59778273  0.09298338  1  0.252269  0.008267  0.114921  0.149308  0.004497  2.787176  0.005
S  S179  1  0.09164802  0.09763708  0.90919013  1  0.223898  0.004133  0.107149  0.143168  0.002191  2.856269  0.003
S  S180  1  0.10377187  0.44029195  0.56937559  1  0.219027  -0.000571  0.100859  0.132327  -0.000816  2.924484  0.0
S  S181  1  0.20003262  0.09299920  0.59779039  1  0.252219  0.008271  0.114875  0.149222  0.0045  2.787269  0.005
S  S182  1  0.59165324  0.90918303  0.09763331  1  0.223874  0.004124  0.107094  0.143062  0.002186  2.856186  0.003
S  S183  1  0.39622487  0.43062519  0.55971301  1  0.219208  -0.000571  0.10087  0.13235  -0.000816  2.924625  0.0
S  S184  1  0.29997211  0.40221263  0.90700505  1  0.252076  0.008267  0.114832  0.149161  0.004498  2.787487  0.005
S  S185  1  0.90835165  0.90236417  0.09080912  1  0.223958  0.004128  0.10711  0.143103  0.002188  2.856175  0.003
N  N186  1  0.95647837  0.64807782  0.53715846  1  -1.169582  -0.001501  -0.312404  -0.318828  -0.001769  3.42817  0.0
N  N187  1  0.15137333  0.79618513  0.24649960  1  -1.234067  0.037012  -0.333701  -0.250138  0.024444  3.554711  0.033
N  N188  1  0.89443847  0.83577199  0.54537497  1  -1.164276  0.051665  -0.33176  -0.278744  0.035248  3.559392  0.046
N  N189  1  0.58137801  0.71243042  0.67471856  1  -1.228962  0.08207  -0.335318  -0.208964  0.054815  3.583017  0.072
N  N190  1  0.35370043  0.95610506  0.03865073  1  -1.195156  0.023809  -0.32637  -0.323231  0.016225  3.508359  0.021
N  N191  1  0.43644002  0.76486897  0.81890261  1  -1.213351  0.002492  -0.327613  -0.255243  0.001637  3.514484  0.004
N  N192  1  0.54352134  0.46284698  0.35191638  1  -1.169883  -0.001501  -0.312432  -0.318807  -0.001769  3.428474  0.0
N  N193  1  0.34860941  0.75350702  0.20381261  1  -1.234115  0.037114  -0.333641  -0.250004  0.024513  3.554666  0.033
N  N194  1  0.60556360  0.45462508  0.16422977  1  -1.164219  0.051667  -0.331733  -0.278718  0.035251  3.559411  0.046
N  N195  1  0.91862991  0.32527692  0.28757080  1  -1.229086  0.082076  -0.335264  -0.208949  0.054817  3.582778  0.072
N  N196  1  0.14633104  0.96135523  0.04389492  1  -1.19456  0.023878  -0.326363  -0.322897  0.016272  3.508242  0.021
N  N197  1  0.06354982  0.18110266  0.23512846  1  -1.213518  0.002482  -0.327586  -0.255191  0.001631  3.514384  0.004
N  N198  1  0.04352387  0.35191305  0.46284758  1  -1.170028  -0.001501  -0.312511  -0.318944  -0.00177  3.428678  0.0
N  N199  1  0.84861503  0.20381242  0.75350398  1  -1.234055  0.037045  -0.333747  -0.250169  0.024468  3.554758  0.033
N  N200  1  0.10556242  0.16423139  0.45462161  1  -1.164325  0.051669  -0.331817  -0.278796  0.035252  3.559568  0.046
N  N201  1  0.41862803  0.28756811  0.32528773  1  -1.229491  0.082077  -0.335275  -0.208912  0.054818  3.582633  0.072
N  N202  1  0.64631163  0.04389159  0.96134848  1  -1.195028  0.023834  -0.326403  -0.323185  0.016242  3.508423  0.021
N  N203  1  0.56355047  0.23512585  0.18110096  1  -1.213349  0.002487  -0.327517  -0.255224  0.001634  3.514201  0.004
N  N204  1  0.45648017  0.53715915  0.64808203  1  -1.169981  -0.001501  -0.312439  -0.318851  -0.001769  3.428502  0.0
N  N205  1  0.65138079  0.24649608  0.79619126  1  -1.234431  0.037073  -0.333707  -0.250088  0.024485  3.554711  0.033
N  N206  1  0.39444154  0.54537490  0.83576887  1  -1.164228  0.051664  -0.33171  -0.278743  0.035249  3.559136  0.046
N  N207  1  0.08137771  0.67472729  0.71242451  1  -1.229065  0.082075  -0.335325  -0.208905  0.054817  3.582702  0.072
N  N208  1  0.85367861  0.03865105  0.95610366  1  -1.194491  0.023852  -0.32637  -0.32313  0.016255  3.508186  0.021
N  N209  1  0.93645161  0.81890419  0.76486776  1  -1.213398  0.002485  -0.327605  -0.255236  0.001633  3.514417  0.004
O  O210  1  0.88933460  0.65427778  0.71489413  1  -1.111821  0.103764  -0.33488  -0.54604  0.066345  2.381449  0.093
O  O211  1  0.80054146  0.53377609  0.72288963  1  -1.143255  0.029204  -0.32907  -0.510939  0.01827  2.048189  0.025
O  O212  1  0.06469267  0.84808655  0.58986487  1  -1.098387  0.120835  -0.323457  -0.530255  0.077027  2.334717  0.109
O  O213  1  0.10160456  0.94786838  0.45082476  1  -1.146728  0.027923  -0.305029  -0.486974  0.017399  2.11823  0.024
O  O214  1  0.28318562  0.94412747  0.21038198  1  -1.097537  0.110021  -0.327565  -0.528427  0.069837  2.336637  0.098
O  O215  1  0.32390087  0.09000031  0.19858092  1  -1.133748  0.03405  -0.315182  -0.504395  0.021416  2.077062  0.028
O  O216  1  0.61067008  0.28509904  0.34573052  1  -1.111606  0.103775  -0.334952  -0.546123  0.066351  2.381502  0.093
O  O217  1  0.69946919  0.27711780  0.46621839  1  -1.143534  0.02921  -0.329161  -0.511152  0.018274  2.048135  0.025
O  O218  1  0.43531356  0.41014045  0.15192362  1  -1.098358  0.120816  -0.323475  -0.530356  0.077017  2.334759  0.109
O  O219  1  0.39838718  0.54917459  0.05213373  1  -1.146798  0.027922  -0.305105  -0.487094  0.017398  2.118032  0.024
O  O220  1  0.21681388  0.78961315  0.05588316  1  -1.097861  0.110054  -0.327575  -0.528455  0.069856  2.336607  0.098
O  O221  1  0.17611184  0.80142660  0.91000697  1  -1.133488  0.034057  -0.31513  -0.504354  0.02142  2.077124  0.028
O  O222  1  0.11066765  0.34572766  0.28510576  1  -1.111692  0.103761  -0.334917  -0.546085  0.066343  2.381687  0.093
O  O223  1  0.19946021  0.46622861  0.27711380  1  -1.143335  0.029208  -0.329066  -0.510907  0.018273  2.048089  0.025
O  O224  1  0.93531170  0.15191685  0.41013548  1  -1.098444  0.120838  -0.323428  -0.530235  0.07703  2.3347  0.109
O  O225  1  0.89839507  0.05213289  0.54917249  1  -1.146776  0.027918  -0.305051  -0.48701  0.017395  2.118368  0.024
O  O226  1  0.71681330  0.05587381  0.78961399  1  -1.097625  0.110035  -0.327526  -0.528314  0.069846  2.336667  0.098
O  O227  1  0.67610431  0.90999897  0.80141859  1  -1.133786  0.034053  -0.315209  -0.50441  0.021418  2.077145  0.028
O  O228  1  0.38933487  0.71490984  0.65427484  1  -1.112026  0.103775  -0.334958  -0.546015  0.066352  2.381401  0.093
O  O229  1  0.30054495  0.72289344  0.53377653  1  -1.143261  0.029203  -0.329034  -0.51091  0.01827  2.04837  0.025
O  O230  1  0.56468682  0.58986554  0.84808547  1  -1.098407  0.120825  -0.323426  -0.530251  0.077022  2.334658  0.109
O  O231  1  0.60160654  0.45082377  0.94786800  1  -1.146733  0.027919  -0.305075  -0.487032  0.017396  2.118171  0.024
O  O232  1  0.78318455  0.21038667  0.94411921  1  -1.097872  0.110054  -0.327545  -0.528365  0.069856  2.336633  0.098
O  O233  1  0.82388632  0.19857946  0.08999362  1  -1.13344  0.034053  -0.315056  -0.504291  0.021418  2.077267  0.028
