# generated using pymatgen
data_Al2H9C24S6(NO4)3
_symmetry_space_group_name_H-M   'P 1'
_cell_length_a   4.01433716
_cell_length_b   20.09288223
_cell_length_c   20.08891088
_cell_angle_alpha   120.00652059
_cell_angle_beta   90.00331113
_cell_angle_gamma   89.99186352
_symmetry_Int_Tables_number   1
_chemical_formula_structural   Al2H9C24S6(NO4)3
_chemical_formula_sum   'Al2 H9 C24 S6 N3 O12'
_cell_volume   1403.18380704
_cell_formula_units_Z   1
loop_
 _symmetry_equiv_pos_site_id
 _symmetry_equiv_pos_as_xyz
  1  'x, y, z'
loop_
 _atom_site_type_symbol
 _atom_site_label
 _atom_site_symmetry_multiplicity
 _atom_site_fract_x
 _atom_site_fract_y
 _atom_site_fract_z
 _atom_site_occupancy
 _atom_site_pbe_bader_charge
 _atom_site_pbe_bader_spin_density
 _atom_site_pbe_cm5_charge
 _atom_site_pbe_ddec_charge
 _atom_site_pbe_ddec_spin_density
 _atom_site_pbe_ddec_sum_bond_order
 _atom_site_pbe_magmom
Al  Al0  1  0.08163190  0.50001304  0.50002819  1  2.50416  0  0.418222  1.597341  0  2.556518  0
Al  Al1  1  0.99614709  0.16666219  0.83331762  1  2.504012  0  0.430718  1.600167  0  2.57161  0
H  H2  1  0.77403069  0.18952170  0.62942200  1  0.06807  0  0.11572  0.145263  0  0.968849  0
H  H3  1  0.77407402  0.93992877  0.81047941  1  0.114753  0  0.115687  0.145115  0  0.969068  0
H  H4  1  0.77393342  0.37054690  0.06007711  1  0.091475  0  0.115729  0.145222  0  0.969009  0
H  H5  1  0.23679965  0.51587286  0.76836253  1  0.397898  0  0.307006  0.299478  0  0.93961  0
H  H6  1  0.22802331  0.52464982  0.68689555  1  0.49637  0  0.310039  0.322835  0  0.94246  0
H  H7  1  0.23705776  0.75244865  0.48410853  1  0.425457  0  0.30712  0.299397  0  0.939959  0
H  H8  1  0.22807820  0.66221948  0.47532749  1  0.457515  0  0.30995  0.322668  0  0.942407  0
H  H9  1  0.23706045  0.23165970  0.24752767  1  0.443749  0  0.30691  0.299311  0  0.939708  0
H  H10  1  0.22816936  0.31311770  0.33779107  1  0.496682  0  0.309961  0.322737  0  0.942245  0
C  C11  1  0.57962917  0.44140234  0.38219511  1  1.494798  0  0.250109  0.656967  0  4.115492  0
C  C12  1  0.57965373  0.44079264  0.55863258  1  1.527139  0  0.250056  0.656943  0  4.115905  0
C  C13  1  0.57956306  0.61783885  0.55925123  1  1.560239  0  0.249893  0.656279  0  4.116526  0
C  C14  1  0.49789296  0.22773966  0.77626291  1  1.605762  0  0.283001  0.693025  0  4.047427  0
C  C15  1  0.49803881  0.04853712  0.77222398  1  1.609048  0  0.282985  0.692838  0  4.048221  0
C  C16  1  0.49795391  0.22371258  0.95143923  1  1.611067  0  0.282879  0.693135  0  4.048007  0
C  C17  1  0.40096603  0.42246860  0.66922348  1  0.524253  0  0.098983  0.266988  0  4.144037  0
C  C18  1  0.65002316  0.24481446  0.66191497  1  0.139566  0  -0.102758  -0.166223  0  4.000799  0
C  C19  1  0.55311070  0.39699544  0.59754465  1  -0.114245  0  -0.043895  -0.263927  0  3.959367  0
C  C20  1  0.50755377  0.27010176  0.73294015  1  -0.245752  0  -0.019821  -0.114396  0  3.9635  0
C  C21  1  0.62151550  0.30116196  0.63926517  1  -0.130071  0  -0.025914  0.003701  0  4.119881  0
C  C22  1  0.45137729  0.36735283  0.69302074  1  -0.171259  0  -0.038455  -0.139926  0  4.068565  0
C  C23  1  0.40103386  0.74674267  0.57752908  1  0.494828  0  0.099011  0.266954  0  4.143218  0
C  C24  1  0.65016289  0.91711845  0.75516802  1  0.041952  0  -0.102751  -0.166011  0  4.001241  0
C  C25  1  0.55309394  0.70055434  0.60301846  1  -0.139883  0  -0.043878  -0.263561  0  3.959374  0
C  C26  1  0.50768126  0.96284554  0.72988413  1  -0.195641  0  -0.019863  -0.114308  0  3.963537  0
C  C27  1  0.62158455  0.83810986  0.69882872  1  -0.166431  0  -0.025965  0.003573  0  4.119953  0
C  C28  1  0.45150100  0.82567267  0.63263126  1  -0.105298  0  -0.038485  -0.140024  0  4.068369  0
C  C29  1  0.40095934  0.33078933  0.25325506  1  0.536553  0  0.098995  0.267158  0  4.143527  0
C  C30  1  0.65005221  0.33806395  0.08288854  1  0.068503  0  -0.102873  -0.166174  0  4.001031  0
C  C31  1  0.55310390  0.40246952  0.29945937  1  -0.067357  0  -0.043776  -0.26384  0  3.958165  0
C  C32  1  0.50759518  0.26704489  0.03715292  1  -0.203346  0  -0.019754  -0.114564  0  3.962908  0
C  C33  1  0.62144038  0.36072900  0.16189539  1  -0.139372  0  -0.025963  0.003493  0  4.120691  0
C  C34  1  0.45145835  0.30697181  0.17432863  1  -0.188276  0  -0.038487  -0.140019  0  4.069007  0
S  S35  1  0.74308402  0.30711387  0.56030510  1  0.228471  0  0.062126  0.104302  0  2.838025  0
S  S36  1  0.33382710  0.36115567  0.77240743  1  0.220971  0  0.070547  0.114113  0  2.813652  0
S  S37  1  0.74305773  0.75321856  0.69291134  1  0.232653  0  0.062136  0.104209  0  2.83812  0
S  S38  1  0.33401822  0.91123482  0.63879253  1  0.227056  0  0.070596  0.11408  0  2.813149  0
S  S39  1  0.74296944  0.43968916  0.24678052  1  0.228368  0  0.062182  0.104479  0  2.838104  0
S  S40  1  0.33394995  0.22758748  0.08876644  1  0.22737  0  0.070623  0.114254  0  2.81383  0
N  N41  1  0.22903328  0.48990242  0.71029162  1  -1.210215  0  -0.582627  -0.589372  0  3.334287  0
N  N42  1  0.22913391  0.72037980  0.51007577  1  -1.206668  0  -0.582683  -0.589159  0  3.334029  0
N  N43  1  0.22915772  0.28972053  0.27961997  1  -1.253343  0  -0.582417  -0.589116  0  3.334171  0
O  O44  1  0.82084380  0.58506745  0.57377631  1  -1.262937  0  -0.250706  -0.6042  0  2.35023  0
O  O45  1  0.82089669  0.48869927  0.41496640  1  -1.262393  0  -0.250713  -0.604407  0  2.349856  0
O  O46  1  0.82094351  0.42627174  0.51133877  1  -1.264271  0  -0.250647  -0.604124  0  2.349837  0
O  O47  1  0.35610380  0.58192191  0.50678302  1  -1.262828  0  -0.250037  -0.613894  0  2.352  0
O  O48  1  0.35624044  0.49327181  0.57520027  1  -1.256528  0  -0.250236  -0.614661  0  2.351997  0
O  O49  1  0.35622916  0.42485062  0.41811028  1  -1.25901  0  -0.25032  -0.614754  0  2.352493  0
O  O50  1  0.73057788  0.17544800  0.91662520  1  -1.252797  0  -0.235097  -0.594366  0  2.342152  0
O  O51  1  0.73055766  0.24118540  0.82452555  1  -1.241734  0  -0.235301  -0.594331  0  2.341613  0
O  O52  1  0.73056147  0.08335081  0.75878696  1  -1.245012  0  -0.235074  -0.593981  0  2.34259  0
O  O53  1  0.25902287  0.23828449  0.91901022  1  -1.242595  0  -0.230781  -0.585434  0  2.337372  0
O  O54  1  0.25906618  0.08096513  0.81924358  1  -1.248023  0  -0.230997  -0.585646  0  2.336481  0
O  O55  1  0.25900830  0.18073027  0.76168450  1  -1.243457  0  -0.230906  -0.585607  0  2.336811  0
