# generated using pymatgen
data_CuH18C24(N2O3)2
_symmetry_space_group_name_H-M   'P 1'
_cell_length_a   10.81427180
_cell_length_b   10.81455270
_cell_length_c   12.59665366
_cell_angle_alpha   68.53994008
_cell_angle_beta   68.54233825
_cell_angle_gamma   82.86079723
_symmetry_Int_Tables_number   1
_chemical_formula_structural   CuH18C24(N2O3)2
_chemical_formula_sum   'Cu2 H36 C48 N8 O12'
_cell_volume   1275.95637019
_cell_formula_units_Z   2
loop_
 _symmetry_equiv_pos_site_id
 _symmetry_equiv_pos_as_xyz
  1  'x, y, z'
loop_
 _atom_site_type_symbol
 _atom_site_label
 _atom_site_symmetry_multiplicity
 _atom_site_fract_x
 _atom_site_fract_y
 _atom_site_fract_z
 _atom_site_occupancy
 _atom_site_hle17_ddec_charge
 _atom_site_hle17_ddec_spin_density
 _atom_site_hle17_ddec_sum_bond_order
 _atom_site_hle17_magmom
 _atom_site_hse06_10hf_ddec_charge
 _atom_site_hse06_10hf_ddec_spin_density
 _atom_site_hse06_10hf_ddec_sum_bond_order
 _atom_site_hse06_10hf_magmom
 _atom_site_hse06_ddec_charge
 _atom_site_hse06_ddec_spin_density
 _atom_site_hse06_ddec_sum_bond_order
 _atom_site_hse06_magmom
 _atom_site_pbe_cm5_charge
 _atom_site_pbe_ddec_charge
 _atom_site_pbe_ddec_spin_density
 _atom_site_pbe_ddec_sum_bond_order
 _atom_site_pbe_magmom
Cu  Cu0  1  0.49999652  0.00000274  0.99999795  1  0.820038  -0.722935  1.81117  -0.49  0.792317  -0.796778  2.195663  -0.598  0.883042  -0.873379  2.123477  -0.679  0.747534  0.736294  -0.743819  2.246722  -0.548
Cu  Cu1  1  0.99999726  0.49999985  0.50000394  1  0.820098  0.722868  1.81091  0.49  0.792299  0.796759  2.195472  0.598  0.883127  0.873369  2.123186  0.679  0.74745  0.736246  0.743776  2.246521  0.548
H  H2  1  0.11403045  0.81564046  0.97274202  1  0.121208  -2.1e-05  0.92599  0.0  0.131561  -1e-06  0.982188  0.0  0.136159  2e-06  0.978256  0.0  0.112695  0.128235  5e-06  0.985029  0.0
H  H3  1  0.18434925  0.88596767  0.52727388  1  0.121228  5e-06  0.925754  0.0  0.131567  1e-06  0.98199  0.0  0.136166  -2e-06  0.978057  0.0  0.112669  0.128235  -5e-06  0.984833  0.0
H  H4  1  0.88596865  0.18433255  0.02727389  1  0.121209  -9e-06  0.925927  0.0  0.131517  -1e-06  0.982182  0.0  0.136117  2e-06  0.978249  0.0  0.112632  0.128192  5e-06  0.985026  0.0
H  H5  1  0.81564320  0.11403631  0.47272395  1  0.121198  5e-06  0.925697  0.0  0.131532  1e-06  0.981943  0.0  0.136131  -2e-06  0.978009  0.0  0.112651  0.128198  -5e-06  0.984791  0.0
H  H6  1  0.86763199  0.78971583  0.04803447  1  0.116896  -0.000179  0.971603  0.0  0.12361  -7.8e-05  1.035027  0.0  0.127456  -4.4e-05  1.033231  0.0  0.107218  0.120803  -9.1e-05  1.036686  0.0
H  H7  1  0.21026358  0.13236536  0.45198156  1  0.116931  0.000171  0.97148  0.0  0.123637  7.8e-05  1.034915  0.0  0.127485  4.3e-05  1.03312  0.0  0.107243  0.120822  9.1e-05  1.036579  0.0
H  H8  1  0.13237019  0.21026002  0.95197558  1  0.116902  -0.000174  0.9714  0.0  0.123612  -7.8e-05  1.034837  0.0  0.127459  -4.3e-05  1.033043  0.0  0.10721  0.1208  -9.1e-05  1.0365  0.0
H  H9  1  0.78973376  0.86763648  0.54801698  1  0.116925  0.000174  0.971449  0.0  0.123631  7.9e-05  1.034894  0.0  0.127479  4.3e-05  1.0331  0.0  0.10725  0.12082  9.1e-05  1.036558  0.0
H  H10  1  0.72899640  0.85307035  0.23351405  1  0.102046  4.7e-05  0.955841  0.0  0.108654  2.2e-05  1.021141  0.0  0.11176  2.1e-05  1.019169  0.0  0.120211  0.106445  2.3e-05  1.022725  0.0
H  H11  1  0.14691075  0.27099633  0.26649229  1  0.102169  -6.1e-05  0.955679  0.0  0.10874  -2.2e-05  1.02099  0.0  0.11186  -2.2e-05  1.019004  0.0  0.120265  0.106528  -2.3e-05  1.022575  0.0
H  H12  1  0.27099712  0.14691272  0.76649091  1  0.102133  6.4e-05  0.955738  0.0  0.108732  2.2e-05  1.021005  0.0  0.111851  2.2e-05  1.019018  0.0  0.12026  0.106519  2.3e-05  1.022588  0.0
H  H13  1  0.85308848  0.72900345  0.73350552  1  0.102146  -5.4e-05  0.955651  0.0  0.108763  -2.2e-05  1.02092  0.0  0.111857  -2.1e-05  1.018961  0.0  0.120282  0.106552  -2.3e-05  1.022511  0.0
H  H14  1  0.33727311  0.24298601  0.97730058  1  0.096082  -0.000945  0.922557  -0.002  0.104221  -0.000816  0.983669  -0.001  0.107103  -0.000608  0.980881  -0.001  0.124927  0.101716  -0.000933  0.986282  -0.001
H  H15  1  0.75701159  0.66273249  0.52269635  1  0.096075  0.000942  0.922534  0.002  0.104185  0.000816  0.983683  0.001  0.107084  0.000608  0.980878  0.001  0.124917  0.101686  0.000934  0.986294  0.001
H  H16  1  0.66272547  0.75702269  0.02268744  1  0.09601  -0.000945  0.922693  -0.002  0.104163  -0.000816  0.983795  -0.001  0.107042  -0.000608  0.981012  -0.001  0.124919  0.101662  -0.000933  0.986403  -0.001
H  H17  1  0.24298367  0.33726647  0.47730854  1  0.096023  0.000947  0.922725  0.002  0.104181  0.000816  0.983826  0.001  0.107059  0.000608  0.981046  0.001  0.124955  0.101692  0.000933  0.986422  0.001
H  H18  1  0.31801998  0.44553637  0.80561768  1  0.112774  -0.000466  0.92694  0.0  0.129745  -0.000517  0.973151  0.0  0.132802  -0.000383  0.972833  0.0  0.11607  0.127473  -0.000646  0.973704  -0.001
H  H19  1  0.55446506  0.68199058  0.69437492  1  0.112778  0.000467  0.926804  0.0  0.129748  0.000518  0.973017  0.0  0.132805  0.000383  0.9727  0.0  0.116082  0.127474  0.000647  0.973569  0.001
H  H20  1  0.68198370  0.55447514  0.19436783  1  0.112764  -0.000471  0.927003  0.0  0.129727  -0.000518  0.973221  0.0  0.132779  -0.000383  0.972905  0.0  0.116076  0.127456  -0.000647  0.973777  -0.001
H  H21  1  0.44552815  0.31800649  0.30563441  1  0.112723  0.000458  0.926846  0.0  0.129681  0.000517  0.973083  0.0  0.132732  0.000383  0.972768  0.0  0.116074  0.127412  0.000647  0.973635  0.001
H  H22  1  0.61000174  0.27151866  0.55973633  1  0.120226  -0.000398  0.957875  0.0  0.130657  -0.000427  1.016041  0.0  0.134216  -0.00031  1.014412  0.0  0.111872  0.127994  -0.000515  1.017455  -0.001
H  H23  1  0.72847918  0.38999808  0.94026596  1  0.120326  0.000394  0.958055  0.0  0.130797  0.000426  1.016132  0.0  0.134328  0.00031  1.014537  0.0  0.111949  0.128139  0.000515  1.01755  0.001
H  H24  1  0.39001266  0.72848659  0.44025649  1  0.120266  -0.000398  0.95797  0.0  0.130667  -0.000427  1.016149  0.0  0.134226  -0.00031  1.014521  0.0  0.111878  0.12801  -0.000515  1.01756  -0.001
H  H25  1  0.27151804  0.60999985  0.05974181  1  0.120228  0.00039  0.958066  0.0  0.130625  0.000427  1.01625  0.0  0.134182  0.000309  1.01462  0.0  0.111869  0.12797  0.000515  1.017659  0.001
H  H26  1  0.61552682  0.07886564  0.73953650  1  0.086088  -0.000829  0.954229  -0.002  0.093346  -0.000682  1.018784  -0.001  0.095029  -0.00051  1.017572  -0.001  0.119428  0.091885  -0.000859  1.019925  -0.001
H  H27  1  0.92112779  0.38446588  0.76047684  1  0.086141  0.000835  0.954243  0.002  0.093407  0.000682  1.01879  0.001  0.095089  0.00051  1.017583  0.001  0.119418  0.09195  0.00086  1.019927  0.001
H  H28  1  0.38448282  0.92114377  0.26045968  1  0.086124  -0.000823  0.954167  -0.002  0.093363  -0.000682  1.018738  -0.001  0.095045  -0.000509  1.01753  -0.001  0.119445  0.091905  -0.000859  1.019876  -0.001
H  H29  1  0.07886953  0.61553403  0.23953027  1  0.086098  0.000818  0.954317  0.002  0.0934  0.000682  1.01883  0.001  0.095081  0.00051  1.017625  0.001  0.11942  0.091943  0.00086  1.019971  0.001
H  H30  1  0.34807860  0.50504492  0.56312348  1  0.104211  0.000325  0.909963  0.0  0.125958  0.000138  0.962432  0.0  0.126788  0.000133  0.962588  0.0  0.107866  0.125358  0.000141  0.962379  0.0
H  H31  1  0.49496528  0.65192514  0.93686945  1  0.104232  -0.000331  0.910075  0.0  0.125974  -0.000138  0.962502  0.0  0.126806  -0.000133  0.962654  0.0  0.107866  0.125375  -0.000142  0.962442  0.0
H  H32  1  0.65193790  0.49496417  0.43685950  1  0.104263  0.000323  0.910202  0.0  0.126115  0.000138  0.962529  0.0  0.126951  0.000133  0.962672  0.0  0.107954  0.125518  0.000141  0.962476  0.0
H  H33  1  0.50503491  0.34807171  0.06314089  1  0.104175  -0.000332  0.910158  0.0  0.125964  -0.000138  0.962576  0.0  0.126797  -0.000133  0.962726  0.0  0.107891  0.125366  -0.000142  0.962522  0.0
H  H34  1  0.46560462  0.58569547  0.58110504  1  0.081307  0.000265  0.928535  0.0  0.101284  8.5e-05  0.986617  0.0  0.102261  9.6e-05  0.986344  0.0  0.100844  0.100705  7.7e-05  0.986695  0.0
H  H35  1  0.41429917  0.53441008  0.91889173  1  0.081304  -0.000259  0.928491  0.0  0.101268  -8.5e-05  0.986568  0.0  0.102224  -9.5e-05  0.986322  0.0  0.100798  0.100686  -7.6e-05  0.986649  0.0
H  H36  1  0.53441360  0.41430759  0.41887773  1  0.081383  0.000259  0.928486  0.0  0.101322  8.5e-05  0.986623  0.0  0.102276  9.6e-05  0.986379  0.0  0.100827  0.100763  7.7e-05  0.986683  0.0
H  H37  1  0.58570205  0.46558774  0.08111797  1  0.081342  -0.000273  0.928462  0.0  0.101307  -8.5e-05  0.986575  0.0  0.102262  -9.5e-05  0.986328  0.0  0.100815  0.100755  -7.6e-05  0.98663  0.0
C  C38  1  0.25810113  0.90977824  0.05915326  1  0.633089  0.004969  3.90444  0.008  0.591286  0.000926  4.206732  0.004  0.626921  0.001319  4.202801  0.004  0.194463  0.567297  0.000539  4.208322  0.004
C  C39  1  0.09024523  0.74188894  0.44084827  1  0.633393  -0.004955  3.903993  -0.008  0.591547  -0.000925  4.206342  -0.004  0.627181  -0.001318  4.202421  -0.004  0.194615  0.567557  -0.000539  4.207893  -0.004
C  C40  1  0.74189582  0.09021467  0.94084905  1  0.633019  0.004992  3.904404  0.009  0.591211  0.000926  4.20674  0.004  0.626846  0.001317  4.202813  0.004  0.19441  0.567226  0.000538  4.208315  0.004
C  C41  1  0.90975811  0.25811370  0.55914890  1  0.633347  -0.004966  3.904087  -0.008  0.591514  -0.000924  4.206449  -0.004  0.627129  -0.001317  4.202523  -0.004  0.19461  0.567537  -0.00054  4.208008  -0.004
C  C42  1  0.02910746  0.92158544  0.21355250  1  0.08862  0.001796  3.617365  0.001  0.071001  0.000212  3.86296  0.0  0.080306  1.1e-05  3.873694  0.0  0.115152  0.065094  0.000382  3.855762  0.0
C  C43  1  0.07841435  0.97089192  0.28644533  1  0.088792  -0.001801  3.617171  -0.002  0.071  -0.000208  3.862922  0.0  0.080302  -2.5e-05  3.873654  0.0  0.115226  0.065071  -0.000382  3.85571  0.0
C  C44  1  0.97088768  0.07841246  0.78644324  1  0.088745  0.001793  3.617116  0.001  0.071062  0.000214  3.862791  0.0  0.080367  1e-05  3.873526  0.0  0.115204  0.065145  0.000382  3.855594  0.0
C  C45  1  0.92157614  0.02911215  0.71355627  1  0.08854  -0.001799  3.617467  -0.002  0.070887  -0.000209  3.863154  0.0  0.080168  -1.4e-05  3.873879  0.0  0.11515  0.064974  -0.000382  3.855956  0.0
C  C46  1  0.10948649  0.88875629  0.11195897  1  -0.103804  -0.007553  3.729467  -0.008  -0.085845  -0.004745  3.967288  -0.005  -0.093947  -0.003459  3.98545  -0.004  -0.006921  -0.080949  -0.00561  3.955068  -0.006
C  C47  1  0.11125101  0.89051360  0.38804023  1  -0.103932  0.007558  3.729342  0.008  -0.085915  0.00474  3.967191  0.005  -0.094015  0.003467  3.985353  0.004  -0.006962  -0.080977  0.005608  3.954899  0.006
C  C48  1  0.89050784  0.11124371  0.88804827  1  -0.103866  -0.007572  3.729369  -0.008  -0.085925  -0.004745  3.967256  -0.005  -0.094028  -0.003459  3.985417  -0.004  -0.00699  -0.08102  -0.00561  3.955025  -0.006
C  C49  1  0.88874253  0.10949233  0.61195742  1  -0.103758  0.00756  3.729298  0.008  -0.085888  0.004738  3.967261  0.005  -0.093923  0.003462  3.985343  0.004  -0.006921  -0.081005  0.005607  3.955038  0.006
C  C50  1  0.05164552  0.83825927  0.05324282  1  -0.054541  -0.000348  3.717183  0.0  -0.091691  -0.00057  3.982095  -0.001  -0.088196  -0.00045  3.997655  -0.001  -0.083128  -0.093253  -0.00042  3.971036  -0.001
C  C51  1  0.16173843  0.94835527  0.44675985  1  -0.0545  0.000364  3.717117  0.0  -0.091622  0.000572  3.981986  0.001  -0.088131  0.00044  3.997554  0.001  -0.083105  -0.09319  0.000421  3.970898  0.001
C  C52  1  0.94836017  0.16172934  0.94675490  1  -0.054556  -0.000357  3.717592  0.0  -0.091651  -0.000569  3.982495  -0.001  -0.088159  -0.000449  3.998058  -0.001  -0.083024  -0.093216  -0.00042  3.971442  -0.001
C  C53  1  0.83825688  0.05164564  0.55323885  1  -0.054435  0.000371  3.71715  0.0  -0.0915  0.000572  3.982004  0.001  -0.088028  0.000446  3.997554  0.001  -0.083077  -0.09305  0.000421  3.970928  0.001
C  C54  1  0.91413356  0.82347727  0.09607200  1  -0.089743  0.001567  3.784044  0.001  -0.105989  0.000719  4.049767  0.001  -0.109823  0.000511  4.068699  0.0  -0.086048  -0.103783  0.000914  4.037194  0.001
C  C55  1  0.17650704  0.08585933  0.40393623  1  -0.089805  -0.001541  3.78414  -0.001  -0.106048  -0.000719  4.049864  -0.001  -0.109886  -0.000503  4.068805  0.0  -0.086099  -0.103838  -0.000915  4.037281  -0.001
C  C56  1  0.08585678  0.17650096  0.90393948  1  -0.089584  0.001568  3.783952  0.001  -0.105829  0.00072  4.049659  0.001  -0.109664  0.000509  4.068596  0.0  -0.086008  -0.10362  0.000915  4.037077  0.001
C  C57  1  0.82348941  0.91414454  0.59606433  1  -0.089736  -0.001555  3.784337  -0.001  -0.105982  -0.000721  4.050068  -0.001  -0.109818  -0.000506  4.069005  0.0  -0.086031  -0.103777  -0.000915  4.037487  -0.001
C  C58  1  0.83682240  0.85848052  0.19520320  1  -0.005301  -0.001022  3.602034  -0.001  -0.048253  -0.000184  3.866015  0.0  -0.042968  -0.000188  3.879194  0.0  0.02498  -0.051527  4e-05  3.857533  0.0
C  C59  1  0.14151223  0.16317465  0.30480021  1  -0.005487  0.001041  3.601922  0.001  -0.048396  0.000186  3.865918  0.0  -0.043117  0.00018  3.879074  0.0  0.02492  -0.051674  -3.9e-05  3.857432  0.0
C  C60  1  0.16317539  0.14150935  0.80479663  1  -0.005476  -0.001063  3.601904  -0.001  -0.048391  -0.000183  3.86588  0.0  -0.043107  -0.00019  3.879029  0.0  0.024937  -0.051662  3.9e-05  3.857384  0.0
C  C61  1  0.85848739  0.83683405  0.69519304  1  -0.005558  0.001027  3.602156  0.001  -0.048525  0.000183  3.866208  0.0  -0.043224  0.000186  3.879373  0.0  0.02484  -0.051798  -3.9e-05  3.857718  0.0
C  C62  1  0.39629481  0.25538042  0.88282187  1  0.127871  0.007365  3.697211  0.008  0.098285  0.00063  3.958013  0.001  0.107637  0.001658  3.976293  0.003  0.048784  0.09215  -0.000177  3.946385  0.001
C  C63  1  0.74461822  0.60370548  0.61718058  1  0.127908  -0.007362  3.697337  -0.008  0.098323  -0.000629  3.958129  -0.001  0.10766  -0.001661  3.976414  -0.003  0.048844  0.092184  0.000177  3.946503  -0.001
C  C64  1  0.60370964  0.74462609  0.11716498  1  0.128087  0.007374  3.69696  0.008  0.098457  0.00063  3.957812  0.001  0.107814  0.001661  3.976083  0.003  0.048904  0.092324  -0.000177  3.946185  0.001
C  C65  1  0.25538088  0.39628942  0.38283073  1  0.128003  -0.00738  3.697012  -0.008  0.098358  -0.00063  3.957858  -0.001  0.107711  -0.001657  3.976139  -0.003  0.048837  0.092216  0.000176  3.946223  -0.001
C  C66  1  0.38608573  0.36669763  0.78672649  1  -0.17749  -0.010205  3.718476  -0.01  -0.197076  -0.003693  3.97031  -0.004  -0.206184  -0.003532  3.991922  -0.004  -0.082697  -0.191273  -0.003789  3.956193  -0.004
C  C67  1  0.63330450  0.61391530  0.71327124  1  -0.177416  0.010203  3.718536  0.01  -0.197056  0.00369  3.970326  0.004  -0.206162  0.003535  3.991941  0.004  -0.082683  -0.191244  0.003788  3.956209  0.004
C  C68  1  0.61392366  0.63330678  0.21326661  1  -0.177403  -0.010197  3.718216  -0.01  -0.197007  -0.003694  3.970047  -0.004  -0.206107  -0.003535  3.991649  -0.004  -0.082698  -0.1912  -0.00379  3.955936  -0.004
C  C69  1  0.36669369  0.38608256  0.28673227  1  -0.177226  0.010228  3.718196  0.01  -0.19683  0.003692  3.970015  0.004  -0.205925  0.00353  3.991613  0.004  -0.08266  -0.191026  0.003789  3.955913  0.004
C  C70  1  0.46173027  0.37660417  0.66639650  1  0.157317  0.009283  3.71136  0.009  0.171347  0.002781  3.954299  0.003  0.177477  0.003024  3.976486  0.003  0.016515  0.167174  0.002572  3.939298  0.002
C  C71  1  0.62339321  0.53827714  0.83359496  1  0.157159  -0.009278  3.711608  -0.009  0.171308  -0.002779  3.954328  -0.003  0.17744  -0.003026  3.976503  -0.003  0.016448  0.167133  -0.00257  3.939337  -0.002
C  C72  1  0.53828140  0.62340712  0.33359288  1  0.157124  0.009281  3.711432  0.009  0.171227  0.002782  3.954264  0.003  0.177358  0.003026  3.976443  0.003  0.016481  0.167053  0.002571  3.93929  0.002
C  C73  1  0.37660504  0.46172174  0.16641138  1  0.157008  -0.009303  3.711698  -0.009  0.171166  -0.002781  3.954458  -0.003  0.177295  -0.003021  3.976639  -0.003  0.016451  0.166989  -0.00257  3.939486  -0.002
C  C74  1  0.54493649  0.27044515  0.64946437  1  -0.164162  -0.009978  3.689437  -0.01  -0.180305  -0.003595  3.928044  -0.004  -0.188967  -0.003441  3.948262  -0.004  -0.081718  -0.174607  -0.003754  3.914236  -0.004
C  C75  1  0.72955142  0.45505689  0.85054537  1  -0.164029  0.009995  3.689296  0.01  -0.180233  0.003595  3.927821  0.004  -0.18887  0.003444  3.948054  0.004  -0.081671  -0.17454  0.003755  3.914027  0.004
C  C76  1  0.45507421  0.72956619  0.35052768  1  -0.164024  -0.009982  3.689623  -0.01  -0.180157  -0.003595  3.928179  -0.004  -0.188817  -0.003443  3.948395  -0.004  -0.081666  -0.17446  -0.003753  3.914375  -0.004
C  C77  1  0.27044581  0.54494104  0.14946319  1  -0.163948  0.010004  3.689362  0.01  -0.180083  0.003597  3.927909  0.004  -0.188737  0.003442  3.948131  0.004  -0.081632  -0.174387  0.003756  3.914108  0.004
C  C78  1  0.55012400  0.16192175  0.74980890  1  0.141099  0.0084  3.687838  0.009  0.113342  0.001338  3.937026  0.002  0.123439  0.002306  3.955119  0.003  0.051396  0.107114  0.000499  3.924918  0.001
C  C79  1  0.83807609  0.44987168  0.75019417  1  0.140871  -0.008415  3.687795  -0.009  0.113067  -0.001335  3.937029  -0.002  0.123161  -0.002309  3.955124  -0.003  0.051318  0.106845  -0.000499  3.924916  -0.001
C  C80  1  0.44988238  0.83808178  0.25018781  1  0.141056  0.008397  3.68791  0.009  0.113314  0.001337  3.937056  0.002  0.12341  0.002308  3.955147  0.003  0.051365  0.107087  0.000498  3.92496  0.001
C  C81  1  0.16192123  0.55012823  0.24981373  1  0.141053  -0.008362  3.688057  -0.008  0.113228  -0.001337  3.937242  -0.002  0.12332  -0.002305  3.955347  -0.003  0.051387  0.107005  -0.000499  3.925132  -0.001
C  C82  1  0.45119192  0.49765298  0.56233991  1  -0.157679  -0.000536  3.706373  -0.001  -0.20385  -7.4e-05  3.961171  0.0  -0.205157  -4e-05  3.97274  0.0  -0.152601  -0.202739  -0.000102  3.952632  0.0
C  C83  1  0.50235222  0.54881469  0.93765605  1  -0.157754  0.000536  3.706709  0.001  -0.203862  7.4e-05  3.961317  0.0  -0.205156  4e-05  3.972891  0.0  -0.152518  -0.202746  0.000103  3.952774  0.0
C  C84  1  0.54882435  0.50235113  0.43764314  1  -0.157751  -0.000525  3.706733  -0.001  -0.203985  -7.4e-05  3.961471  0.0  -0.20528  -4e-05  3.973053  0.0  -0.152564  -0.20289  -0.000102  3.95293  0.0
C  C85  1  0.49764698  0.45118221  0.06235539  1  -0.157629  0.000565  3.706755  0.001  -0.203919  7.5e-05  3.961548  0.0  -0.205211  3.9e-05  3.973124  0.0  -0.152558  -0.202824  0.000103  3.953005  0.0
N  N86  1  0.89254439  0.90742528  0.25371371  1  0.26271  0.001968  3.739466  0.002  0.314575  0.000975  4.004357  0.001  0.317271  0.000705  4.024067  0.001  -0.096515  0.312122  0.0011  3.991216  0.001
N  N87  1  0.09257272  0.10745445  0.24628444  1  0.262707  -0.001962  3.739533  -0.002  0.314611  -0.000979  4.004436  -0.001  0.317311  -0.000697  4.024148  -0.001  -0.096565  0.31216  -0.001101  3.991292  -0.001
N  N88  1  0.10744798  0.09257672  0.74628479  1  0.262737  0.002009  3.739429  0.002  0.314613  0.000983  4.004323  0.001  0.317311  0.0007  4.024032  0.001  -0.096515  0.312162  0.0011  3.991176  0.001
N  N89  1  0.90742069  0.89254851  0.75371421  1  0.262772  -0.001993  3.73945  -0.002  0.314665  -0.000982  4.004329  -0.001  0.317365  -0.000699  4.024038  -0.001  -0.096533  0.312214  -0.001101  3.991179  -0.001
N  N90  1  0.47765875  0.15457539  0.86425272  1  -0.297505  -0.076695  3.369489  -0.092  -0.24688  -0.054079  3.661252  -0.069  -0.276569  -0.046492  3.681516  -0.063  -0.357466  -0.229138  -0.057874  3.649679  -0.072
N  N91  1  0.84541913  0.52234132  0.63575419  1  -0.29748  0.076688  3.369624  0.092  -0.246779  0.054082  3.66134  0.069  -0.276493  0.046496  3.681623  0.063  -0.357443  -0.22903  0.057881  3.649755  0.072
N  N92  1  0.52235067  0.84543001  0.13573925  1  -0.297689  -0.076716  3.369463  -0.092  -0.247033  -0.054085  3.661201  -0.069  -0.276724  -0.046496  3.681464  -0.063  -0.357536  -0.229291  -0.057876  3.649639  -0.072
N  N93  1  0.15458115  0.47765848  0.36425042  1  -0.297672  0.076689  3.369696  0.092  -0.246971  0.054088  3.661458  0.069  -0.276685  0.046496  3.681736  0.063  -0.357484  -0.22922  0.057889  3.649872  0.072
O  O94  1  0.30447553  0.99174078  0.08960774  1  -0.596978  -0.108238  2.063573  -0.137  -0.572639  -0.070806  2.342682  -0.099  -0.61666  -0.056329  2.339566  -0.083  -0.322333  -0.542864  -0.079138  2.344772  -0.107
O  O95  1  0.00826633  0.69551839  0.41039465  1  -0.596991  0.10825  2.06319  0.137  -0.572649  0.070812  2.342366  0.099  -0.616687  0.056329  2.339239  0.083  -0.322382  -0.542876  0.079149  2.344444  0.107
O  O96  1  0.69551697  0.00826324  0.91039563  1  -0.596867  -0.108208  2.063671  -0.137  -0.572525  -0.070794  2.342816  -0.099  -0.616539  -0.056318  2.339695  -0.083  -0.322317  -0.542757  -0.079121  2.344907  -0.107
O  O97  1  0.99172992  0.30448055  0.58961073  1  -0.597083  0.10824  2.063247  0.137  -0.572695  0.070806  2.342412  0.099  -0.61674  0.056327  2.339304  0.083  -0.322417  -0.54292  0.079145  2.344486  0.107
O  O98  1  0.32847112  0.85200690  0.98792280  1  -0.615765  0.000925  1.886611  0.0  -0.590164  0.000695  2.111767  0.0  -0.614751  0.001486  2.102043  0.001  -0.332805  -0.572942  -2.2e-05  2.117996  -0.001
O  O99  1  0.14802013  0.67152466  0.51206747  1  -0.616001  -0.000951  1.886725  0.0  -0.590383  -0.000703  2.111921  0.0  -0.614968  -0.001487  2.102191  -0.001  -0.332904  -0.573176  1.9e-05  2.118145  0.001
O  O100  1  0.67152581  0.14798313  0.01209473  1  -0.615825  0.000917  1.886291  0.0  -0.590219  0.000696  2.111458  0.0  -0.614803  0.001484  2.101726  0.001  -0.332803  -0.572994  -2.5e-05  2.117682  -0.001
O  O101  1  0.85199028  0.32848071  0.48792420  1  -0.615954  -0.00094  1.886723  0.0  -0.590332  -0.0007  2.111926  0.0  -0.614921  -0.001491  2.102209  -0.001  -0.332876  -0.573122  1.9e-05  2.118147  0.001
O  O102  1  0.81750469  0.93882925  0.34646934  1  -0.498659  0.003094  1.67069  0.003  -0.482372  0.000558  1.881178  0.001  -0.504967  0.000346  1.882655  0.0  -0.244015  -0.466673  0.000822  1.880037  0.001
O  O103  1  0.06117552  0.18248857  0.15352140  1  -0.498652  -0.0031  1.670813  -0.003  -0.482375  -0.000558  1.881297  -0.001  -0.504969  -0.000339  1.882769  0.0  -0.243993  -0.466679  -0.000822  1.880158  -0.001
O  O104  1  0.18248180  0.06117586  0.65352210  1  -0.498715  0.003059  1.670582  0.003  -0.482448  0.000546  1.881081  0.001  -0.505044  0.000354  1.882553  0.0  -0.24407  -0.466748  0.000822  1.879936  0.001
O  O105  1  0.93881797  0.81751541  0.84648086  1  -0.498666  -0.003068  1.670666  -0.003  -0.482397  -0.000551  1.881152  -0.001  -0.504992  -0.00035  1.882621  0.0  -0.244014  -0.466706  -0.000822  1.880014  -0.001
