# generated using pymatgen
data_Ag2H10C8N2O5
_symmetry_space_group_name_H-M   'P 1'
_cell_length_a   7.58213897
_cell_length_b   8.55698396
_cell_length_c   11.32250174
_cell_angle_alpha   100.06753585
_cell_angle_beta   102.15280564
_cell_angle_gamma   115.76538630
_symmetry_Int_Tables_number   1
_chemical_formula_structural   Ag2H10C8N2O5
_chemical_formula_sum   'Ag4 H20 C16 N4 O10'
_cell_volume   616.44698566
_cell_formula_units_Z   2
loop_
 _symmetry_equiv_pos_site_id
 _symmetry_equiv_pos_as_xyz
  1  'x, y, z'
loop_
 _atom_site_type_symbol
 _atom_site_label
 _atom_site_symmetry_multiplicity
 _atom_site_fract_x
 _atom_site_fract_y
 _atom_site_fract_z
 _atom_site_occupancy
 _atom_site_hle17_bader_spin_density
 _atom_site_hle17_ddec_charge
 _atom_site_hle17_ddec_spin_density
 _atom_site_hle17_ddec_sum_bond_order
 _atom_site_hle17_magmom
 _atom_site_hse06_10hf_bader_spin_density
 _atom_site_hse06_10hf_ddec_charge
 _atom_site_hse06_10hf_ddec_spin_density
 _atom_site_hse06_10hf_ddec_sum_bond_order
 _atom_site_hse06_10hf_magmom
 _atom_site_hse06_bader_spin_density
 _atom_site_hse06_ddec_charge
 _atom_site_hse06_ddec_spin_density
 _atom_site_hse06_ddec_sum_bond_order
 _atom_site_hse06_magmom
 _atom_site_pbe_bader_spin_density
 _atom_site_pbe_cm5_charge
 _atom_site_pbe_ddec_charge
 _atom_site_pbe_ddec_spin_density
 _atom_site_pbe_ddec_sum_bond_order
 _atom_site_pbe_magmom
Ag  Ag0  1  0.58593869  0.14119919  0.29789020  1  0  0.578065  0  1.298505  0  0  0.447035  0  1.705267  0  0  0.481525  0  1.653413  0  0  0.44893  0.422753  0  1.741256  0
Ag  Ag1  1  0.41406839  0.85880431  0.70211307  1  0  0.57808  0  1.298511  0  0  0.447074  0  1.705278  0  0  0.481559  0  1.653422  0  0  0.448937  0.422792  0  1.741269  0
Ag  Ag2  1  0.17937289  0.96393775  0.51456732  1  0  0.519392  0  1.57634  0  0  0.391184  0  2.049746  0  0  0.423129  0  1.992807  0  0  0.4479  0.368797  0  2.089311  0
Ag  Ag3  1  0.82063464  0.03606168  0.48543372  1  0  0.519403  0  1.57624  0  0  0.391199  0  2.049619  0  0  0.423142  0  1.992686  0  0  0.447904  0.368803  0  2.089196  0
H  H4  1  0.49862268  0.79178602  0.22894329  1  0  0.417066  0  0.886502  0  0  0.382938  0  0.955678  0  0  0.39429  0  0.939325  0  0  0.289295  0.375004  0  0.967013  0
H  H5  1  0.50138510  0.20821882  0.77105936  1  0  0.417122  0  0.886439  0  0  0.382962  0  0.955644  0  0  0.394313  0  0.939291  0  0  0.289311  0.375029  0  0.966979  0
H  H6  1  0.69297556  0.92428042  0.19605848  1  0  0.423564  0  0.863675  0  0  0.400567  0  0.920617  0  0  0.409547  0  0.907599  0  0  0.298566  0.394192  0  0.929849  0
H  H7  1  0.30702855  0.07572026  0.80394051  1  0  0.423589  0  0.86366  0  0  0.400594  0  0.920584  0  0  0.409575  0  0.907565  0  0  0.298583  0.39422  0  0.929815  0
H  H8  1  0.71827281  0.57812494  0.75408497  1  0  0.388101  0  0.909392  0  0  0.355217  0  0.991134  0  0  0.367563  0  0.97909  0  0  0.297915  0.346693  0  0.999083  0
H  H9  1  0.28173360  0.42188252  0.24591520  1  0  0.388104  0  0.909389  0  0  0.35522  0  0.991126  0  0  0.367567  0  0.97908  0  0  0.297932  0.346698  0  0.999073  0
H  H10  1  0.94610369  0.46483360  0.24485469  1  0  0.084861  0  0.94581  0  0  0.099588  0  1.011242  0  0  0.10027  0  1.011585  0  0  0.094357  0.099045  0  1.01098  0
H  H11  1  0.05388855  0.53515746  0.75514329  1  0  0.084875  0  0.945861  0  0  0.099643  0  1.01125  0  0  0.100321  0  1.0116  0  0  0.094391  0.099102  0  1.010992  0
H  H12  1  0.04348340  0.70304013  0.29062668  1  0  0.087141  0  0.93529  0  0  0.104656  0  0.998576  0  0  0.106257  0  0.996627  0  0  0.092937  0.103367  0  1.000102  0
H  H13  1  0.95650681  0.29695223  0.70937032  1  0  0.087143  0  0.935255  0  0  0.104675  0  0.998528  0  0  0.106291  0  0.996562  0  0  0.092935  0.10339  0  1.000052  0
H  H14  1  0.59448257  0.41317671  0.13640371  1  0  0.054775  0  0.935444  0  0  0.073615  0  0.998778  0  0  0.074879  0  0.997435  0  0  0.085894  0.072456  0  1.000035  0
H  H15  1  0.40550338  0.58681020  0.86359291  1  0  0.054875  0  0.935414  0  0  0.073702  0  0.998759  0  0  0.074985  0  0.997385  0  0  0.085938  0.072545  0  1.000017  0
H  H16  1  0.68573553  0.64933441  0.18609998  1  0  0.058352  0  0.954307  0  0  0.078027  0  1.014529  0  0  0.078546  0  1.015411  0  0  0.086799  0.077525  0  1.014078  0
H  H17  1  0.31425455  0.35065524  0.81389576  1  0  0.058338  0  0.954314  0  0  0.078011  0  1.014547  0  0  0.078529  0  1.015432  0  0  0.086787  0.077509  0  1.014096  0
H  H18  1  0.93647275  0.69854615  0.06146482  1  0  0.099039  0  0.939026  0  0  0.122354  0  0.995452  0  0  0.123861  0  0.994845  0  0  0.085933  0.121166  0  0.995731  0
H  H19  1  0.06351732  0.30144349  0.93853092  1  0  0.099033  0  0.939057  0  0  0.122317  0  0.995514  0  0  0.123824  0  0.994909  0  0  0.085929  0.121128  0  0.995793  0
H  H20  1  0.67682179  0.55293596  0.96326575  1  0  0.099805  0  0.97163  0  0  0.122154  0  1.032128  0  0  0.122985  0  1.033155  0  0  0.087323  0.121566  0  1.030899  0
H  H21  1  0.32317104  0.44705375  0.03673125  1  0  0.099779  0  0.971586  0  0  0.122099  0  1.032121  0  0  0.122925  0  1.033153  0  0  0.087279  0.121511  0  1.030891  0
H  H22  1  0.83766428  0.45855634  0.00849431  1  0  0.094024  0  0.957029  0  0  0.116923  0  1.015792  0  0  0.117921  0  1.01635  0  0  0.084349  0.116122  0  1.015151  0
H  H23  1  0.16232796  0.54143472  0.99150367  1  0  0.094101  0  0.956982  0  0  0.116978  0  1.015741  0  0  0.117974  0  1.016302  0  0  0.08436  0.116177  0  1.015101  0
C  C24  1  0.70371886  0.46502173  0.52727323  1  0  -0.003696  0  3.762445  0  0  -0.011317  0  4.016398  0  0  -0.013296  0  4.04013  0  0  0.069052  -0.010259  0  4.000821  0
C  C25  1  0.29628084  0.53498566  0.47272871  1  0  -0.003596  0  3.762337  0  0  -0.011225  0  4.016377  0  0  -0.013199  0  4.040103  0  0  0.069057  -0.010169  0  4.000797  0
C  C26  1  0.84022186  0.65310467  0.58043811  1  0  -0.034538  0  3.792411  0  0  -0.038597  0  4.041324  0  0  -0.042324  0  4.065919  0  0  0.063252  -0.036563  0  4.025158  0
C  C27  1  0.15977983  0.34690406  0.41956162  1  0  -0.034563  0  3.792396  0  0  -0.038619  0  4.041338  0  0  -0.042348  0  4.065932  0  0  0.063289  -0.036583  0  4.025166  0
C  C28  1  0.84772924  0.56535356  0.38828029  1  0  0.384613  0  3.708093  0  0  0.357793  0  3.975747  0  0  0.372149  0  3.9955  0  0  0.212325  0.348373  0  3.96156  0
C  C29  1  0.15226809  0.43464701  0.61171870  1  0  0.38447  0  3.708217  0  0  0.357674  0  3.975886  0  0  0.372027  0  3.995645  0  0  0.212275  0.348254  0  3.9617  0
C  C30  1  0.57030158  0.32883692  0.57819328  1  0  0.632441  0  3.91637  0  0  0.576143  0  4.210941  0  0  0.611291  0  4.204715  0  0  0.208967  0.552289  0  4.214532  0
C  C31  1  0.42970713  0.67116940  0.42181499  1  0  0.632349  0  3.916546  0  0  0.576013  0  4.211194  0  0  0.611161  0  4.204967  0  0  0.208907  0.552159  0  4.214781  0
C  C32  1  0.89810815  0.78283114  0.70458192  1  0  0.633761  0  3.872885  0  0  0.58258  0  4.177532  0  0  0.617242  0  4.166417  0  0  0.218582  0.559126  0  4.184708  0
C  C33  1  0.10190039  0.21718037  0.29541728  1  0  0.633718  0  3.872731  0  0  0.582539  0  4.177395  0  0  0.617199  0  4.166279  0  0  0.218552  0.559085  0  4.184566  0
C  C34  1  0.90413196  0.57118301  0.27041750  1  0  -0.211173  0  3.721036  0  0  -0.253055  0  3.974  0  0  -0.256305  0  3.987535  0  0  -0.160518  -0.250627  0  3.964214  0
C  C35  1  0.09585972  0.42881207  0.72958005  1  0  -0.211212  0  3.721147  0  0  -0.253134  0  3.974121  0  0  -0.256391  0  3.987655  0  0  -0.160566  -0.25071  0  3.964344  0
C  C36  1  0.73172711  0.54708434  0.15775203  1  0  -0.03969  0  3.694214  0  0  -0.07319  0  3.951977  0  0  -0.074077  0  3.967365  0  0  -0.165712  -0.072589  0  3.94142  0
C  C37  1  0.26826366  0.45290664  0.84224310  1  0  -0.039767  0  3.694248  0  0  -0.073296  0  3.952065  0  0  -0.074189  0  3.96745  0  0  -0.165751  -0.072696  0  3.941515  0
C  C38  1  0.79988426  0.56515956  0.04138642  1  0  -0.287019  0  3.706148  0  0  -0.358981  0  3.944473  0  0  -0.361534  0  3.956491  0  0  -0.250537  -0.356595  0  3.935206  0
C  C39  1  0.20010802  0.43483153  0.95861245  1  0  -0.287052  0  3.706053  0  0  -0.358939  0  3.944373  0  0  -0.361487  0  3.956401  0  0  -0.250501  -0.356552  0  3.935104  0
N  N40  1  0.71056461  0.41400137  0.40696196  1  0  -0.409791  0  3.288984  0  0  -0.332073  0  3.582021  0  0  -0.356617  0  3.601163  0  0  -0.374398  -0.315326  0  3.568579  0
N  N41  1  0.28943645  0.58600341  0.59304247  1  0  -0.409751  0  3.288748  0  0  -0.332099  0  3.581886  0  0  -0.356638  0  3.601008  0  0  -0.374402  -0.315353  0  3.568448  0
N  N42  1  0.92695056  0.71217000  0.49067570  1  0  -0.43827  0  3.383816  0  0  -0.351642  0  3.665707  0  0  -0.377028  0  3.686203  0  0  -0.385306  -0.33421  0  3.651324  0
N  N43  1  0.07304687  0.28783591  0.50932134  1  0  -0.438181  0  3.383907  0  0  -0.351537  0  3.665773  0  0  -0.376923  0  3.686274  0  0  -0.385273  -0.334105  0  3.651384  0
O  O44  1  0.44880525  0.16980434  0.49981182  1  0  -0.607701  0  2.223026  0  0  -0.523934  0  2.525574  0  0  -0.555756  0  2.509545  0  0  -0.333315  -0.501658  0  2.535919  0
O  O45  1  0.55120099  0.83019247  0.50019312  1  0  -0.607657  0  2.223143  0  0  -0.523876  0  2.525696  0  0  -0.555696  0  2.509665  0  0  -0.333275  -0.5016  0  2.536038  0
O  O46  1  0.54611027  0.88817126  0.18583307  1  0  -0.785714  0  1.944126  0  0  -0.701826  0  2.136024  0  0  -0.728327  0  2.102611  0  0  -0.576929  -0.683146  0  2.158897  0
O  O47  1  0.45389391  0.11182946  0.81416770  1  0  -0.785802  0  1.944071  0  0  -0.701878  0  2.136016  0  0  -0.728378  0  2.102601  0  0  -0.576963  -0.683199  0  2.158891  0
O  O48  1  0.58321678  0.37390620  0.69479133  1  0  -0.610013  0  2.031616  0  0  -0.540276  0  2.248784  0  0  -0.567004  0  2.240229  0  0  -0.295266  -0.5218  0  2.253742  0
O  O49  1  0.41679053  0.62610535  0.30521125  1  0  -0.609998  0  2.03158  0  0  -0.540207  0  2.248725  0  0  -0.56694  0  2.24017  0  0  -0.295246  -0.521733  0  2.253682  0
O  O50  1  0.02324200  0.94780514  0.73048110  1  0  -0.596357  0  1.977607  0  0  -0.544089  0  2.206971  0  0  -0.565855  0  2.192709  0  0  -0.303502  -0.528936  0  2.216475  0
O  O51  1  0.97676647  0.05220634  0.26951632  1  0  -0.596287  0  1.977473  0  0  -0.544021  0  2.206844  0  0  -0.565787  0  2.192583  0  0  -0.303476  -0.528873  0  2.21636  0
O  O52  1  0.81340938  0.71836514  0.78860169  1  0  -0.531066  0  2.08152  0  0  -0.481811  0  2.300452  0  0  -0.503357  0  2.284481  0  0  -0.32688  -0.466778  0  2.310276  0
O  O53  1  0.18659986  0.28164507  0.21139920  1  0  -0.531087  0  2.081536  0  0  -0.48185  0  2.300492  0  0  -0.50339  0  2.284513  0  0  -0.326925  -0.466817  0  2.310317  0
