# generated using pymatgen
data_CoH15C20Br(NO2)2
_symmetry_space_group_name_H-M   'P 1'
_cell_length_a   9.49529911
_cell_length_b   10.14448038
_cell_length_c   11.22200897
_cell_angle_alpha   76.26183145
_cell_angle_beta   80.79693979
_cell_angle_gamma   67.82789923
_symmetry_Int_Tables_number   1
_chemical_formula_structural   CoH15C20Br(NO2)2
_chemical_formula_sum   'Co2 H30 C40 Br2 N4 O8'
_cell_volume   969.41363401
_cell_formula_units_Z   2
loop_
 _symmetry_equiv_pos_site_id
 _symmetry_equiv_pos_as_xyz
  1  'x, y, z'
loop_
 _atom_site_type_symbol
 _atom_site_label
 _atom_site_symmetry_multiplicity
 _atom_site_fract_x
 _atom_site_fract_y
 _atom_site_fract_z
 _atom_site_occupancy
 _atom_site_pbe_cm5_charge
 _atom_site_pbe_ddec_charge
 _atom_site_pbe_ddec_spin_density
 _atom_site_pbe_ddec_sum_bond_order
 _atom_site_pbe_magmom
Co  Co0  1  0.95603913  0.36754429  0.38357355  1  0.670285  0.872291  -2.827339  2.503033  -2.575
Co  Co1  1  0.04396376  0.63245305  0.61642783  1  0.670298  0.872321  -2.827307  2.502864  -2.575
H  H2  1  0.92360083  0.92274860  0.42242833  1  0.110668  0.123605  0.000146  1.03606  0.0
H  H3  1  0.07638362  0.07726733  0.57757084  1  0.110622  0.123526  0.000145  1.036016  0.0
H  H4  1  0.81512348  0.76089371  0.14073956  1  0.105178  0.113357  -9.8e-05  1.046136  0.0
H  H5  1  0.18487966  0.23909713  0.85926673  1  0.1052  0.113399  -9.8e-05  1.04612  0.0
H  H6  1  0.81699044  0.19803908  0.06706381  1  0.10524  0.118529  -9.5e-05  1.012279  0.0
H  H7  1  0.18298502  0.80196298  0.93292978  1  0.105127  0.118403  -9.6e-05  1.012378  0.0
H  H8  1  0.81862052  0.14133983  0.52794309  1  0.114983  0.089321  -0.000373  1.030219  -0.001
H  H9  1  0.18138173  0.85864455  0.47206292  1  0.114973  0.089404  -0.000373  1.030112  -0.001
H  H10  1  0.61763723  0.12129236  0.69355986  1  0.099672  0.111912  -0.000382  1.004078  0.0
H  H11  1  0.38235644  0.87870081  0.30643838  1  0.099576  0.111727  -0.000382  1.003995  0.0
H  H12  1  0.50303016  0.57473467  0.69608057  1  0.105593  0.117747  -0.000311  1.004215  0.0
H  H13  1  0.49698143  0.42525612  0.30391561  1  0.105633  0.117797  -0.000311  1.004162  0.0
H  H14  1  0.70885126  0.57705443  0.52933760  1  0.114103  0.086581  -0.000296  1.037371  -0.001
H  H15  1  0.29115770  0.42292884  0.47065967  1  0.114106  0.086587  -0.000296  1.037382  -0.001
H  H16  1  0.42866311  0.22505189  0.84542212  1  0.08488  0.082105  4e-06  1.022409  0.0
H  H17  1  0.57133755  0.77495189  0.15458711  1  0.084875  0.082149  4e-06  1.022449  0.0
H  H18  1  0.31683480  0.41004334  0.79404883  1  0.102698  0.123782  0.000476  1.003148  0.0
H  H19  1  0.68316871  0.58995830  0.20595422  1  0.10273  0.123849  0.000476  1.003128  0.0
H  H20  1  0.47168656  0.48638587  0.90501999  1  0.096942  0.101606  0.00028  1.005731  0.0
H  H21  1  0.52832706  0.51362002  0.09497268  1  0.096965  0.101625  0.00028  1.005624  0.0
H  H22  1  0.58250139  0.30268013  0.95909230  1  0.083609  0.080709  1e-06  1.034603  0.0
H  H23  1  0.41750557  0.69732365  0.04090623  1  0.083585  0.080727  1e-06  1.034672  0.0
H  H24  1  0.98348691  0.55061863  0.13366676  1  0.112333  0.07763  -0.000541  1.043571  -0.001
H  H25  1  0.01651625  0.44936581  0.86632752  1  0.11228  0.077586  -0.000541  1.043514  -0.001
H  H26  1  0.17290682  0.55945706  0.95218356  1  0.105225  0.125198  -0.000366  1.032909  0.0
H  H27  1  0.82709269  0.44054359  0.04781314  1  0.105224  0.125184  -0.000366  1.032938  0.0
H  H28  1  0.49770720  0.18332755  0.15827783  1  0.099362  0.111121  -0.000367  1.023566  0.0
H  H29  1  0.50231105  0.81669548  0.84172301  1  0.099335  0.111093  -0.000367  1.023471  0.0
H  H30  1  0.29285911  0.19029947  0.33065689  1  0.118536  0.093347  -0.000362  0.976236  -0.001
H  H31  1  0.70715889  0.80970632  0.66934231  1  0.118541  0.093383  -0.000362  0.976284  -0.001
C  C32  1  0.87445612  0.07141148  0.24857280  1  -0.017058  -0.011806  -0.001547  3.996227  -0.002
C  C33  1  0.12552472  0.92859370  0.75142828  1  -0.017062  -0.011778  -0.001547  3.996296  -0.002
C  C34  1  0.89178951  0.93912883  0.32952217  1  -0.078773  -0.1185  0.002614  3.91091  0.001
C  C35  1  0.10819666  0.06087950  0.67048283  1  -0.078707  -0.118419  0.002612  3.910863  0.001
C  C36  1  0.86813524  0.82782619  0.29164933  1  -0.016886  -0.015269  -0.004481  3.970759  -0.008
C  C37  1  0.13185595  0.17217125  0.70835993  1  -0.016962  -0.015164  -0.004481  3.970764  -0.008
C  C38  1  0.83058498  0.84812973  0.17121903  1  -0.092716  -0.158831  0.003121  3.975004  0.002
C  C39  1  0.16942391  0.15185995  0.82878668  1  -0.092641  -0.158834  0.003121  3.974943  0.002
C  C40  1  0.81185071  0.98100753  0.09232847  1  -0.021221  0.097054  -0.000593  4.011486  -0.001
C  C41  1  0.18813059  0.01898466  0.90767977  1  -0.021181  0.097101  -0.000593  4.011541  -0.001
C  C42  1  0.83106781  0.09448057  0.12947346  1  -0.092099  -0.164373  0.003512  3.982212  0.002
C  C43  1  0.16891255  0.90552574  0.87052121  1  -0.092063  -0.164321  0.003509  3.982404  0.002
C  C44  1  0.90474607  0.18679672  0.29035735  1  0.192589  0.53974  0.006725  4.230511  0.006
C  C45  1  0.09523155  0.81321720  0.70963521  1  0.192549  0.539796  0.006725  4.230868  0.006
C  C46  1  0.88367619  0.68695393  0.37853013  1  0.222564  0.591221  0.001924  4.147321  -0.003
C  C47  1  0.11631447  0.31305104  0.62148295  1  0.222397  0.590783  0.001924  4.147405  -0.003
C  C48  1  0.74531810  0.23620984  0.56582711  1  0.040135  0.096089  0.005919  3.957174  0.004
C  C49  1  0.25468567  0.76377890  0.43416884  1  0.04014  0.095803  0.00592  3.957205  0.004
C  C50  1  0.63332147  0.22539114  0.65993847  1  -0.095076  -0.196316  -0.002179  3.970081  -0.004
C  C51  1  0.36667485  0.77459766  0.34006210  1  -0.09506  -0.195979  -0.002178  3.969952  -0.004
C  C52  1  0.54473152  0.34575515  0.71255365  1  0.012502  0.176904  0.008112  3.934878  0.005
C  C53  1  0.45527327  0.65423680  0.28744503  1  0.012589  0.176931  0.008115  3.934767  0.005
C  C54  1  0.57086500  0.47553924  0.66194928  1  -0.085547  -0.176586  -0.001966  3.916709  -0.003
C  C55  1  0.42914061  0.52445052  0.33805154  1  -0.085638  -0.176646  -0.001966  3.917013  -0.003
C  C56  1  0.68444610  0.47821485  0.56756428  1  0.042868  0.100723  0.005501  3.947738  0.003
C  C57  1  0.31556570  0.52176946  0.43243325  1  0.042801  0.100517  0.005501  3.948189  0.003
C  C58  1  0.43084799  0.33577723  0.82046820  1  -0.160101  -0.202908  0.000927  3.913914  0.0
C  C59  1  0.56915656  0.66422441  0.17953291  1  -0.160116  -0.203103  0.000927  3.913954  0.0
C  C60  1  0.46836651  0.37606430  0.93268905  1  -0.159301  -0.195503  0.000599  3.938784  0.0
C  C61  1  0.53164210  0.62394378  0.06730833  1  -0.159274  -0.195463  0.000599  3.938644  0.0
C  C62  1  0.09883141  0.47129398  0.13499174  1  0.040354  0.097496  0.006172  3.962073  0.004
C  C63  1  0.90117113  0.52870123  0.86500568  1  0.040459  0.097686  0.006173  3.962041  0.004
C  C64  1  0.20470417  0.47587311  0.03486274  1  -0.091027  -0.193804  -0.002516  3.929707  -0.004
C  C65  1  0.79530019  0.52413182  0.96513058  1  -0.09105  -0.193867  -0.002516  3.929952  -0.004
C  C66  1  0.35256342  0.37210494  0.04029228  1  0.008108  0.165113  0.010133  3.951788  0.006
C  C67  1  0.64744837  0.62790632  0.95970842  1  0.00806  0.165062  0.010136  3.95158  0.006
C  C68  1  0.38475175  0.26725699  0.14866225  1  -0.093449  -0.203916  -0.002293  3.973865  -0.004
C  C69  1  0.61526206  0.73275748  0.85133659  1  -0.093399  -0.203836  -0.002293  3.97379  -0.004
C  C70  1  0.27172431  0.27030838  0.24506110  1  0.044422  0.096384  0.008406  3.968145  0.005
C  C71  1  0.72828591  0.72969534  0.75493965  1  0.044493  0.096392  0.008404  3.968244  0.005
Br  Br72  1  0.76032757  0.00492789  0.92934309  1  0.061072  -0.037795  -0.000219  1.574931  0.0
Br  Br73  1  0.23965977  0.99505024  0.07065835  1  0.061082  -0.037789  -0.000219  1.575062  0.0
N  N74  1  0.77307423  0.36036999  0.51996312  1  -0.326987  -0.267098  -0.025997  3.572618  -0.046
N  N75  1  0.22692928  0.63961658  0.48003511  1  -0.326932  -0.266869  -0.025995  3.572328  -0.046
N  N76  1  0.13030176  0.37083907  0.23944271  1  -0.326187  -0.250455  -0.027811  3.577562  -0.048
N  N77  1  0.86970605  0.62915932  0.76055507  1  -0.326288  -0.250622  -0.027812  3.577526  -0.048
O  O78  1  0.83005944  0.32062570  0.25182409  1  -0.311009  -0.545454  -0.034294  2.191  -0.056
O  O79  1  0.16992947  0.67938921  0.74815950  1  -0.311013  -0.545556  -0.034303  2.191269  -0.056
O  O80  1  0.00491026  0.14752386  0.36807015  1  -0.310404  -0.543004  -0.039901  2.260595  -0.066
O  O81  1  0.99507184  0.85249539  0.63192152  1  -0.310318  -0.543024  -0.039891  2.260673  -0.066
O  O82  1  0.90055554  0.67776608  0.49100512  1  -0.313802  -0.565146  -0.044992  2.477327  -0.072
O  O83  1  0.09943244  0.32225515  0.50900221  1  -0.313649  -0.564935  -0.045002  2.477092  -0.072
O  O84  1  0.87285202  0.58577970  0.33585753  1  -0.302297  -0.542823  -0.045271  2.433989  -0.071
O  O85  1  0.12715642  0.41421428  0.66415089  1  -0.302264  -0.542604  -0.045263  2.433975  -0.071
