# generated using pymatgen
data_CdH28C28N4O5
_symmetry_space_group_name_H-M   'P 1'
_cell_length_a   9.93326360
_cell_length_b   14.03238278
_cell_length_c   21.06931225
_cell_angle_alpha   97.00014742
_cell_angle_beta   90.02223555
_cell_angle_gamma   110.77007590
_symmetry_Int_Tables_number   1
_chemical_formula_structural   CdH28C28N4O5
_chemical_formula_sum   'Cd4 H112 C112 N16 O20'
_cell_volume   2722.45740201
_cell_formula_units_Z   4
loop_
 _symmetry_equiv_pos_site_id
 _symmetry_equiv_pos_as_xyz
  1  'x, y, z'
loop_
 _atom_site_type_symbol
 _atom_site_label
 _atom_site_symmetry_multiplicity
 _atom_site_fract_x
 _atom_site_fract_y
 _atom_site_fract_z
 _atom_site_occupancy
 _atom_site_pbe_bader_charge
 _atom_site_pbe_bader_spin_density
 _atom_site_pbe_cm5_charge
 _atom_site_pbe_ddec_charge
 _atom_site_pbe_ddec_spin_density
 _atom_site_pbe_ddec_sum_bond_order
 _atom_site_pbe_magmom
Cd  Cd0  1  0.05432275  0.62571072  0.81933166  1  1.26323  0  0.745808  0.854631  0  2.185626  0
Cd  Cd1  1  0.42840368  0.37486137  0.68079353  1  1.262515  0  0.745863  0.855459  0  2.184414  0
Cd  Cd2  1  0.94567891  0.37429293  0.18067103  1  1.263219  0  0.745818  0.854575  0  2.18586  0
Cd  Cd3  1  0.57159155  0.62514151  0.31920530  1  1.262556  0  0.745834  0.855451  0  2.184305  0
H  H4  1  0.57973449  0.19404225  0.82545180  1  0.018412  0  0.096244  0.073779  0  0.971851  0
H  H5  1  0.38590655  0.80627812  0.67443543  1  0.015498  0  0.096372  0.074227  0  0.971373  0
H  H6  1  0.42026400  0.80595909  0.17454311  1  0.018061  0  0.096256  0.073765  0  0.971928  0
H  H7  1  0.61409443  0.19372015  0.32556492  1  0.015467  0  0.09635  0.074167  0  0.971395  0
H  H8  1  0.65440781  0.35838931  0.88830097  1  0.039155  0  0.091562  0.074391  0  1.014893  0
H  H9  1  0.29626268  0.64188352  0.61159288  1  0.024823  0  0.091383  0.074501  0  1.01488  0
H  H10  1  0.34559719  0.64160895  0.11169559  1  0.038941  0  0.091604  0.074461  0  1.014938  0
H  H11  1  0.70373734  0.35812089  0.38840513  1  0.02485  0  0.091422  0.074585  0  1.014878  0
H  H12  1  0.88900454  0.36670740  0.93814115  1  0.001824  0  0.083336  0.075944  0  1.026145  0
H  H13  1  0.52247954  0.63364021  0.56190927  1  9e-05  0  0.08309  0.075568  0  1.025958  0
H  H14  1  0.11100712  0.63329009  0.06184965  1  0.001559  0  0.083289  0.075962  0  1.026089  0
H  H15  1  0.47752849  0.36635807  0.43809631  1  -0.000297  0  0.083104  0.07561  0  1.025794  0
H  H16  1  0.75538157  0.24229438  0.92572419  1  -0.005456  0  0.078432  0.067191  0  1.027726  0
H  H17  1  0.51369459  0.75806424  0.57431659  1  0.021532  0  0.078782  0.067737  0  1.026925  0
H  H18  1  0.24462218  0.75770542  0.07426869  1  -0.0055  0  0.078477  0.067282  0  1.027791  0
H  H19  1  0.48631507  0.24193326  0.42568513  1  0.02113  0  0.078785  0.067774  0  1.026878  0
H  H20  1  0.00789733  0.32521080  0.83912870  1  0.011769  0  0.083773  0.0804  0  1.016333  0
H  H21  1  0.68270146  0.67507569  0.66113340  1  0.033311  0  0.083402  0.079306  0  1.016508  0
H  H22  1  0.99210891  0.67478592  0.16085919  1  0.011637  0  0.083777  0.080361  0  1.016298  0
H  H23  1  0.31729991  0.32492335  0.33887319  1  0.033538  0  0.083404  0.079388  0  1.016448  0
H  H24  1  0.99595557  0.23803409  0.89415820  1  0.005202  0  0.074909  0.065867  0  1.036713  0
H  H25  1  0.75841026  0.76215536  0.60606350  1  -0.020437  0  0.075007  0.065215  0  1.036828  0
H  H26  1  0.00403412  0.76195571  0.10582818  1  0.004844  0  0.074927  0.06588  0  1.036678  0
H  H27  1  0.24159227  0.23784599  0.39394422  1  -0.02048  0  0.07502  0.065253  0  1.036931  0
H  H28  1  0.77320697  0.11083150  0.83397794  1  -0.023887  0  0.07564  0.065335  0  1.003573  0
H  H29  1  0.66292121  0.88939275  0.66595851  1  0.005125  0  0.075585  0.065103  0  1.004737  0
H  H30  1  0.22678316  0.88916521  0.16600948  1  -0.024149  0  0.075629  0.06528  0  1.00359  0
H  H31  1  0.33707713  0.11060629  0.33404571  1  0.005202  0  0.075567  0.065057  0  1.004845  0
H  H32  1  0.92037500  0.14448626  0.78345134  1  0.023603  0  0.078613  0.068336  0  1.029014  0
H  H33  1  0.77630368  0.85596244  0.71665729  1  0.030495  0  0.079021  0.069083  0  1.028625  0
H  H34  1  0.07961335  0.85550892  0.21653548  1  0.023587  0  0.078565  0.068232  0  1.029077  0
H  H35  1  0.22368661  0.14403660  0.28335120  1  0.03035  0  0.079008  0.069036  0  1.02862  0
H  H36  1  0.69271227  0.14745869  0.73058794  1  0.039978  0  0.083944  0.083267  0  1.001258  0
H  H37  1  0.54561805  0.85306968  0.76934836  1  0.036441  0  0.083759  0.082869  0  1.002121  0
H  H38  1  0.30728008  0.85254648  0.26940253  1  0.040007  0  0.083963  0.083276  0  1.001366  0
H  H39  1  0.45436946  0.14692782  0.23065431  1  0.036406  0  0.083742  0.082817  0  1.00211  0
H  H40  1  0.83196105  0.27088269  0.74035487  1  0.018991  0  0.08384  0.080531  0  1.020684  0
H  H41  1  0.56116125  0.72964544  0.75974497  1  0.056171  0  0.083996  0.080935  0  1.02078  0
H  H42  1  0.16803796  0.72912172  0.25963601  1  0.019389  0  0.083859  0.080653  0  1.020664  0
H  H43  1  0.43882664  0.27035283  0.24026061  1  0.05627  0  0.083932  0.080774  0  1.02086  0
H  H44  1  0.30230675  0.80867825  0.91762540  1  0.157947  0  0.118217  0.094891  0  1.009958  0
H  H45  1  0.49288950  0.19173540  0.58312478  1  0.142483  0  0.118528  0.095674  0  1.009583  0
H  H46  1  0.69767987  0.19133155  0.08238775  1  0.158553  0  0.118224  0.094848  0  1.009966  0
H  H47  1  0.50712027  0.80827441  0.41687983  1  0.14266  0  0.118591  0.095664  0  1.009553  0
H  H48  1  0.31728069  0.93694669  0.01210978  1  0.068604  0  0.109609  0.115944  0  1.002862  0
H  H49  1  0.38015504  0.06348414  0.48850773  1  0.074494  0  0.109317  0.11533  0  1.003906  0
H  H50  1  0.68270679  0.06306081  0.98790414  1  0.071021  0  0.109585  0.11585  0  1.002888  0
H  H51  1  0.61986944  0.93652490  0.51149397  1  0.074619  0  0.109292  0.115286  0  1.003853  0
H  H52  1  0.85054361  0.82063177  0.00572284  1  0.096327  0  0.101175  0.099812  0  1.060402  0
H  H53  1  0.02969215  0.17946590  0.49409938  1  0.089408  0  0.101383  0.100149  0  1.060706  0
H  H54  1  0.14944060  0.17937725  0.99428123  1  0.09659  0  0.101144  0.099849  0  1.060465  0
H  H55  1  0.97031582  0.82052621  0.50589526  1  0.089277  0  0.101385  0.100198  0  1.060708  0
H  H56  1  0.85725610  0.69230332  0.91510668  1  0.127467  0  0.114895  0.086197  0  1.035638  0
H  H57  1  0.16430280  0.30790170  0.58483912  1  0.118519  0  0.114626  0.08599  0  1.034657  0
H  H58  1  0.14272956  0.30771262  0.08489605  1  0.127437  0  0.114868  0.086247  0  1.035671  0
H  H59  1  0.83568815  0.69208657  0.41516090  1  0.118585  0  0.114642  0.086029  0  1.034795  0
H  H60  1  0.31098309  0.06636796  0.06957976  1  0.111892  0  0.105891  0.108982  0  1.041511  0
H  H61  1  0.24493573  0.93404399  0.43082217  1  0.116474  0  0.105865  0.109242  0  1.041072  0
H  H62  1  0.68901023  0.93363109  0.93042967  1  0.111862  0  0.105928  0.10902  0  1.041478  0
H  H63  1  0.75509906  0.06596350  0.56917467  1  0.116024  0  0.105864  0.109221  0  1.041126  0
H  H64  1  0.29834291  0.19262443  0.15858215  1  0.09436  0  0.117722  0.078126  0  1.023752  0
H  H65  1  0.10591760  0.80755589  0.34173271  1  0.091268  0  0.117969  0.078082  0  1.023569  0
H  H66  1  0.70164600  0.80737384  0.84142912  1  0.09431  0  0.11778  0.078176  0  1.023749  0
H  H67  1  0.89411296  0.19244316  0.65826677  1  0.091279  0  0.117982  0.078147  0  1.023592  0
H  H68  1  0.86466296  0.03616700  0.17935708  1  0.090326  0  0.12233  0.093343  0  0.963089  0
H  H69  1  0.82923674  0.96396051  0.32028243  1  0.07393  0  0.122604  0.093651  0  0.963645  0
H  H70  1  0.13532438  0.96383819  0.82065570  1  0.090738  0  0.122324  0.093299  0  0.963092  0
H  H71  1  0.17077204  0.03602316  0.67972149  1  0.073778  0  0.122587  0.093705  0  0.963729  0
H  H72  1  0.85824875  0.89731252  0.09332804  1  0.089858  0  0.103846  0.103039  0  1.046559  0
H  H73  1  0.96123717  0.10273061  0.40642085  1  0.08611  0  0.103532  0.10274  0  1.044693  0
H  H74  1  0.14175191  0.10269114  0.90668652  1  0.090363  0  0.103899  0.103187  0  1.046369  0
H  H75  1  0.03877444  0.89726075  0.59358037  1  0.085914  0  0.103515  0.102688  0  1.044687  0
H  H76  1  0.30615864  0.52887506  0.79610300  1  0.131873  0  0.115835  0.095777  0  1.033325  0
H  H77  1  0.77751849  0.47192056  0.70399180  1  0.13217  0  0.115747  0.096265  0  1.033204  0
H  H78  1  0.69384021  0.47111090  0.20389541  1  0.131902  0  0.115833  0.095662  0  1.033292  0
H  H79  1  0.22249492  0.52808847  0.29600990  1  0.132083  0  0.115743  0.09619  0  1.033242  0
H  H80  1  0.40991599  0.41551446  0.84277118  1  0.177583  0  0.109203  0.13166  0  1.043145  0
H  H81  1  0.99492797  0.58476725  0.65715937  1  0.182086  0  0.109231  0.131336  0  1.042946  0
H  H82  1  0.59007187  0.58446766  0.15722217  1  0.177315  0  0.109143  0.13153  0  1.04332  0
H  H83  1  0.00507421  0.41523946  0.34283502  1  0.182064  0  0.109212  0.13134  0  1.042853  0
H  H84  1  0.19640653  0.46242741  0.01809858  1  0.148584  0  0.104568  0.124032  0  1.052554  0
H  H85  1  0.73426296  0.53777310  0.48179412  1  0.148115  0  0.104637  0.123967  0  1.053452  0
H  H86  1  0.80357668  0.53755548  0.98189626  1  0.148585  0  0.104554  0.123919  0  1.05261  0
H  H87  1  0.26573313  0.46222747  0.51820357  1  0.148197  0  0.104626  0.123956  0  1.053471  0
H  H88  1  0.09610429  0.56954511  0.96151598  1  0.090315  0  0.112344  0.077868  0  1.019416  0
H  H89  1  0.52650585  0.43130491  0.53856889  1  0.117863  0  0.112023  0.077725  0  1.019187  0
H  H90  1  0.90389346  0.43044470  0.03847895  1  0.09022  0  0.112309  0.077838  0  1.019444  0
H  H91  1  0.47349537  0.56869182  0.46143087  1  0.117807  0  0.112031  0.077775  0  1.019144  0
H  H92  1  0.36715155  0.26212937  0.87360674  1  0.079151  0  0.115391  0.129239  0  0.990425  0
H  H93  1  0.10587434  0.73814365  0.62622234  1  0.082408  0  0.115139  0.128317  0  0.991583  0
H  H94  1  0.63285281  0.73785353  0.12639284  1  0.079154  0  0.115388  0.129134  0  0.990482  0
H  H95  1  0.89412367  0.26186077  0.37377519  1  0.082564  0  0.115176  0.12841  0  0.991451  0
H  H96  1  0.45769600  0.14490108  0.92540292  1  0.055375  0  0.109303  0.072864  0  0.987927  0
H  H97  1  0.31386916  0.85543009  0.57441191  1  0.05509  0  0.109224  0.072498  0  0.988503  0
H  H98  1  0.54231384  0.85508874  0.07460435  1  0.055479  0  0.109281  0.072772  0  0.98801  0
H  H99  1  0.68612521  0.14457510  0.42558758  1  0.055019  0  0.10923  0.072508  0  0.988452  0
H  H100  1  0.47989681  0.30912713  0.10466781  1  0.061609  0  0.115124  0.085287  0  0.985212  0
H  H101  1  0.17177489  0.69051848  0.39527960  1  0.100888  0  0.114732  0.085189  0  0.986161  0
H  H102  1  0.52008087  0.69086883  0.89533520  1  0.061799  0  0.115066  0.085228  0  0.985149  0
H  H103  1  0.82824303  0.30948747  0.60471758  1  0.101084  0  0.114685  0.085093  0  0.985947  0
H  H104  1  0.38178181  0.42937366  0.06164497  1  0.124712  0  0.112987  0.128219  0  1.001817  0
H  H105  1  0.95312862  0.57039263  0.43828094  1  0.127132  0  0.112908  0.128123  0  1.000743  0
H  H106  1  0.61819272  0.57060999  0.93835040  1  0.124419  0  0.113011  0.12838  0  1.001736  0
H  H107  1  0.04687664  0.42962024  0.56171395  1  0.127069  0  0.112956  0.128157  0  1.000857  0
H  H108  1  0.91044704  0.76693053  0.78472991  1  0.631027  0  0.275067  0.326811  0  1.042675  0
H  H109  1  0.14317610  0.23319652  0.71523775  1  0.624324  0  0.275343  0.327508  0  1.041599  0
H  H110  1  0.08955522  0.23308234  0.21527685  1  0.63108  0  0.275074  0.32679  0  1.042702  0
H  H111  1  0.85683528  0.76679638  0.28476644  1  0.62436  0  0.275303  0.327495  0  1.041619  0
H  H112  1  0.80396321  0.65205091  0.76133484  1  0.625097  0  0.316269  0.396597  0  0.885031  0
H  H113  1  0.15135369  0.34799345  0.73848876  1  0.616525  0  0.316872  0.397824  0  0.885285  0
H  H114  1  0.19604809  0.34796195  0.23865863  1  0.625119  0  0.316271  0.39663  0  0.88488  0
H  H115  1  0.84863562  0.65199559  0.26151038  1  0.616304  0  0.316864  0.397782  0  0.885258  0
C  C116  1  0.56997548  0.29100975  0.75780389  1  1.538486  0  0.186958  0.573198  0  4.175957  0
C  C117  1  0.27916005  0.70926640  0.74209113  1  1.563485  0  0.186245  0.572284  0  4.175306  0
C  C118  1  0.43002191  0.70899543  0.24219085  1  1.538381  0  0.186962  0.573339  0  4.176047  0
C  C119  1  0.72083124  0.29073263  0.25790739  1  1.563669  0  0.186253  0.572323  0  4.175158  0
C  C120  1  0.65883461  0.25726240  0.80333835  1  0.010646  0  -0.086389  -0.105384  0  3.848819  0
C  C121  1  0.40180971  0.74311881  0.69658408  1  0.012619  0  -0.086299  -0.107105  0  3.850868  0
C  C122  1  0.34116046  0.74273816  0.19665270  1  0.011428  0  -0.086312  -0.105267  0  3.848851  0
C  C123  1  0.59818383  0.25687869  0.30341669  1  0.012455  0  -0.086237  -0.106998  0  3.850964  0
C  C124  1  0.73601350  0.34172575  0.85854140  1  0.008522  0  -0.094112  -0.126078  0  3.852068  0
C  C125  1  0.39453386  0.65864038  0.64142814  1  0.022993  0  -0.094079  -0.124859  0  3.851995  0
C  C126  1  0.26398670  0.65827098  0.14145124  1  0.008392  0  -0.094143  -0.126153  0  3.851978  0
C  C127  1  0.60546664  0.34136096  0.35857104  1  0.022898  0  -0.094165  -0.125013  0  3.85205  0
C  C128  1  0.82874871  0.30396637  0.90090447  1  0.009263  0  -0.167271  -0.1528  0  3.901939  0
C  C129  1  0.52514106  0.69637933  0.59916460  1  -0.012386  0  -0.167369  -0.153435  0  3.903449  0
C  C130  1  0.17125226  0.69603189  0.09908687  1  0.00908  0  -0.167284  -0.152981  0  3.901915  0
C  C131  1  0.47486487  0.30362279  0.40084034  1  -0.011377  0  -0.167355  -0.153463  0  3.903218  0
C  C132  1  0.93115236  0.26292666  0.86219651  1  -0.001928  0  -0.177767  -0.145075  0  3.936554  0
C  C133  1  0.66858323  0.73735078  0.63796511  1  -0.006208  0  -0.177519  -0.14269  0  3.933826  0
C  C134  1  0.06884473  0.73707390  0.13779407  1  -0.001192  0  -0.177826  -0.145052  0  3.936497  0
C  C135  1  0.33141844  0.26265288  0.36204375  1  -0.006515  0  -0.17747  -0.142785  0  3.933826  0
C  C136  1  0.84689097  0.17492148  0.81086215  1  -0.010276  0  -0.174776  -0.138379  0  3.94859  0
C  C137  1  0.67238506  0.82541318  0.68921110  1  -0.040911  0  -0.1752  -0.139489  0  3.949106  0
C  C138  1  0.15310410  0.82507908  0.18912605  1  -0.009873  0  -0.174688  -0.138108  0  3.948809  0
C  C139  1  0.32760950  0.17458432  0.31079536  1  -0.040992  0  -0.175257  -0.139473  0  3.948958  0
C  C140  1  0.75880581  0.21079797  0.76616776  1  -0.01963  0  -0.173413  -0.169377  0  3.931514  0
C  C141  1  0.54829875  0.78967657  0.73383661  1  -0.059406  0  -0.173012  -0.168382  0  3.933865  0
C  C142  1  0.24119196  0.78920797  0.23382230  1  -0.020118  0  -0.1735  -0.169647  0  3.932098  0
C  C143  1  0.45169163  0.21031863  0.26616729  1  -0.05925  0  -0.172927  -0.168103  0  3.933965  0
C  C144  1  0.83053876  0.44487699  0.83890804  1  1.564981  0  0.191267  0.594615  0  4.153789  0
C  C145  1  0.38569655  0.55557571  0.66118665  1  1.557023  0  0.191047  0.593956  0  4.154984  0
C  C146  1  0.16946562  0.55512205  0.16108858  1  1.565357  0  0.191279  0.594724  0  4.153658  0
C  C147  1  0.61429297  0.44442178  0.33881079  1  1.557502  0  0.191118  0.594035  0  4.154889  0
C  C148  1  0.20481896  0.81375583  0.93911540  1  0.487995  0  0.053917  0.101586  0  3.940938  0
C  C149  1  0.39058312  0.18665442  0.56135281  1  0.521825  0  0.054335  0.102042  0  3.941126  0
C  C150  1  0.79516627  0.18625320  0.06089342  1  0.48685  0  0.053868  0.101493  0  3.94109  0
C  C151  1  0.60942497  0.81335000  0.43865184  1  0.52185  0  0.054233  0.101966  0  3.941196  0
C  C152  1  0.21179514  0.88605316  0.99176592  1  -0.0435  0  -0.079881  -0.172801  0  3.934284  0
C  C153  1  0.32540672  0.11427504  0.50869257  1  -0.074978  0  -0.07938  -0.170947  0  3.93621  0
C  C154  1  0.78819032  0.11395433  0.00824563  1  -0.046034  0  -0.079905  -0.17263  0  3.934284  0
C  C155  1  0.67461368  0.88572785  0.49130911  1  -0.075016  0  -0.079305  -0.170801  0  3.936379  0
C  C156  1  0.08413950  0.89171260  0.01774067  1  -0.030278  0  0.012064  0.101407  0  3.968766  0
C  C157  1  0.19226625  0.10851913  0.48245480  1  -0.028457  0  0.012822  0.100719  0  3.970196  0
C  C158  1  0.91584822  0.10829336  0.98226790  1  -0.029788  0  0.012129  0.101278  0  3.968591  0
C  C159  1  0.80775593  0.89148529  0.51754748  1  -0.028465  0  0.012749  0.100613  0  3.970559  0
C  C160  1  0.95410840  0.82077601  0.98904369  1  -0.014755  0  -0.083967  -0.171316  0  3.955272  0
C  C161  1  0.13303000  0.17940651  0.51098049  1  -0.045803  0  -0.084694  -0.171941  0  3.955239  0
C  C162  1  0.04587394  0.17923532  0.01095677  1  -0.015361  0  -0.08388  -0.171176  0  3.955298  0
C  C163  1  0.86698421  0.82059406  0.48901579  1  -0.04595  0  -0.084713  -0.172055  0  3.955227  0
C  C164  1  0.95633180  0.74965076  0.93763600  1  0.484643  0  0.04418  0.090945  0  3.967062  0
C  C165  1  0.20620584  0.25065050  0.56241388  1  0.519508  0  0.045374  0.092232  0  3.964686  0
C  C166  1  0.04365899  0.25036134  0.06236642  1  0.482504  0  0.04413  0.090599  0  3.967349  0
C  C167  1  0.79379724  0.74934393  0.43758664  1  0.519727  0  0.045358  0.09223  0  3.964679  0
C  C168  1  0.08444857  0.96855508  0.07245067  1  -0.004667  0  0.015686  0.103458  0  3.963498  0
C  C169  1  0.11608808  0.03165303  0.42767360  1  -0.022179  0  0.014435  0.1026  0  3.961631  0
C  C170  1  0.91554696  0.03145242  0.92755708  1  -0.004708  0  0.015683  0.103613  0  3.963439  0
C  C171  1  0.88393621  0.96834755  0.57232742  1  -0.021715  0  0.014539  0.102784  0  3.961695  0
C  C172  1  0.20938759  0.05307019  0.09298772  1  -0.03217  0  -0.079811  -0.170837  0  3.942237  0
C  C173  1  0.15662200  0.94720543  0.40727905  1  -0.072153  0  -0.079498  -0.170348  0  3.938099  0
C  C174  1  0.79061168  0.94693270  0.90702393  1  -0.0329  0  -0.079773  -0.170767  0  3.942171  0
C  C175  1  0.84341054  0.05280361  0.59272029  1  -0.071299  0  -0.079468  -0.17034  0  3.938329  0
C  C176  1  0.20274568  0.12571745  0.14268841  1  0.48655  0  0.051557  0.094469  0  3.971459  0
C  C177  1  0.07736785  0.87451233  0.35751959  1  0.534899  0  0.051288  0.093946  0  3.970784  0
C  C178  1  0.79724213  0.87428466  0.85732269  1  0.487093  0  0.05137  0.094268  0  3.97146  0
C  C179  1  0.92266272  0.12548672  0.64248368  1  0.533226  0  0.051229  0.093849  0  3.971104  0
C  C180  1  0.96207514  0.03858688  0.15443581  1  0.501464  0  0.053225  0.095487  0  3.964459  0
C  C181  1  0.92400491  0.96155012  0.34540049  1  0.502526  0  0.053131  0.094889  0  3.965473  0
C  C182  1  0.03791401  0.96140986  0.84557628  1  0.501194  0  0.053287  0.095787  0  3.964173  0
C  C183  1  0.07601931  0.03844432  0.65460146  1  0.502928  0  0.053039  0.094631  0  3.965792  0
C  C184  1  0.95893040  0.96172522  0.10543805  1  -0.048563  0  -0.078047  -0.161942  0  3.929083  0
C  C185  1  0.99757915  0.03839457  0.39446944  1  -0.015291  0  -0.077286  -0.160964  0  3.926961  0
C  C186  1  0.04106024  0.03828459  0.89457178  1  -0.048628  0  -0.078267  -0.162408  0  3.929045  0
C  C187  1  0.00243045  0.96159679  0.60553274  1  -0.016339  0  -0.077329  -0.16085  0  3.926654  0
C  C188  1  0.28152955  0.51034479  0.84468149  1  0.483807  0  0.045802  0.089924  0  3.939034  0
C  C189  1  0.77142284  0.49036702  0.65537421  1  0.504789  0  0.045853  0.088559  0  3.93997  0
C  C190  1  0.71847098  0.48964656  0.15531403  1  0.485663  0  0.045605  0.089771  0  3.939161  0
C  C191  1  0.22859018  0.50964124  0.34462553  1  0.504324  0  0.045834  0.088598  0  3.939999  0
C  C192  1  0.33952297  0.44651880  0.87130571  1  -0.083577  0  -0.078457  -0.164991  0  3.903278  0
C  C193  1  0.89337450  0.55394800  0.62865595  1  -0.123568  0  -0.078765  -0.164465  0  3.902935  0
C  C194  1  0.66047007  0.55346562  0.12868925  1  -0.085266  0  -0.078229  -0.1648  0  3.903219  0
C  C195  1  0.10662952  0.44606640  0.37133955  1  -0.123096  0  -0.078745  -0.164449  0  3.902542  0
C  C196  1  0.30852524  0.42575197  0.93426561  1  -0.029471  0  0.008588  0.094107  0  3.983837  0
C  C197  1  0.88324364  0.57453566  0.56563972  1  -0.041541  0  0.008734  0.094178  0  3.981609  0
C  C198  1  0.69147043  0.57423169  0.06572692  1  -0.028864  0  0.008526  0.094346  0  3.983618  0
C  C199  1  0.11676038  0.42547875  0.43435577  1  -0.041605  0  0.008894  0.094442  0  3.981204  0
C  C200  1  0.22222359  0.47284109  0.96833223  1  -0.038843  0  -0.083865  -0.173168  0  3.906203  0
C  C201  1  0.74963673  0.52754113  0.53160235  1  -0.052219  0  -0.083918  -0.17295  0  3.906098  0
C  C202  1  0.77777742  0.52714718  0.03166494  1  -0.039284  0  -0.083877  -0.17323  0  3.906402  0
C  C203  1  0.25036905  0.47245867  0.46839528  1  -0.052281  0  -0.083932  -0.173069  0  3.906193  0
C  C204  1  0.16701408  0.53408242  0.93733584  1  0.447451  0  0.043997  0.095948  0  3.963413  0
C  C205  1  0.63301492  0.46666870  0.56272921  1  0.446173  0  0.04413  0.095449  0  3.963523  0
C  C206  1  0.83297378  0.46589969  0.06265752  1  0.44731  0  0.043978  0.095942  0  3.963763  0
C  C207  1  0.36699076  0.53333495  0.43727111  1  0.455946  0  0.044106  0.095462  0  3.963637  0
C  C208  1  0.36562389  0.35631032  0.96327857  1  -0.023498  0  0.011393  0.101735  0  3.969393  0
C  C209  1  0.01004985  0.64375056  0.53658450  1  -0.08358  0  0.011157  0.101103  0  3.967497  0
C  C210  1  0.63437280  0.64367334  0.03671681  1  -0.024346  0  0.011417  0.101557  0  3.969512  0
C  C211  1  0.98995109  0.35625770  0.46341144  1  -0.08418  0  0.011174  0.101096  0  3.967614  0
C  C212  1  0.38953344  0.27478771  0.92528734  1  -0.066725  0  -0.081895  -0.18071  0  3.941238  0
C  C213  1  0.11564122  0.72537510  0.57457762  1  0.019503  0  -0.081134  -0.179043  0  3.941077  0
C  C214  1  0.61046920  0.72519980  0.07471310  1  -0.06727  0  -0.081758  -0.180216  0  3.941387  0
C  C215  1  0.88435589  0.27464161  0.42541853  1  0.020613  0  -0.081112  -0.179096  0  3.940977  0
C  C216  1  0.44056503  0.20939398  0.95445292  1  0.499272  0  0.036252  0.077406  0  4.033453  0
C  C217  1  0.23213079  0.79080533  0.54543689  1  0.474939  0  0.036092  0.077261  0  4.033436  0
C  C218  1  0.55944001  0.79059430  0.04555185  1  0.499774  0  0.036323  0.077367  0  4.034043  0
C  C219  1  0.76786435  0.20920138  0.45456035  1  0.474455  0  0.036032  0.077134  0  4.033211  0
C  C220  1  0.45122316  0.29941566  0.05357998  1  0.554894  0  0.041809  0.090125  0  3.989255  0
C  C221  1  0.15278246  0.70049153  0.44634709  1  0.464222  0  0.042592  0.08869  0  3.990624  0
C  C222  1  0.54876103  0.70057723  0.94642421  1  0.554307  0  0.041983  0.090445  0  3.989151  0
C  C223  1  0.84722731  0.29951827  0.55364945  1  0.463656  0  0.042611  0.088753  0  3.990463  0
C  C224  1  0.39760474  0.36772504  0.02930793  1  -0.081216  0  -0.079986  -0.174083  0  3.930054  0
C  C225  1  0.03071019  0.63215164  0.47059591  1  -0.035227  0  -0.080252  -0.17276  0  3.926584  0
C  C226  1  0.60237954  0.63226400  0.97068931  1  -0.080484  0  -0.080165  -0.174539  0  3.930368  0
C  C227  1  0.96930144  0.36785585  0.52940092  1  -0.035187  0  -0.080295  -0.172795  0  3.926867  0
N  N228  1  0.07890982  0.74642982  0.91243375  1  -1.240707  0  -0.321254  -0.23082  0  3.489477  0
N  N229  1  0.33197218  0.25400549  0.58779942  1  -1.227307  0  -0.322786  -0.233079  0  3.491018  0
N  N230  1  0.92108571  0.25357767  0.08757257  1  -1.238444  0  -0.321183  -0.2305  0  3.489639  0
N  N231  1  0.66803134  0.74599585  0.41220214  1  -1.227502  0  -0.322765  -0.233045  0  3.490691  0
N  N232  1  0.08187479  0.12016103  0.17298854  1  -1.23965  0  -0.304645  -0.237498  0  3.414108  0
N  N233  1  0.96218190  0.87995990  0.32702419  1  -1.241569  0  -0.304732  -0.237303  0  3.413672  0
N  N234  1  0.91811085  0.87983878  0.82702238  1  -1.239546  0  -0.304539  -0.237538  0  3.41404  0
N  N235  1  0.03784367  0.12002916  0.67298065  1  -1.239927  0  -0.304592  -0.237206  0  3.414094  0
N  N236  1  0.19454721  0.55227778  0.87661385  1  -1.212909  0  -0.325391  -0.250673  0  3.499827  0
N  N237  1  0.64230047  0.44861202  0.62348438  1  -1.201151  0  -0.324939  -0.250132  0  3.499755  0
N  N238  1  0.80544800  0.44770896  0.12338225  1  -1.212589  0  -0.325179  -0.250333  0  3.499683  0
N  N239  1  0.35770862  0.55139240  0.37651695  1  -1.210831  0  -0.324995  -0.250206  0  3.499739  0
N  N240  1  0.47178010  0.22012575  0.01760580  1  -1.216843  0  -0.326216  -0.282494  0  3.329942  0
N  N241  1  0.25260044  0.77995361  0.48228526  1  -1.21704  0  -0.326485  -0.281935  0  3.330219  0
N  N242  1  0.52821733  0.77986945  0.98239858  1  -1.216319  0  -0.3264  -0.282655  0  3.33  0
N  N243  1  0.74740793  0.22005542  0.51771122  1  -1.216706  0  -0.326552  -0.281904  0  3.330167  0
O  O244  1  0.90519948  0.69622865  0.76454093  1  -1.254303  0  -0.578698  -0.731249  0  2.093167  0
O  O245  1  0.20855745  0.30397179  0.73540651  1  -1.238856  0  -0.579275  -0.73267  0  2.093673  0
O  O246  1  0.09480997  0.30378653  0.23546032  1  -1.254353  0  -0.578714  -0.73128  0  2.093095  0
O  O247  1  0.79144353  0.69602648  0.26459527  1  -1.238686  0  -0.579232  -0.732621  0  2.093585  0
O  O248  1  0.51652555  0.23380308  0.70587637  1  -1.188693  0  -0.356107  -0.587039  0  2.129412  0
O  O249  1  0.28255294  0.76668848  0.79387286  1  -1.187808  0  -0.356653  -0.586881  0  2.127559  0
O  O250  1  0.48347463  0.76620364  0.29411993  1  -1.18852  0  -0.356107  -0.58711  0  2.129374  0
O  O251  1  0.71743533  0.23331055  0.20612709  1  -1.18779  0  -0.356673  -0.586941  0  2.127592  0
O  O252  1  0.55272320  0.37702694  0.77427909  1  -1.16217  0  -0.335826  -0.552395  0  2.215445  0
O  O253  1  0.17621244  0.62292580  0.72578733  1  -1.175496  0  -0.33499  -0.551024  0  2.215336  0
O  O254  1  0.44728168  0.62298516  0.22571811  1  -1.162282  0  -0.33586  -0.552514  0  2.215582  0
O  O255  1  0.82378225  0.37707399  0.27420888  1  -1.175574  0  -0.335031  -0.551098  0  2.21526  0
O  O256  1  0.84647647  0.52520408  0.87857383  1  -1.202983  0  -0.347827  -0.603504  0  2.204417  0
O  O257  1  0.32070791  0.47518097  0.62165413  1  -1.205651  0  -0.347874  -0.603622  0  2.204783  0
O  O258  1  0.15352427  0.47479572  0.12142476  1  -1.203271  0  -0.347862  -0.603604  0  2.204579  0
O  O259  1  0.67927533  0.52481806  0.37834344  1  -1.205907  0  -0.34798  -0.603713  0  2.204837  0
O  O260  1  0.89920678  0.44875366  0.78751964  1  -1.185788  0  -0.336938  -0.560766  0  2.170882  0
O  O261  1  0.45078443  0.55178608  0.71254150  1  -1.180251  0  -0.337033  -0.560875  0  2.171166  0
O  O262  1  0.10079472  0.55124768  0.21247717  1  -1.185784  0  -0.336893  -0.560744  0  2.170797  0
O  O263  1  0.54920239  0.44820603  0.28745409  1  -1.180467  0  -0.336961  -0.560826  0  2.170907  0
