# generated using pymatgen
data_MnH12(C8O3)2
_symmetry_space_group_name_H-M   'P 1'
_cell_length_a   7.20003807
_cell_length_b   8.37309396
_cell_length_c   12.75823655
_cell_angle_alpha   109.11424289
_cell_angle_beta   95.29198462
_cell_angle_gamma   90.00301738
_symmetry_Int_Tables_number   1
_chemical_formula_structural   MnH12(C8O3)2
_chemical_formula_sum   'Mn2 H24 C32 O12'
_cell_volume   723.27356993
_cell_formula_units_Z   2
loop_
 _symmetry_equiv_pos_site_id
 _symmetry_equiv_pos_as_xyz
  1  'x, y, z'
loop_
 _atom_site_type_symbol
 _atom_site_label
 _atom_site_symmetry_multiplicity
 _atom_site_fract_x
 _atom_site_fract_y
 _atom_site_fract_z
 _atom_site_occupancy
 _atom_site_hle17_ddec_charge
 _atom_site_hle17_ddec_spin_density
 _atom_site_hle17_ddec_sum_bond_order
 _atom_site_hle17_magmom
 _atom_site_hse06_10hf_ddec_charge
 _atom_site_hse06_10hf_ddec_spin_density
 _atom_site_hse06_10hf_ddec_sum_bond_order
 _atom_site_hse06_10hf_magmom
 _atom_site_hse06_ddec_charge
 _atom_site_hse06_ddec_spin_density
 _atom_site_hse06_ddec_sum_bond_order
 _atom_site_hse06_magmom
 _atom_site_pbe_cm5_charge
 _atom_site_pbe_ddec_charge
 _atom_site_pbe_ddec_spin_density
 _atom_site_pbe_ddec_sum_bond_order
 _atom_site_pbe_magmom
Mn  Mn0  1  0.25013985  0.93430056  0.00004257  1  1.228429  4.789178  1.729902  4.66  1.067517  4.712347  2.234068  4.517  1.131111  4.761862  2.157192  4.589  0.625145  1.018221  4.659218  2.290037  4.444
Mn  Mn1  1  0.74986084  0.06568620  0.99996248  1  1.228296  4.789167  1.729984  4.66  1.067413  4.712353  2.234163  4.517  1.131003  4.761863  2.157299  4.589  0.625108  1.018112  4.659228  2.29013  4.444
H  H2  1  0.16176355  0.96122021  0.65990336  1  0.10353  -0.000296  0.965667  0.0  0.11212  -0.000159  1.029629  0.0  0.115885  -0.000213  1.026548  0.0  0.104626  0.109336  -9.6e-05  1.03194  0.0
H  H3  1  0.33839018  0.30126485  0.34023859  1  0.103738  -0.000291  0.9656  0.0  0.112262  -0.000153  1.029568  0.0  0.116126  -0.000211  1.026368  0.0  0.104676  0.109445  -8.5e-05  1.031927  0.0
H  H4  1  0.83824300  0.03877294  0.34009793  1  0.103416  -0.000289  0.965937  0.0  0.112083  -0.000159  1.02979  0.0  0.115851  -0.000213  1.026702  0.0  0.104575  0.109281  -9.6e-05  1.03212  0.0
H  H5  1  0.66160640  0.69875874  0.65976415  1  0.103667  -0.000293  0.965595  0.0  0.112253  -0.000153  1.02949  0.0  0.116118  -0.000211  1.02629  0.0  0.104672  0.109436  -8.4e-05  1.031848  0.0
H  H6  1  0.55627577  0.23511775  0.64521319  1  0.105155  5.9e-05  0.981062  0.0  0.11464  4.4e-05  1.04516  0.0  0.117202  2.7e-05  1.045813  0.0  0.102274  0.112869  7e-05  1.04473  0.0
H  H7  1  0.94311498  0.59063570  0.35439363  1  0.105101  5.5e-05  0.980869  0.0  0.114113  2.9e-05  1.045557  0.0  0.116547  1.7e-05  1.046394  0.0  0.102211  0.112386  4.7e-05  1.04507  0.0
H  H8  1  0.44373775  0.76487536  0.35479003  1  0.105165  5.5e-05  0.98085  0.0  0.114606  4.4e-05  1.045018  0.0  0.117166  2.7e-05  1.045676  0.0  0.102247  0.112834  7e-05  1.044589  0.0
H  H9  1  0.05689864  0.40935879  0.64560207  1  0.104969  5.8e-05  0.980995  0.0  0.114001  2.9e-05  1.045674  0.0  0.116416  1.6e-05  1.046533  0.0  0.102197  0.112275  4.6e-05  1.045187  0.0
H  H10  1  0.71053801  0.12830482  0.47683129  1  0.09252  -9.1e-05  0.954307  0.0  0.105872  3.8e-05  1.010388  0.0  0.108382  1.7e-05  1.009029  0.0  0.102435  0.104016  6.2e-05  1.011449  0.0
H  H11  1  0.78861901  0.65260427  0.52273338  1  0.092909  -0.000107  0.95411  0.0  0.106014  5.3e-05  1.010495  0.0  0.108619  2.5e-05  1.008952  0.0  0.102388  0.104096  8.8e-05  1.011701  0.0
H  H12  1  0.28946428  0.87168703  0.52317339  1  0.092522  -9.5e-05  0.954304  0.0  0.105839  3.8e-05  1.010441  0.0  0.108355  1.7e-05  1.00907  0.0  0.102443  0.104006  6.2e-05  1.011474  0.0
H  H13  1  0.21139404  0.34741173  0.47726623  1  0.092948  -0.000109  0.954131  0.0  0.106029  5.4e-05  1.010545  0.0  0.108635  2.5e-05  1.009  0.0  0.102403  0.104113  8.8e-05  1.011749  0.0
H  H14  1  0.47544465  0.34444697  0.93029000  1  0.117444  -0.000691  0.935767  0.0  0.134005  -0.000706  0.995182  0.0  0.135665  -0.000736  0.993731  0.0  0.11251  0.132653  -0.000664  0.996363  0.0
H  H15  1  0.02544223  0.41296190  0.06978651  1  0.11811  -0.000701  0.935359  0.0  0.134843  -0.000715  0.994313  0.0  0.136449  -0.000744  0.992954  0.0  0.112634  0.133496  -0.000673  0.995473  0.0
H  H16  1  0.52454520  0.65554628  0.06970569  1  0.117534  -0.000723  0.93565  0.0  0.134003  -0.000706  0.995166  0.0  0.135659  -0.000737  0.993718  0.0  0.1125  0.132651  -0.000663  0.996352  0.0
H  H17  1  0.97454948  0.58704279  0.93020711  1  0.118125  -0.000715  0.935355  0.0  0.134843  -0.000715  0.994335  0.0  0.136451  -0.000744  0.992973  0.0  0.112631  0.133479  -0.000673  0.995516  0.0
H  H18  1  0.53127392  0.41693172  0.81820079  1  0.076186  -0.000129  0.979231  0.0  0.089995  -7.6e-05  1.051294  0.0  0.089457  -0.000112  1.052626  0.0  0.093191  0.090313  -2.2e-05  1.050488  0.0
H  H19  1  0.96943133  0.59770667  0.18148107  1  0.076635  -0.000125  0.979559  0.0  0.090761  -7.1e-05  1.051083  0.0  0.090281  -0.000109  1.052297  0.0  0.09347  0.091034  -1.6e-05  1.050334  0.0
H  H20  1  0.46872459  0.58306911  0.18179626  1  0.076226  -0.000147  0.979351  0.0  0.090065  -7.6e-05  1.051358  0.0  0.089524  -0.000112  1.052691  0.0  0.093213  0.09038  -2.2e-05  1.050557  0.0
H  H21  1  0.03056010  0.40229164  0.81851583  1  0.07661  -0.00013  0.979527  0.0  0.090764  -7.1e-05  1.051034  0.0  0.090268  -0.000109  1.052265  0.0  0.093487  0.091037  -1.6e-05  1.050282  0.0
H  H22  1  0.40485939  0.21880894  0.78911063  1  0.088852  -0.000217  0.933657  0.0  0.106648  -0.000217  0.998781  0.0  0.106577  -0.000252  0.99899  0.0  0.099607  0.10661  -0.000165  0.99872  0.0
H  H23  1  0.09559282  0.42894011  0.21115197  1  0.089329  -0.000224  0.93358  0.0  0.106653  -0.000212  0.999124  0.0  0.106577  -0.000248  0.999325  0.0  0.099829  0.106648  -0.000161  0.999037  0.0
H  H24  1  0.59512780  0.78118692  0.21088079  1  0.088938  -0.000233  0.93373  0.0  0.106737  -0.000216  0.998826  0.0  0.106681  -0.000253  0.999019  0.0  0.099658  0.106723  -0.000165  0.99874  0.0
H  H25  1  0.90440583  0.57106333  0.78884018  1  0.089246  -0.000226  0.933677  0.0  0.106572  -0.000212  0.999229  0.0  0.106498  -0.000248  0.999426  0.0  0.099797  0.106569  -0.000161  0.99914  0.0
C  C26  1  0.95183869  0.03327803  0.55134867  1  0.021461  -0.001861  3.810542  -0.001  0.035082  -0.000994  4.049901  -0.001  0.032019  -0.001344  4.075617  -0.001  -0.022551  0.037025  -0.00089  4.032504  -0.001
C  C27  1  0.54805528  0.48215847  0.44861731  1  0.021642  -0.002046  3.810771  -0.001  0.035305  -0.001025  4.05018  -0.001  0.03223  -0.001414  4.075913  -0.001  -0.022894  0.037246  -0.000903  4.032838  -0.001
C  C28  1  0.04815830  0.96672257  0.44866550  1  0.021296  -0.001896  3.810289  -0.001  0.034928  -0.000993  4.049685  -0.001  0.03186  -0.001351  4.075404  -0.001  -0.022566  0.036873  -0.00089  4.03229  -0.001
C  C29  1  0.45195744  0.51784871  0.55137878  1  0.021777  -0.002035  3.810764  -0.001  0.035485  -0.001024  4.050136  -0.001  0.032417  -0.001409  4.075866  -0.001  -0.022744  0.037421  -0.000903  4.032796  -0.001
C  C30  1  0.02902802  0.02109775  0.65320559  1  -0.093668  0.003451  3.720268  0.003  -0.126157  0.003981  3.97278  0.003  -0.123512  0.003157  3.99038  0.003  -0.083512  -0.127802  0.005312  3.961099  0.004
C  C31  1  0.47102341  0.36792581  0.34685966  1  -0.093821  0.003308  3.718911  0.003  -0.126262  0.003779  3.97123  0.003  -0.123736  0.003026  3.988783  0.003  -0.082861  -0.127886  0.005069  3.959621  0.004
C  C32  1  0.97096881  0.97889784  0.34680354  1  -0.093588  0.003451  3.719825  0.003  -0.126183  0.003983  3.972292  0.003  -0.12354  0.003163  3.989898  0.003  -0.08352  -0.127813  0.005315  3.960617  0.004
C  C33  1  0.52897429  0.63209021  0.65313991  1  -0.093863  0.003316  3.71877  0.003  -0.126368  0.003779  3.97109  0.003  -0.123848  0.003022  3.988648  0.003  -0.082892  -0.12799  0.00507  3.959478  0.004
C  C34  1  0.94451260  0.08448283  0.75251450  1  -0.175339  -0.00364  3.751956  -0.002  -0.16292  -0.002364  4.00116  -0.002  -0.173725  -0.003129  4.019134  -0.002  -0.028861  -0.156142  -0.001689  3.989896  -0.002
C  C35  1  0.55573578  0.33162943  0.24752912  1  -0.174966  -0.003973  3.750513  -0.003  -0.161647  -0.002616  3.999164  -0.002  -0.172449  -0.00337  4.017157  -0.002  -0.028783  -0.154879  -0.001944  3.987933  -0.002
C  C36  1  0.05547881  0.91551424  0.24747978  1  -0.175381  -0.003628  3.751812  -0.002  -0.162828  -0.002368  4.000944  -0.002  -0.173644  -0.003138  4.018928  -0.002  -0.028831  -0.156049  -0.001691  3.989671  -0.002
C  C37  1  0.44426853  0.66837768  0.75247198  1  -0.174774  -0.00398  3.750415  -0.003  -0.161459  -0.002618  3.999019  -0.002  -0.17226  -0.003364  4.017013  -0.002  -0.028795  -0.154692  -0.001946  3.987787  -0.002
C  C38  1  0.76957987  0.16214128  0.75063590  1  0.278803  0.00254  3.75762  0.003  0.259901  0.003426  4.012875  0.003  0.27499  0.002638  4.027232  0.003  0.098307  0.249446  0.004634  4.003404  0.004
C  C39  1  0.73056291  0.41132363  0.24929390  1  0.278266  0.002904  3.757207  0.003  0.259481  0.003718  4.012269  0.004  0.274611  0.002871  4.026565  0.003  0.098015  0.248988  0.005002  4.002853  0.005
C  C40  1  0.23040863  0.83785323  0.24936078  1  0.278711  0.002537  3.758241  0.003  0.259851  0.003426  4.013405  0.003  0.274967  0.002643  4.02774  0.003  0.098327  0.249403  0.004635  4.003922  0.004
C  C41  1  0.26943997  0.58868226  0.75070450  1  0.278037  0.00291  3.757362  0.003  0.259272  0.00372  4.012362  0.004  0.274407  0.002866  4.026651  0.003  0.098019  0.248777  0.005003  4.002945  0.005
C  C42  1  0.68931460  0.17481490  0.64926748  1  -0.208792  -0.002319  3.772468  -0.002  -0.227117  -0.001207  4.02528  -0.001  -0.235109  -0.001613  4.046204  -0.001  -0.110538  -0.221855  -0.001085  4.011272  -0.001
C  C43  1  0.81028851  0.52602967  0.35043824  1  -0.208354  -0.00252  3.773636  -0.002  -0.226171  -0.00121  4.026919  -0.001  -0.234069  -0.001658  4.047837  -0.001  -0.110684  -0.220975  -0.001047  4.012959  -0.001
C  C44  1  0.31067959  0.82518217  0.35072694  1  -0.208728  -0.002329  3.772291  -0.002  -0.227004  -0.001207  4.025055  -0.001  -0.235003  -0.001618  4.045977  -0.001  -0.110483  -0.221747  -0.001086  4.011056  -0.001
C  C45  1  0.18971967  0.47396862  0.64955878  1  -0.20801  -0.002536  3.773553  -0.002  -0.225846  -0.00121  4.026788  -0.001  -0.23373  -0.001655  4.047719  -0.001  -0.110617  -0.220653  -0.001047  4.012831  -0.001
C  C46  1  0.77901290  0.11265332  0.55252719  1  -0.065466  0.002987  3.733315  0.002  -0.085674  0.003729  3.978576  0.003  -0.083732  0.002949  3.997753  0.002  -0.082732  -0.086755  0.005143  3.965444  0.004
C  C47  1  0.72049750  0.56081285  0.44719478  1  -0.066486  0.003422  3.733643  0.003  -0.086756  0.004061  3.979428  0.003  -0.084754  0.003206  3.9984  0.002  -0.08284  -0.087933  0.005605  3.96649  0.004
C  C48  1  0.22098670  0.88734108  0.44747635  1  -0.065526  0.003021  3.733243  0.003  -0.085718  0.00373  3.978535  0.003  -0.08377  0.002954  3.997711  0.002  -0.082781  -0.086819  0.005146  3.965401  0.004
C  C49  1  0.27951667  0.43919558  0.55280166  1  -0.066727  0.003429  3.733664  0.003  -0.087002  0.004061  3.979481  0.003  -0.085  0.003206  3.998446  0.002  -0.082942  -0.088178  0.005606  3.966546  0.004
C  C50  1  0.04587554  0.06527764  0.85441722  1  0.679001  0.01581  3.850987  0.014  0.627975  0.02464  4.139657  0.02  0.666557  0.019152  4.129868  0.016  0.222719  0.600505  0.030548  4.145813  0.024
C  C51  1  0.45438514  0.21057448  0.14570266  1  0.676884  0.015898  3.853195  0.014  0.6247  0.024839  4.143394  0.02  0.663329  0.019284  4.133637  0.016  0.221482  0.597171  0.030831  4.149571  0.025
C  C52  1  0.95411260  0.93470797  0.14558140  1  0.679133  0.015789  3.850797  0.013  0.627908  0.024641  4.139656  0.02  0.666487  0.019151  4.129872  0.016  0.222546  0.600439  0.030547  4.145813  0.024
C  C53  1  0.54560969  0.78944024  0.85429960  1  0.67692  0.015901  3.853042  0.014  0.624784  0.024843  4.143151  0.02  0.663416  0.019286  4.13339  0.016  0.221566  0.597252  0.030835  4.149332  0.025
C  C54  1  0.51334399  0.30638438  0.84479752  1  -0.069251  -0.000262  3.58015  0.0  -0.1665  5.4e-05  3.840485  0.0  -0.158776  -0.000179  3.843598  0.0  -0.139008  -0.171629  0.000293  3.838404  0.0
C  C55  1  0.98734214  0.46065238  0.15521674  1  -0.070792  -0.000237  3.582015  0.0  -0.167493  6.5e-05  3.841864  0.0  -0.159689  -0.000169  3.844896  0.0  -0.139471  -0.172668  0.00031  3.839848  0.0
C  C56  1  0.48665422  0.69360885  0.15519941  1  -0.06952  -0.000167  3.580384  0.0  -0.166698  5.4e-05  3.840726  0.0  -0.158967  -0.000176  3.843809  0.0  -0.139094  -0.171843  0.000293  3.838631  0.0
C  C57  1  0.01265504  0.53934975  0.84477818  1  -0.070691  -0.000206  3.582001  0.0  -0.167429  6.5e-05  3.841854  0.0  -0.159613  -0.000169  3.8449  0.0  -0.13944  -0.172594  0.00031  3.839849  0.0
O  O58  1  0.19094017  0.97639698  0.84456403  1  -0.631119  0.039681  2.022754  0.03  -0.569835  0.046497  2.279953  0.033  -0.6023  0.039876  2.268775  0.027  -0.302316  -0.545525  0.053501  2.286704  0.04
O  O59  1  0.30969738  0.13110030  0.15564111  1  -0.630917  0.039811  2.023733  0.03  -0.568914  0.046652  2.281011  0.033  -0.6013  0.039982  2.269783  0.027  -0.30198  -0.544654  0.053717  2.287753  0.04
O  O60  1  0.80904795  0.02359095  0.15544999  1  -0.631253  0.039695  2.022568  0.03  -0.569843  0.046496  2.279716  0.033  -0.602301  0.039877  2.268533  0.027  -0.302299  -0.545535  0.0535  2.28647  0.04
O  O61  1  0.69032187  0.86889544  0.84435516  1  -0.630902  0.039802  2.023546  0.03  -0.568993  0.04665  2.280878  0.033  -0.601382  0.039982  2.269652  0.027  -0.302027  -0.544729  0.053715  2.287619  0.04
O  O62  1  0.98986768  0.13743466  0.95125746  1  -0.683957  0.042665  2.105973  0.021  -0.618352  0.054568  2.389968  0.028  -0.650905  0.047551  2.371837  0.022  -0.316313  -0.593404  0.061532  2.40143  0.034
O  O63  1  0.51007905  0.18630942  0.04879665  1  -0.682395  0.042559  2.104735  0.021  -0.616604  0.0545  2.388955  0.028  -0.649158  0.04746  2.370766  0.022  -0.316152  -0.591688  0.061529  2.400516  0.035
O  O64  1  0.01013080  0.86256611  0.04874428  1  -0.684015  0.04267  2.105956  0.021  -0.61831  0.054574  2.389988  0.028  -0.650861  0.047555  2.371852  0.022  -0.316235  -0.593354  0.061537  2.401438  0.034
O  O65  1  0.48992226  0.81369260  0.95120631  1  -0.682494  0.042564  2.104804  0.021  -0.61662  0.054502  2.38891  0.028  -0.649177  0.047462  2.370719  0.022  -0.316151  -0.591705  0.06153  2.400476  0.035
O  O66  1  0.68773342  0.22311049  0.84741382  1  -0.249689  0.007678  2.392594  0.003  -0.16356  0.012333  2.630262  0.007  -0.184499  0.011185  2.632582  0.007  -0.162125  -0.148675  0.013443  2.62822  0.008
O  O67  1  0.81288917  0.37490293  0.15262670  1  -0.248782  0.007713  2.392099  0.003  -0.163798  0.012357  2.630597  0.007  -0.184783  0.011208  2.632961  0.007  -0.161887  -0.148912  0.013471  2.628572  0.008
O  O68  1  0.31226750  0.77688258  0.15259420  1  -0.2495  0.007673  2.392799  0.003  -0.163502  0.012334  2.630536  0.007  -0.184459  0.011186  2.632854  0.007  -0.162068  -0.148615  0.013444  2.628488  0.008
O  O69  1  0.18711644  0.62510165  0.84737392  1  -0.248764  0.007709  2.392115  0.003  -0.163762  0.012361  2.630599  0.007  -0.184742  0.01121  2.63295  0.007  -0.161919  -0.148869  0.013474  2.628564  0.008
