# generated using pymatgen
data_CdH10C9(NO3)2
_symmetry_space_group_name_H-M   'P 1'
_cell_length_a   7.31039384
_cell_length_b   7.52019530
_cell_length_c   29.34960000
_cell_angle_alpha   90.00000000
_cell_angle_beta   90.00000000
_cell_angle_gamma   94.40439536
_symmetry_Int_Tables_number   1
_chemical_formula_structural   CdH10C9(NO3)2
_chemical_formula_sum   'Cd4 H40 C36 N8 O24'
_cell_volume   1608.74663939
_cell_formula_units_Z   4
loop_
 _symmetry_equiv_pos_site_id
 _symmetry_equiv_pos_as_xyz
  1  'x, y, z'
loop_
 _atom_site_type_symbol
 _atom_site_label
 _atom_site_symmetry_multiplicity
 _atom_site_fract_x
 _atom_site_fract_y
 _atom_site_fract_z
 _atom_site_occupancy
 _atom_site_hle17_bader_spin_density
 _atom_site_hle17_ddec_charge
 _atom_site_hle17_ddec_spin_density
 _atom_site_hle17_ddec_sum_bond_order
 _atom_site_hle17_magmom
 _atom_site_hse06_10hf_bader_spin_density
 _atom_site_hse06_10hf_ddec_charge
 _atom_site_hse06_10hf_ddec_spin_density
 _atom_site_hse06_10hf_ddec_sum_bond_order
 _atom_site_hse06_10hf_magmom
 _atom_site_hse06_bader_spin_density
 _atom_site_hse06_ddec_charge
 _atom_site_hse06_ddec_spin_density
 _atom_site_hse06_ddec_sum_bond_order
 _atom_site_hse06_magmom
 _atom_site_pbe_bader_charge
 _atom_site_pbe_bader_spin_density
 _atom_site_pbe_cm5_charge
 _atom_site_pbe_ddec_charge
 _atom_site_pbe_ddec_spin_density
 _atom_site_pbe_ddec_sum_bond_order
 _atom_site_pbe_magmom
Cd  Cd0  1  0.79165095  0.17390000  0.78076328  1  0  1.179005  0  1.67299  0  0  0.995701  0  2.126505  0  0  1.052814  0  2.069731  0  1.307735  0  0.765182  0.954953  0  2.165358  0
Cd  Cd1  1  0.70834198  0.32610085  0.28076124  1  0  1.178984  0  1.673087  0  0  0.995684  0  2.126613  0  0  1.052798  0  2.069839  0  1.307759  0  0.765138  0.954935  0  2.165468  0
Cd  Cd2  1  0.20834260  0.82609904  0.21923876  1  0  1.178962  0  1.673126  0  0  0.99565  0  2.126664  0  0  1.052766  0  2.069889  0  1.307749  0  0.765142  0.954902  0  2.165518  0
Cd  Cd3  1  0.29165736  0.67390220  0.71923774  1  0  1.17898  0  1.673083  0  0  0.995665  0  2.126601  0  0  1.05278  0  2.069831  0  1.307758  0  0.765134  0.954918  0  2.165454  0
H  H4  1  0.31565690  0.83711133  0.97523646  1  0  0.329755  0  0.882347  0  0  0.321501  0  0.929489  0  0  0.328  0  0.925248  0  0.453842  0  0.318407  0.316876  0  0.932555  0
H  H5  1  0.18433191  0.66288724  0.47523407  1  0  0.329744  0  0.882401  0  0  0.321496  0  0.929529  0  0  0.327996  0  0.925287  0  0.453773  0  0.318373  0.31687  0  0.932595  0
H  H6  1  0.68433139  0.16289038  0.02476627  1  0  0.329734  0  0.882365  0  0  0.32149  0  0.929489  0  0  0.32799  0  0.925247  0  0.453753  0  0.31836  0.316864  0  0.932555  0
H  H7  1  0.81567017  0.33709847  0.52476320  1  0  0.329703  0  0.882378  0  0  0.321463  0  0.929509  0  0  0.327963  0  0.925266  0  0.453655  0  0.318366  0.316837  0  0.932573  0
H  H8  1  0.11938188  0.89254221  0.00601814  1  0  0.35403  0  0.917405  0  0  0.333474  0  0.982487  0  0  0.343297  0  0.973853  0  0.542891  0  0.296983  0.326516  0  0.988584  0
H  H9  1  0.38061840  0.60746303  0.50601269  1  0  0.353948  0  0.917548  0  0  0.3334  0  0.982603  0  0  0.343223  0  0.973973  0  0.542965  0  0.296984  0.326447  0  0.988684  0
H  H10  1  0.88061526  0.10746751  0.99398697  1  0  0.353909  0  0.917606  0  0  0.333365  0  0.982659  0  0  0.343187  0  0.974029  0  0.543011  0  0.296965  0.326411  0  0.988743  0
H  H11  1  0.61939399  0.39253202  0.49398118  1  0  0.353859  0  0.917576  0  0  0.333312  0  0.982644  0  0  0.343136  0  0.974012  0  0.542895  0  0.296946  0.326355  0  0.988736  0
H  H12  1  0.06695326  0.06381579  0.73143314  1  0  0.414849  0  0.892405  0  0  0.382462  0  0.9583  0  0  0.394121  0  0.941428  0  0.647017  0  0.28053  0.374249  0  0.970149  0
H  H13  1  0.43304020  0.43618506  0.23143314  1  0  0.41482  0  0.892418  0  0  0.38245  0  0.95828  0  0  0.394108  0  0.94141  0  0.646994  0  0.280528  0.374238  0  0.970129  0
H  H14  1  0.93304187  0.93618592  0.26856686  1  0  0.414832  0  0.892401  0  0  0.38246  0  0.958268  0  0  0.394119  0  0.941398  0  0.646997  0  0.280536  0.374248  0  0.970117  0
H  H15  1  0.56695756  0.56381532  0.76856686  1  0  0.414871  0  0.892351  0  0  0.382499  0  0.958217  0  0  0.394157  0  0.941347  0  0.646994  0  0.280563  0.374287  0  0.970066  0
H  H16  1  0.07749010  0.27842139  0.73243213  1  0  0.411808  0  0.895874  0  0  0.381042  0  0.959938  0  0  0.392167  0  0.943715  0  0.628406  0  0.281698  0.373196  0  0.971354  0
H  H17  1  0.42250483  0.22158080  0.23243213  1  0  0.411798  0  0.895887  0  0  0.381029  0  0.959953  0  0  0.392153  0  0.943733  0  0.628391  0  0.281707  0.373183  0  0.971369  0
H  H18  1  0.92250514  0.72158166  0.26756821  1  0  0.411822  0  0.895851  0  0  0.381064  0  0.959899  0  0  0.392189  0  0.943677  0  0.628392  0  0.281719  0.373219  0  0.971315  0
H  H19  1  0.57749167  0.77842091  0.76756855  1  0  0.411789  0  0.895896  0  0  0.381029  0  0.959948  0  0  0.392155  0  0.943723  0  0.628393  0  0.281711  0.373183  0  0.971364  0
H  H20  1  0.54124650  0.18757034  0.64077125  1  0  0.141704  0  0.914905  0  0  0.152143  0  0.969128  0  0  0.156744  0  0.965856  0  0.112073  0  0.104611  0.148883  0  0.971509  0
H  H21  1  0.95875201  0.31243185  0.14077091  1  0  0.141669  0  0.914951  0  0  0.152099  0  0.969192  0  0  0.156699  0  0.965921  0  0.112068  0  0.104591  0.14884  0  0.971573  0
H  H22  1  0.45875136  0.81243138  0.35922909  1  0  0.141634  0  0.914984  0  0  0.152045  0  0.969246  0  0  0.156645  0  0.965974  0  0.112006  0  0.104578  0.148786  0  0.971628  0
H  H23  1  0.04124712  0.68756853  0.85922841  1  0  0.141678  0  0.914918  0  0  0.152122  0  0.96915  0  0  0.156721  0  0.965879  0  0.11208  0  0.104612  0.148863  0  0.971531  0
H  H24  1  0.75430923  0.19702888  0.67243574  1  0  0.155559  0  0.929351  0  0  0.167367  0  0.987116  0  0  0.171185  0  0.985031  0  0.088814  0  0.110907  0.164698  0  0.988636  0
H  H25  1  0.74568928  0.30297331  0.17243540  1  0  0.155532  0  0.929343  0  0  0.167345  0  0.987115  0  0  0.171163  0  0.985027  0  0.088795  0  0.110889  0.164674  0  0.988639  0
H  H26  1  0.24568863  0.80297284  0.32756528  1  0  0.155514  0  0.929347  0  0  0.16733  0  0.987119  0  0  0.171148  0  0.98503  0  0.088784  0  0.110883  0.164659  0  0.988644  0
H  H27  1  0.25430869  0.69702974  0.82756460  1  0  0.155549  0  0.929288  0  0  0.167372  0  0.987055  0  0  0.17119  0  0.984967  0  0.08881  0  0.110919  0.1647  0  0.988579  0
H  H28  1  0.36057658  0.23500040  0.80269850  1  0  0.090341  0  0.928133  0  0  0.097918  0  0.990495  0  0  0.100376  0  0.988958  0  0.124761  0  0.12069  0.096117  0  0.991646  0
H  H29  1  0.13942078  0.26499779  0.30269441  1  0  0.090289  0  0.928132  0  0  0.097847  0  0.990519  0  0  0.100298  0  0.989  0  0.124575  0  0.120679  0.096047  0  0.991665  0
H  H30  1  0.63942518  0.76499864  0.19730490  1  0  0.090291  0  0.928046  0  0  0.097848  0  0.990425  0  0  0.100301  0  0.988901  0  0.124618  0  0.120675  0.096048  0  0.991571  0
H  H31  1  0.86057962  0.73500126  0.69730150  1  0  0.090338  0  0.928174  0  0  0.097908  0  0.990538  0  0  0.100364  0  0.989008  0  0.124718  0  0.120714  0.09611  0  0.991681  0
H  H32  1  0.12838330  0.18820651  0.86544655  1  0  0.12673  0  0.956794  0  0  0.130514  0  1.025322  0  0  0.134428  0  1.023335  0  0.132699  0  0.113484  0.127663  0  1.026959  0
H  H33  1  0.37161163  0.31179568  0.36544314  1  0  0.126778  0  0.956777  0  0  0.130509  0  1.025307  0  0  0.13442  0  1.023327  0  0.132344  0  0.113526  0.127659  0  1.026944  0
H  H34  1  0.87161341  0.81179787  0.13455618  1  0  0.126755  0  0.956755  0  0  0.130526  0  1.025296  0  0  0.134438  0  1.023314  0  0.132731  0  0.113504  0.127674  0  1.02693  0
H  H35  1  0.62839676  0.68820070  0.63455175  1  0  0.126731  0  0.956656  0  0  0.13046  0  1.025233  0  0  0.134367  0  1.023259  0  0.132431  0  0.113514  0.127613  0  1.026876  0
H  H36  1  0.55594370  0.97830389  0.94704970  1  0  0.095283  0  0.968164  0  0  0.101999  0  1.034718  0  0  0.10539  0  1.033767  0  0.088845  0  0.103382  0.099552  0  1.035543  0
H  H37  1  0.94404732  0.52169468  0.44704527  1  0  0.095173  0  0.968279  0  0  0.101766  0  1.034985  0  0  0.105155  0  1.034041  0  0.089586  0  0.103265  0.099335  0  1.035792  0
H  H38  1  0.44404754  0.02170049  0.05295507  1  0  0.095176  0  0.968265  0  0  0.101771  0  1.034964  0  0  0.10516  0  1.034017  0  0.089566  0  0.103285  0.099335  0  1.035777  0
H  H39  1  0.05595897  0.47829236  0.55295200  1  0  0.095278  0  0.968207  0  0  0.101966  0  1.034799  0  0  0.105363  0  1.033842  0  0.089989  0  0.103352  0.099491  0  1.035652  0
H  H40  1  0.76790794  0.03624039  0.88182497  1  0  0.096678  0  0.937408  0  0  0.103043  0  1.001279  0  0  0.10638  0  0.997904  0  0.130839  0  0.121233  0.100597  0  1.003756  0
H  H41  1  0.73208279  0.46374980  0.38182020  1  0  0.096753  0  0.937347  0  0  0.103117  0  1.00119  0  0  0.106458  0  0.997805  0  0.130933  0  0.121215  0.100668  0  1.003672  0
H  H42  1  0.23208772  0.96375065  0.11818015  1  0  0.096722  0  0.937462  0  0  0.103037  0  1.00135  0  0  0.106373  0  0.997973  0  0.130936  0  0.121208  0.100591  0  1.003828  0
H  H43  1  0.26791855  0.53624392  0.61817742  1  0  0.096679  0  0.937403  0  0  0.103092  0  1.00121  0  0  0.106433  0  0.997823  0  0.130842  0  0.121235  0.100642  0  1.003694  0
C  C44  1  0.54728790  0.00732463  0.69752944  1  0  0.742569  0  3.821957  0  0  0.696042  0  4.115399  0  0  0.731279  0  4.10814  0  1.601967  0  0.21498  0.671944  0  4.119617  0
C  C45  1  0.95271082  0.49268023  0.19752910  1  0  0.742624  0  3.821906  0  0  0.696101  0  4.115334  0  0  0.731352  0  4.108055  0  1.60207  0  0.215001  0.672003  0  4.119552  0
C  C46  1  0.45270586  0.99267708  0.30247090  1  0  0.742442  0  3.822148  0  0  0.69597  0  4.115493  0  0  0.731206  0  4.108235  0  1.601966  0  0.214896  0.671873  0  4.119708  0
C  C47  1  0.04729115  0.50732149  0.80247056  1  0  0.742581  0  3.821962  0  0  0.696067  0  4.115386  0  0  0.731309  0  4.10812  0  1.601985  0  0.214981  0.671968  0  4.119604  0
C  C48  1  0.60340762  0.18544444  0.67461635  1  0  -0.44003  0  3.635856  0  0  -0.475964  0  3.875763  0  0  -0.487711  0  3.87658  0  -0.104012  0  -0.172798  -0.467849  0  3.874953  0
C  C49  1  0.89659089  0.31455775  0.17461601  1  0  -0.440031  0  3.635808  0  0  -0.475968  0  3.875721  0  0  -0.487719  0  3.876542  0  -0.104082  0  -0.172843  -0.467853  0  3.874912  0
C  C50  1  0.39659025  0.81455728  0.32538433  1  0  -0.439906  0  3.635862  0  0  -0.475839  0  3.875782  0  0  -0.487581  0  3.876603  0  -0.103974  0  -0.172776  -0.467725  0  3.874972  0
C  C51  1  0.10340834  0.68544396  0.82538365  1  0  -0.439957  0  3.635736  0  0  -0.475924  0  3.87564  0  0  -0.487669  0  3.876457  0  -0.104019  0  -0.172819  -0.467807  0  3.874831  0
C  C52  1  0.54651837  0.34496725  0.70209236  1  0  0.741656  0  3.829712  0  0  0.691581  0  4.131192  0  0  0.726781  0  4.1241  0  1.580095  0  0.215616  0.667561  0  4.135221  0
C  C53  1  0.95348582  0.15503761  0.20209168  1  0  0.741557  0  3.829614  0  0  0.691493  0  4.131094  0  0  0.726692  0  4.124004  0  1.579666  0  0.215536  0.667473  0  4.135123  0
C  C54  1  0.45348371  0.65503580  0.29790866  1  0  0.741759  0  3.829382  0  0  0.69167  0  4.130893  0  0  0.726869  0  4.1238  0  1.580094  0  0.215639  0.66765  0  4.134922  0
C  C55  1  0.04651078  0.84496544  0.79790866  1  0  0.741606  0  3.829659  0  0  0.691569  0  4.131089  0  0  0.726768  0  4.123998  0  1.579674  0  0.215599  0.667548  0  4.135119  0
C  C56  1  0.39713793  0.17775171  0.83529554  1  0  0.142022  0  3.666893  0  0  0.113943  0  3.917261  0  0  0.119769  0  3.936308  0  0.462571  0  0.058234  0.110086  0  3.904388  0
C  C57  1  0.10285753  0.32223982  0.33529281  1  0  0.142228  0  3.66718  0  0  0.11411  0  3.917541  0  0  0.119937  0  3.93658  0  0.462532  0  0.058227  0.110255  0  3.904664  0
C  C58  1  0.60285931  0.82224201  0.16470616  1  0  0.142187  0  3.6671  0  0  0.114139  0  3.917474  0  0  0.119964  0  3.936517  0  0.46252  0  0.058284  0.110286  0  3.904593  0
C  C59  1  0.89714518  0.67775390  0.66470378  1  0  0.142088  0  3.667015  0  0  0.11404  0  3.917359  0  0  0.119863  0  3.936407  0  0.462674  0  0.05824  0.110185  0  3.904485  0
C  C60  1  0.26824255  0.15124859  0.87006535  1  0  -0.110489  0  3.67375  0  0  -0.132004  0  3.918076  0  0  -0.137788  0  3.939593  0  0.049954  0  -0.069705  -0.128308  0  3.903838  0
C  C61  1  0.23174671  0.34875093  0.37006024  1  0  -0.11068  0  3.673903  0  0  -0.132003  0  3.918144  0  0  -0.137799  0  3.939649  0  0.050179  0  -0.069722  -0.128287  0  3.903915  0
C  C62  1  0.73174985  0.84875312  0.12993908  1  0  -0.110532  0  3.673753  0  0  -0.13202  0  3.91811  0  0  -0.137811  0  3.939622  0  0.049846  0  -0.06972  -0.128301  0  3.903882  0
C  C63  1  0.76825306  0.65124011  0.62993431  1  0  -0.110505  0  3.673507  0  0  -0.131965  0  3.917892  0  0  -0.137776  0  3.939379  0  0.050442  0  -0.069748  -0.128263  0  3.903685  0
C  C64  1  0.32114233  0.07389717  0.91088124  1  0  -0.016042  0  3.750523  0  0  0.003551  0  3.979991  0  0  0.001076  0  4.002769  0  -0.119688  0  0.003419  0.005262  0  3.964599  0
C  C65  1  0.17885534  0.42610503  0.41087783  1  0  -0.016135  0  3.750109  0  0  0.003335  0  3.979648  0  0  0.0009  0  4.002365  0  -0.118956  0  0.003247  0.004987  0  3.964343  0
C  C66  1  0.67885596  0.92610988  0.08912183  1  0  -0.016084  0  3.7502  0  0  0.003429  0  3.979738  0  0  0.00097  0  4.002471  0  -0.119024  0  0.003402  0.005081  0  3.964432  0
C  C67  1  0.82115694  0.57388869  0.58911808  1  0  -0.016191  0  3.750502  0  0  0.003345  0  3.980033  0  0  0.000966  0  4.002678  0  -0.119945  0  0.003348  0.004999  0  3.964717  0
C  C68  1  0.50371006  0.03248205  0.91556853  1  0  -0.148517  0  3.74016  0  0  -0.167204  0  3.984148  0  0  -0.173607  0  4.00637  0  0.008108  0  -0.085127  -0.162976  0  3.969222  0
C  C69  1  0.99627972  0.46751347  0.41556341  1  0  -0.148127  0  3.74027  0  0  -0.166692  0  3.984272  0  0  -0.173108  0  4.006487  0  0.007345  0  -0.084837  -0.16246  0  3.969351  0
C  C70  1  0.49628475  0.96751566  0.08443590  1  0  -0.148191  0  3.740182  0  0  -0.166759  0  3.984185  0  0  -0.173168  0  4.006401  0  0.007356  0  -0.084952  -0.162522  0  3.96927  0
C  C71  1  0.00372383  0.53247357  0.58443284  1  0  -0.148378  0  3.740342  0  0  -0.167019  0  3.984335  0  0  -0.173459  0  4.006535  0  0.006532  0  -0.084992  -0.162746  0  3.969434  0
C  C72  1  0.62471858  0.06622977  0.87942766  1  0  0.142737  0  3.68885  0  0  0.113347  0  3.937775  0  0  0.120185  0  3.954993  0  0.485904  0  0.055809  0.108828  0  3.926081  0
C  C73  1  0.87528667  0.43377108  0.37942459  1  0  0.14248  0  3.688956  0  0  0.113132  0  3.937791  0  0  0.119969  0  3.955012  0  0.485751  0  0.055747  0.108616  0  3.926095  0
C  C74  1  0.37528055  0.93377061  0.12057541  1  0  0.142574  0  3.68875  0  0  0.113265  0  3.937597  0  0  0.120105  0  3.954812  0  0.485767  0  0.055789  0.108746  0  3.925903  0
C  C75  1  0.12472456  0.56622663  0.62057336  1  0  0.142721  0  3.688826  0  0  0.113307  0  3.937692  0  0  0.120141  0  3.954922  0  0.48637  0  0.055781  0.108791  0  3.925984  0
C  C76  1  0.18128598  0.04258209  0.94818090  1  0  0.603152  0  3.862952  0  0  0.558923  0  4.150451  0  0  0.587983  0  4.148905  0  1.436067  0  0.242511  0.539325  0  4.150769  0
C  C77  1  0.31870906  0.45742143  0.44817613  1  0  0.603151  0  3.862818  0  0  0.558925  0  4.150343  0  0  0.587981  0  4.148783  0  1.436014  0  0.242575  0.539338  0  4.150676  0
C  C78  1  0.81870295  0.95742762  0.05182387  1  0  0.603219  0  3.862621  0  0  0.559061  0  4.150044  0  0  0.588145  0  4.148446  0  1.435811  0  0.242611  0.539474  0  4.150377  0
C  C79  1  0.68130585  0.54257095  0.55181842  1  0  0.603385  0  3.862291  0  0  0.559157  0  4.14981  0  0  0.588193  0  4.148251  0  1.436134  0  0.242649  0.539575  0  4.150137  0
N  N80  1  0.57177071  0.13535366  0.83976579  1  0  -0.312351  0  3.210329  0  0  -0.239288  0  3.473182  0  0  -0.257745  0  3.49088  0  -1.207327  0  -0.31495  -0.226573  0  3.460868  0
N  N81  1  0.92822328  0.36464320  0.33976170  1  0  -0.312356  0  3.210027  0  0  -0.239316  0  3.472896  0  0  -0.257772  0  3.490592  0  -1.207483  0  -0.31491  -0.226602  0  3.460579  0
N  N82  1  0.42822811  0.86464272  0.16023864  1  0  -0.312411  0  3.210075  0  0  -0.239367  0  3.472904  0  0  -0.257825  0  3.490601  0  -1.207466  0  -0.314968  -0.226653  0  3.460589  0
N  N83  1  0.07177711  0.63535585  0.66023523  1  0  -0.312411  0  3.210306  0  0  -0.239371  0  3.473178  0  0  -0.257828  0  3.490878  0  -1.207506  0  -0.314995  -0.226656  0  3.460864  0
N  N84  1  0.21353776  0.91883860  0.97984197  1  0  -0.696992  0  3.099142  0  0  -0.657872  0  3.319069  0  0  -0.681178  0  3.312667  0  -1.325007  0  -0.565072  -0.641712  0  3.323134  0
N  N85  1  0.28645546  0.58116397  0.47983754  1  0  -0.696934  0  3.099235  0  0  -0.657814  0  3.319126  0  0  -0.681125  0  3.312732  0  -1.325181  0  -0.565058  -0.641654  0  3.323178  0
N  N86  1  0.78645642  0.08116845  0.02016211  1  0  -0.696903  0  3.099264  0  0  -0.65781  0  3.319132  0  0  -0.681127  0  3.312725  0  -1.325076  0  -0.565041  -0.641649  0  3.323188  0
N  N87  1  0.71355114  0.41882707  0.52015769  1  0  -0.696801  0  3.099266  0  0  -0.6577  0  3.319169  0  0  -0.681012  0  3.312784  0  -1.325076  0  -0.565004  -0.641538  0  3.323222  0
O  O88  1  0.04352967  0.13118054  0.94923781  1  0  -0.559171  0  1.894493  0  0  -0.515176  0  2.093283  0  0  -0.53643  0  2.085746  0  -1.150055  0  -0.298018  -0.500429  0  2.098062  0
O  O89  1  0.45647263  0.36882832  0.44923202  1  0  -0.559147  0  1.894381  0  0  -0.515145  0  2.093164  0  0  -0.536401  0  2.085627  0  -1.14995  0  -0.298042  -0.500394  0  2.097942  0
O  O90  1  0.95647567  0.86882918  0.05076730  1  0  -0.559294  0  1.894135  0  0  -0.515318  0  2.092878  0  0  -0.536584  0  2.085326  0  -1.149864  0  -0.29812  -0.500565  0  2.097657  0
O  O91  1  0.54354291  0.63117206  0.55076117  1  0  -0.559352  0  1.893817  0  0  -0.515333  0  2.092589  0  0  -0.536589  0  2.085058  0  -1.149683  0  -0.298118  -0.500584  0  2.097364  0
O  O92  1  0.61871360  0.97269839  0.73601889  1  0  -0.687218  0  2.063432  0  0  -0.613841  0  2.311162  0  0  -0.644876  0  2.299254  0  -1.192439  0  -0.328559  -0.592095  0  2.318652  0
O  O93  1  0.88127941  0.52730819  0.23601753  1  0  -0.687223  0  2.063451  0  0  -0.613851  0  2.31118  0  0  -0.644889  0  2.299263  0  -1.192462  0  -0.328466  -0.592105  0  2.318671  0
O  O94  1  0.38128058  0.02730866  0.26398315  1  0  -0.687141  0  2.063545  0  0  -0.613779  0  2.31126  0  0  -0.644812  0  2.299352  0  -1.192456  0  -0.328413  -0.592035  0  2.31875  0
O  O95  1  0.11871983  0.47269353  0.76398213  1  0  -0.687227  0  2.063444  0  0  -0.613859  0  2.311192  0  0  -0.644896  0  2.299281  0  -1.192481  0  -0.32851  -0.592114  0  2.318683  0
O  O96  1  0.61772271  0.37399104  0.74158932  1  0  -0.679369  0  2.032434  0  0  -0.605072  0  2.276084  0  0  -0.635605  0  2.264058  0  -1.187052  0  -0.324169  -0.583689  0  2.283666  0
O  O97  1  0.88227433  0.12600982  0.24158830  1  0  -0.679367  0  2.032396  0  0  -0.605068  0  2.276042  0  0  -0.635604  0  2.264019  0  -1.186989  0  -0.324134  -0.583684  0  2.283626  0
O  O98  1  0.38227379  0.62601068  0.25841170  1  0  -0.679488  0  2.032246  0  0  -0.605184  0  2.275916  0  0  -0.635721  0  2.26389  0  -1.187011  0  -0.324196  -0.5838  0  2.283498  0
O  O99  1  0.11772206  0.87399056  0.75841068  1  0  -0.679512  0  2.032246  0  0  -0.605212  0  2.275891  0  0  -0.635751  0  2.263869  0  -1.187005  0  -0.324241  -0.583827  0  2.283475  0
O  O100  1  0.43287902  0.44152116  0.68373470  1  0  -0.649447  0  1.987384  0  0  -0.589388  0  2.241125  0  0  -0.617891  0  2.229165  0  -1.173672  0  -0.324421  -0.569366  0  2.248648  0
O  O101  1  0.06712865  0.05848636  0.18373504  1  0  -0.649324  0  1.987347  0  0  -0.589269  0  2.241062  0  0  -0.617771  0  2.229104  0  -1.17327  0  -0.324344  -0.569252  0  2.248588  0
O  O102  1  0.56712464  0.55848455  0.31626530  1  0  -0.649413  0  1.98733  0  0  -0.589352  0  2.241077  0  0  -0.617853  0  2.229116  0  -1.173691  0  -0.324394  -0.569335  0  2.248605  0
O  O103  1  0.93287164  0.94151135  0.81626462  1  0  -0.649311  0  1.987587  0  0  -0.58927  0  2.241292  0  0  -0.617772  0  2.229334  0  -1.173286  0  -0.324365  -0.569256  0  2.248825  0
O  O104  1  0.43256668  0.90125921  0.67680343  1  0  -0.634345  0  1.951315  0  0  -0.57506  0  2.193272  0  0  -0.602642  0  2.180129  0  -1.167856  0  -0.328026  -0.555741  0  2.201698  0
O  O105  1  0.06743739  0.59874202  0.17680377  1  0  -0.63435  0  1.951303  0  0  -0.575076  0  2.193277  0  0  -0.602654  0  2.180108  0  -1.167911  0  -0.328064  -0.55576  0  2.201707  0
O  O106  1  0.56743666  0.09874250  0.32319657  1  0  -0.634305  0  1.951297  0  0  -0.575049  0  2.193235  0  0  -0.602634  0  2.180098  0  -1.167864  0  -0.328037  -0.555731  0  2.201664  0
O  O107  1  0.93256585  0.40125836  0.82319623  1  0  -0.634351  0  1.951338  0  0  -0.575078  0  2.193309  0  0  -0.602657  0  2.180148  0  -1.167858  0  -0.328035  -0.55576  0  2.201736  0
O  O108  1  0.00667513  0.17069248  0.72037132  1  0  -0.83387  0  1.846473  0  0  -0.773654  0  2.021063  0  0  -0.79647  0  1.987308  0  -1.255491  0  -0.596805  -0.757535  0  2.0444  0
O  O109  1  0.49331843  0.32930971  0.22037064  1  0  -0.833841  0  1.846553  0  0  -0.773624  0  2.021135  0  0  -0.796443  0  1.987392  0  -1.255468  0  -0.596825  -0.757506  0  2.044472  0
O  O110  1  0.99332000  0.82930924  0.27962936  1  0  -0.833876  0  1.846513  0  0  -0.773663  0  2.021091  0  0  -0.796483  0  1.987347  0  -1.255471  0  -0.596849  -0.757544  0  2.044428  0
O  O111  1  0.50667817  0.67069334  0.77962936  1  0  -0.833876  0  1.846483  0  0  -0.773664  0  2.021072  0  0  -0.796489  0  1.987333  0  -1.255498  0  -0.596855  -0.757545  0  2.044409  0
