# generated using pymatgen
data_CdH10C14N4O3
_symmetry_space_group_name_H-M   'P 1'
_cell_length_a   7.39149659
_cell_length_b   13.62579136
_cell_length_c   13.67077813
_cell_angle_alpha   77.07968173
_cell_angle_beta   90.27620807
_cell_angle_gamma   78.86486058
_symmetry_Int_Tables_number   1
_chemical_formula_structural   CdH10C14N4O3
_chemical_formula_sum   'Cd4 H40 C56 N16 O12'
_cell_volume   1315.06950691
_cell_formula_units_Z   4
loop_
 _symmetry_equiv_pos_site_id
 _symmetry_equiv_pos_as_xyz
  1  'x, y, z'
loop_
 _atom_site_type_symbol
 _atom_site_label
 _atom_site_symmetry_multiplicity
 _atom_site_fract_x
 _atom_site_fract_y
 _atom_site_fract_z
 _atom_site_occupancy
 _atom_site_hle17_bader_spin_density
 _atom_site_hle17_ddec_charge
 _atom_site_hle17_ddec_spin_density
 _atom_site_hle17_ddec_sum_bond_order
 _atom_site_hle17_magmom
 _atom_site_hse06_10hf_bader_spin_density
 _atom_site_hse06_10hf_ddec_charge
 _atom_site_hse06_10hf_ddec_spin_density
 _atom_site_hse06_10hf_ddec_sum_bond_order
 _atom_site_hse06_10hf_magmom
 _atom_site_hse06_bader_spin_density
 _atom_site_hse06_ddec_charge
 _atom_site_hse06_ddec_spin_density
 _atom_site_hse06_ddec_sum_bond_order
 _atom_site_hse06_magmom
 _atom_site_pbe_bader_spin_density
 _atom_site_pbe_cm5_charge
 _atom_site_pbe_ddec_charge
 _atom_site_pbe_ddec_spin_density
 _atom_site_pbe_ddec_sum_bond_order
 _atom_site_pbe_magmom
Cd  Cd0  1  0.45933798  0.25615074  0.74435770  1  0  1.158182  0  1.655907  0  0  0.964292  0  2.106837  0  0  1.020933  0  2.05406  0  0  0.806425  0.923808  0  2.143074  0
Cd  Cd1  1  0.54065587  0.74385154  0.25563927  1  0  1.158203  0  1.655826  0  0  0.964318  0  2.10677  0  0  1.020958  0  2.053993  0  0  0.806454  0.923822  0  2.142995  0
Cd  Cd2  1  0.95863899  0.24524366  0.64895559  1  0  1.148254  0  1.672146  0  0  0.954712  0  2.125182  0  0  1.011928  0  2.071818  0  0  0.798402  0.913822  0  2.161811  0
Cd  Cd3  1  0.04136183  0.75475796  0.35103999  1  0  1.148251  0  1.672159  0  0  0.95471  0  2.125175  0  0  1.011929  0  2.07181  0  0  0.798403  0.913807  0  2.161801  0
H  H4  1  0.18265646  0.38974705  0.53038482  1  0  0.385325  0  0.93596  0  0  0.341491  0  1.021008  0  0  0.352838  0  1.004829  0  0  0.282757  0.333473  0  1.032407  0
H  H5  1  0.81734052  0.61025061  0.46961375  1  0  0.385294  0  0.936006  0  0  0.341452  0  1.021066  0  0  0.352798  0  1.004888  0  0  0.282754  0.333435  0  1.032465  0
H  H6  1  0.97843843  0.42846938  0.48866259  1  0  0.411003  0  0.858733  0  0  0.386467  0  0.926694  0  0  0.395036  0  0.917497  0  0  0.299853  0.380314  0  0.933354  0
H  H7  1  0.02155248  0.57157186  0.51135614  1  0  0.410866  0  0.859012  0  0  0.386295  0  0.927025  0  0  0.394861  0  0.917832  0  0  0.29967  0.380139  0  0.933696  0
H  H8  1  0.96055179  0.18324046  0.45859293  1  0  0.104855  0  0.974238  0  0  0.113318  0  1.040808  0  0  0.116836  0  1.038558  0  0  0.103444  0.110774  0  1.042482  0
H  H9  1  0.03944780  0.81675783  0.54140989  1  0  0.104897  0  0.974267  0  0  0.113335  0  1.040867  0  0  0.116852  0  1.038618  0  0  0.10347  0.110816  0  1.042501  0
H  H10  1  0.52170514  0.82237755  0.02875077  1  0  0.105728  0  0.977852  0  0  0.113451  0  1.045389  0  0  0.117035  0  1.043203  0  0  0.102779  0.110878  0  1.047015  0
H  H11  1  0.47827960  0.17763086  0.97124435  1  0  0.105773  0  0.977719  0  0  0.113448  0  1.045333  0  0  0.11703  0  1.043148  0  0  0.102757  0.110878  0  1.046965  0
H  H12  1  0.01937411  0.74647707  0.90475479  1  0  0.089212  0  0.987499  0  0  0.095253  0  1.059645  0  0  0.097932  0  1.058836  0  0  0.095944  0.093379  0  1.060202  0
H  H13  1  0.98061784  0.25352295  0.09524117  1  0  0.0892  0  0.98757  0  0  0.095217  0  1.059745  0  0  0.097896  0  1.058934  0  0  0.095928  0.093344  0  1.060293  0
H  H14  1  0.25234546  0.32128496  0.21020573  1  0  0.086899  0  0.996519  0  0  0.097762  0  1.05974  0  0  0.099616  0  1.0607  0  0  0.098464  0.096397  0  1.059191  0
H  H15  1  0.74767276  0.67870723  0.78980033  1  0  0.086964  0  0.996601  0  0  0.097843  0  1.059773  0  0  0.099697  0  1.060732  0  0  0.098532  0.096483  0  1.059217  0
H  H16  1  0.75106362  0.10504810  0.33857381  1  0  0.099117  0  0.949457  0  0  0.109497  0  1.011197  0  0  0.112228  0  1.010286  0  0  0.103537  0.107515  0  1.01194  0
H  H17  1  0.24894125  0.89495086  0.66143251  1  0  0.098908  0  0.949494  0  0  0.109349  0  1.011196  0  0  0.112066  0  1.010295  0  0  0.103486  0.107368  0  1.011939  0
H  H18  1  0.26888898  0.67443623  0.83286998  1  0  0.085951  0  0.985251  0  0  0.096916  0  1.049036  0  0  0.098808  0  1.049965  0  0  0.096459  0.09557  0  1.048451  0
H  H19  1  0.73110993  0.32556689  0.16712606  1  0  0.086014  0  0.985228  0  0  0.096917  0  1.049085  0  0  0.098807  0  1.050016  0  0  0.096458  0.095565  0  1.048495  0
H  H20  1  0.38374673  0.89167981  0.39982280  1  0  0.08787  0  0.965052  0  0  0.094243  0  1.034916  0  0  0.096865  0  1.033623  0  0  0.097134  0.092347  0  1.03594  0
H  H21  1  0.61626658  0.10831786  0.60017858  1  0  0.087918  0  0.964983  0  0  0.094232  0  1.034907  0  0  0.096851  0  1.033624  0  0  0.097095  0.092334  0  1.035928  0
H  H22  1  0.00330243  0.47421706  0.17198662  1  0  0.089055  0  0.996873  0  0  0.096971  0  1.06133  0  0  0.099083  0  1.061737  0  0  0.101922  0.095448  0  1.061137  0
H  H23  1  0.99671478  0.52577697  0.82801030  1  0  0.088988  0  0.996933  0  0  0.096905  0  1.061405  0  0  0.099016  0  1.061815  0  0  0.101874  0.095383  0  1.061214  0
H  H24  1  0.48379074  0.24998442  0.32649458  1  0  0.087497  0  0.981448  0  0  0.094494  0  1.05167  0  0  0.096923  0  1.05149  0  0  0.094862  0.092788  0  1.051865  0
H  H25  1  0.51621610  0.75001300  0.67351275  1  0  0.087525  0  0.981323  0  0  0.094522  0  1.051567  0  0  0.096951  0  1.051387  0  0  0.094848  0.092816  0  1.051765  0
H  H26  1  0.10055898  0.10656100  0.85997883  1  0  0.088186  0  0.963977  0  0  0.096133  0  1.030099  0  0  0.098608  0  1.029266  0  0  0.097892  0.094302  0  1.030853  0
H  H27  1  0.89943422  0.89343911  0.14001490  1  0  0.088156  0  0.963919  0  0  0.096124  0  1.030048  0  0  0.098601  0  1.029213  0  0  0.097871  0.094314  0  1.030772  0
H  H28  1  0.73590324  0.48879454  0.28174158  1  0  0.103277  0  0.97229  0  0  0.113712  0  1.036283  0  0  0.116313  0  1.035143  0  0  0.102256  0.11184  0  1.037143  0
H  H29  1  0.26410928  0.51120106  0.71825362  1  0  0.103253  0  0.972259  0  0  0.113698  0  1.036246  0  0  0.116299  0  1.035106  0  0  0.102268  0.111829  0  1.037109  0
H  H30  1  0.37136371  0.96532058  0.90386162  1  0  0.112257  0  0.9554  0  0  0.121187  0  1.018411  0  0  0.125149  0  1.015675  0  0  0.102683  0.118309  0  1.020528  0
H  H31  1  0.62863528  0.03467872  0.09613442  1  0  0.112197  0  0.955416  0  0  0.12117  0  1.018386  0  0  0.125132  0  1.015646  0  0  0.102637  0.118291  0  1.020502  0
H  H32  1  0.74643688  0.88955033  0.86340636  1  0  0.098144  0  0.949208  0  0  0.108912  0  1.010114  0  0  0.111386  0  1.009819  0  0  0.102965  0.107102  0  1.010451  0
H  H33  1  0.25355145  0.11044879  0.13659273  1  0  0.098037  0  0.949168  0  0  0.10881  0  1.010091  0  0  0.111281  0  1.009799  0  0  0.102931  0.107005  0  1.010423  0
H  H34  1  0.79143854  0.52423848  0.98722978  1  0  0.098697  0  0.959955  0  0  0.101827  0  1.035199  0  0  0.105477  0  1.032705  0  0  0.102028  0.099219  0  1.036971  0
H  H35  1  0.20855660  0.47576440  0.01277218  1  0  0.098714  0  0.959965  0  0  0.101831  0  1.035215  0  0  0.105481  0  1.032723  0  0  0.102038  0.099224  0  1.036989  0
H  H36  1  0.53165113  0.52703532  0.86928526  1  0  0.096602  0  0.970332  0  0  0.108584  0  1.027061  0  0  0.111422  0  1.026011  0  0  0.098739  0.106493  0  1.027967  0
H  H37  1  0.46834720  0.47296612  0.13071477  1  0  0.09664  0  0.97032  0  0  0.108587  0  1.027086  0  0  0.111423  0  1.026036  0  0  0.098725  0.106492  0  1.027987  0
H  H38  1  0.11741080  0.03465655  0.38963155  1  0  0.112051  0  0.950678  0  0  0.121694  0  1.012677  0  0  0.125511  0  1.010273  0  0  0.103258  0.118886  0  1.014631  0
H  H39  1  0.88260290  0.96534028  0.61037218  1  0  0.11207  0  0.950657  0  0  0.121711  0  1.012677  0  0  0.125529  0  1.010269  0  0  0.103269  0.118898  0  1.014635  0
H  H40  1  0.68607357  0.39174226  0.79518199  1  0  0.38121  0  0.942655  0  0  0.337803  0  1.026439  0  0  0.348955  0  1.010655  0  0  0.281931  0.329947  0  1.037524  0
H  H41  1  0.31391997  0.60825758  0.20481912  1  0  0.381191  0  0.942682  0  0  0.337784  0  1.026466  0  0  0.348935  0  1.010682  0  0  0.281917  0.329925  0  1.037554  0
H  H42  1  0.56046095  0.46763877  0.70232225  1  0  0.402939  0  0.882904  0  0  0.363554  0  0.972965  0  0  0.374483  0  0.957007  0  0  0.287816  0.355793  0  0.984278  0
H  H43  1  0.43953766  0.53236190  0.29767792  1  0  0.402973  0  0.882939  0  0  0.36359  0  0.972934  0  0  0.374519  0  0.956976  0  0  0.287816  0.355825  0  0.984252  0
C  C44  1  0.97135858  0.24806079  0.39696910  1  0  -0.147412  0  3.691281  0  0  -0.17481  0  3.934959  0  0  -0.17745  0  3.954127  0  0  -0.086702  -0.172771  0  3.921937  0
C  C45  1  0.02864660  0.75193685  0.60303161  1  0  -0.147511  0  3.691227  0  0  -0.174889  0  3.934941  0  0  -0.177529  0  3.95412  0  0  -0.086748  -0.172863  0  3.921897  0
C  C46  1  0.90584487  0.00738068  0.85743720  1  0  -0.073907  0  3.777906  0  0  -0.049126  0  4.008902  0  0  -0.058133  0  4.032428  0  0  -0.021375  -0.043252  0  3.993046  0
C  C47  1  0.09414581  0.99261872  0.14255449  1  0  -0.073925  0  3.777981  0  0  -0.049116  0  4.00892  0  0  -0.058118  0  4.032439  0  0  -0.021378  -0.043235  0  3.993068  0
C  C48  1  0.58423249  0.98923944  0.36820566  1  0  -0.070989  0  3.771164  0  0  -0.046434  0  4.001979  0  0  -0.055818  0  4.02581  0  0  -0.018406  -0.040398  0  3.986042  0
C  C49  1  0.41577520  0.01076268  0.63179856  1  0  -0.071182  0  3.771465  0  0  -0.046456  0  4.002057  0  0  -0.055899  0  4.025965  0  0  -0.018328  -0.040413  0  3.986106  0
C  C50  1  0.52311243  0.75737398  0.99413902  1  0  -0.150495  0  3.686239  0  0  -0.177703  0  3.928859  0  0  -0.180789  0  3.948543  0  0  -0.087767  -0.175418  0  3.915477  0
C  C51  1  0.47687229  0.24263122  0.00586039  1  0  -0.150436  0  3.686177  0  0  -0.177671  0  3.928807  0  0  -0.180744  0  3.948467  0  0  -0.087718  -0.175394  0  3.915442  0
C  C52  1  0.67194990  0.67307616  0.01552213  1  0  0.000635  0  3.815452  0  0  0.02298  0  4.046099  0  0  0.020804  0  4.069669  0  0  -0.009692  0.024434  0  4.030038  0
C  C53  1  0.32803549  0.32693066  0.98447475  1  0  0.000631  0  3.81551  0  0  0.023101  0  4.045976  0  0  0.020928  0  4.069544  0  0  -0.009701  0.024543  0  4.02993  0
C  C54  1  0.82165052  0.67043322  0.08690935  1  0  0.287689  0  3.774859  0  0  0.262702  0  4.042277  0  0  0.273711  0  4.058976  0  0  0.227753  0.255252  0  4.030993  0
C  C55  1  0.17834326  0.32957289  0.91308761  1  0  0.287761  0  3.774932  0  0  0.262729  0  4.042344  0  0  0.273737  0  4.059044  0  0  0.227813  0.255293  0  4.031052  0
C  C56  1  0.74408495  0.90508808  0.36694423  1  0  0.662506  0  3.872102  0  0  0.610096  0  4.159676  0  0  0.646337  0  4.152678  0  0  0.207013  0.585467  0  4.163529  0
C  C57  1  0.25592053  0.09491577  0.63305381  1  0  0.662586  0  3.872204  0  0  0.610112  0  4.159818  0  0  0.646373  0  4.152822  0  0  0.206972  0.585483  0  4.163667  0
C  C58  1  0.67935228  0.34729690  0.44455723  1  0  0.279906  0  3.796405  0  0  0.254011  0  4.065098  0  0  0.26482  0  4.082527  0  0  0.21948  0.246764  0  4.05327  0
C  C59  1  0.32065031  0.65270386  0.55544144  1  0  0.28014  0  3.796204  0  0  0.254229  0  4.064917  0  0  0.26504  0  4.082342  0  0  0.219512  0.246976  0  4.053095  0
C  C60  1  0.21486094  0.84515180  0.90667704  1  0  0.060247  0  3.76358  0  0  0.074153  0  3.994337  0  0  0.075093  0  4.018148  0  0  -0.003751  0.073613  0  3.978126  0
C  C61  1  0.78512653  0.15485283  0.09331732  1  0  0.060182  0  3.763633  0  0  0.074082  0  3.994379  0  0  0.075019  0  4.018194  0  0  -0.003844  0.073545  0  3.978173  0
C  C62  1  0.03704756  0.82554860  0.89440218  1  0  -0.116614  0  3.739259  0  0  -0.136442  0  3.990087  0  0  -0.140547  0  4.012029  0  0  -0.093786  -0.133685  0  3.975204  0
C  C63  1  0.96294198  0.17445063  0.10559395  1  0  -0.116484  0  3.739184  0  0  -0.136284  0  3.989984  0  0  -0.140388  0  4.011929  0  0  -0.093626  -0.133531  0  3.975106  0
C  C64  1  0.12653649  0.24237437  0.33849442  1  0  0.064474  0  3.771765  0  0  0.080362  0  4.002941  0  0  0.08034  0  4.026407  0  0  -0.002204  0.08024  0  3.987058  0
C  C65  1  0.87346850  0.75762396  0.66150836  1  0  0.064548  0  3.77166  0  0  0.080394  0  4.002863  0  0  0.080365  0  4.026337  0  0  -0.002235  0.080283  0  3.986968  0
C  C66  1  0.37513119  0.75849542  0.92900262  1  0  0.063607  0  3.775432  0  0  0.079497  0  4.008008  0  0  0.079686  0  4.031549  0  0  -0.003332  0.079275  0  3.992017  0
C  C67  1  0.62485961  0.24151088  0.07098847  1  0  0.063492  0  3.775482  0  0  0.079403  0  4.008015  0  0  0.079593  0  4.031558  0  0  -0.00333  0.079178  0  3.992027  0
C  C68  1  0.13532979  0.32579967  0.25808881  1  0  -0.094077  0  3.713877  0  0  -0.115838  0  3.958074  0  0  -0.117282  0  3.977806  0  0  -0.08271  -0.114717  0  3.944689  0
C  C69  1  0.86468297  0.67419575  0.74191154  1  0  -0.094172  0  3.713926  0  0  -0.115945  0  3.958156  0  0  -0.117386  0  3.977886  0  0  -0.082667  -0.114827  0  3.944772  0
C  C70  1  0.74218582  0.09132798  0.82584293  1  0  0.656431  0  3.875881  0  0  0.60496  0  4.162566  0  0  0.640929  0  4.155526  0  0  0.206113  0.580457  0  4.166505  0
C  C71  1  0.25780876  0.90867211  0.17415153  1  0  0.656307  0  3.876285  0  0  0.604919  0  4.162843  0  0  0.640889  0  4.155802  0  0  0.206098  0.580408  0  4.166788  0
C  C72  1  0.61194345  0.09055876  0.34975996  1  0  -0.054695  0  3.737936  0  0  -0.078787  0  3.985875  0  0  -0.078051  0  4.006551  0  0  -0.081023  -0.079059  0  3.971817  0
C  C73  1  0.38806441  0.90944322  0.65024794  1  0  -0.054283  0  3.737602  0  0  -0.078466  0  3.985483  0  0  -0.077695  0  4.006178  0  0  -0.080909  -0.07874  0  3.971422  0
C  C74  1  0.83265316  0.33777224  0.37796994  1  0  -0.021373  0  3.846932  0  0  0.002624  0  4.076252  0  0  0.000276  0  4.099123  0  0  -0.015139  0.004165  0  4.060694  0
C  C75  1  0.16735310  0.66222615  0.62203135  1  0  -0.02138  0  3.846924  0  0  0.002619  0  4.076248  0  0  0.00027  0  4.099114  0  0  -0.015083  0.004166  0  4.060695  0
C  C76  1  0.38139167  0.67420892  0.88472988  1  0  -0.097786  0  3.704851  0  0  -0.120566  0  3.951325  0  0  -0.12233  0  3.971342  0  0  -0.084367  -0.119233  0  3.937671  0
C  C77  1  0.61860689  0.32579502  0.11526454  1  0  -0.09777  0  3.704861  0  0  -0.120513  0  3.951333  0  0  -0.12228  0  3.971351  0  0  -0.084351  -0.119177  0  3.937664  0
C  C78  1  0.40553173  0.97037089  0.38405021  1  0  -0.051904  0  3.720365  0  0  -0.075678  0  3.971623  0  0  -0.074733  0  3.9926  0  0  -0.082874  -0.076097  0  3.957362  0
C  C79  1  0.59447847  0.02962817  0.61595459  1  0  -0.051835  0  3.720531  0  0  -0.075613  0  3.971772  0  0  -0.074642  0  3.992739  0  0  -0.08282  -0.076028  0  3.957497  0
C  C80  1  0.99491090  0.41256445  0.23667711  1  0  -0.05901  0  3.771334  0  0  -0.071688  0  4.022576  0  0  -0.073787  0  4.043478  0  0  -0.092879  -0.070271  0  4.008355  0
C  C81  1  0.00509650  0.58743089  0.76332403  1  0  -0.058857  0  3.771309  0  0  -0.071535  0  4.022544  0  0  -0.073632  0  4.043443  0  0  -0.092876  -0.070117  0  4.008333  0
C  C82  1  0.46225813  0.17121531  0.34290628  1  0  -0.118702  0  3.732791  0  0  -0.138079  0  3.982373  0  0  -0.142423  0  4.004316  0  0  -0.094003  -0.135193  0  3.967462  0
C  C83  1  0.53775090  0.82878360  0.65710221  1  0  -0.118918  0  3.732457  0  0  -0.138333  0  3.982069  0  0  -0.142675  0  4.003999  0  0  -0.094068  -0.135446  0  3.967158  0
C  C84  1  0.08251021  0.02755714  0.86974433  1  0  -0.054878  0  3.728747  0  0  -0.07885  0  3.979855  0  0  -0.078184  0  4.000769  0  0  -0.085854  -0.079084  0  3.96565  0
C  C85  1  0.91747978  0.97244066  0.13024915  1  0  -0.054881  0  3.728719  0  0  -0.078922  0  3.979867  0  0  -0.07826  0  4.000781  0  0  -0.085893  -0.079174  0  3.965645  0
C  C86  1  0.84433431  0.42010371  0.29725434  1  0  -0.096256  0  3.721663  0  0  -0.119186  0  3.966878  0  0  -0.120435  0  3.986015  0  0  -0.090118  -0.118198  0  3.953887  0
C  C87  1  0.15567440  0.57989167  0.70274605  1  0  -0.096314  0  3.721638  0  0  -0.119246  0  3.966889  0  0  -0.120494  0  3.986024  0  0  -0.090137  -0.118261  0  3.953907  0
C  C88  1  0.23520555  0.94749033  0.89568962  1  0  -0.1063  0  3.696691  0  0  -0.125206  0  3.946092  0  0  -0.129399  0  3.966801  0  0  -0.086704  -0.122389  0  3.932037  0
C  C89  1  0.76478695  0.05251194  0.10430736  1  0  -0.10628  0  3.696752  0  0  -0.125197  0  3.946137  0  0  -0.12939  0  3.966848  0  0  -0.086666  -0.122378  0  3.932087  0
C  C90  1  0.88392948  0.90528482  0.87191779  1  0  -0.059966  0  3.737148  0  0  -0.083458  0  3.983933  0  0  -0.083042  0  4.004967  0  0  -0.083649  -0.083547  0  3.969609  0
C  C91  1  0.11606071  0.09471282  0.12808010  1  0  -0.059796  0  3.736982  0  0  -0.083312  0  3.983785  0  0  -0.082896  0  4.00482  0  0  -0.083624  -0.083405  0  3.969467  0
C  C92  1  0.67632708  0.58994363  0.97022430  1  0  -0.08896  0  3.712681  0  0  -0.111959  0  3.959377  0  0  -0.113798  0  3.979381  0  0  -0.082745  -0.110508  0  3.945651  0
C  C93  1  0.32366559  0.41005852  0.02977636  1  0  -0.08894  0  3.712717  0  0  -0.111959  0  3.959373  0  0  -0.113794  0  3.979365  0  0  -0.08273  -0.110508  0  3.945648  0
C  C94  1  0.53025082  0.59135349  0.90465747  1  0  -0.062026  0  3.771591  0  0  -0.070047  0  4.015683  0  0  -0.072392  0  4.036833  0  0  -0.089094  -0.068402  0  4.001255  0
C  C95  1  0.46974675  0.40864962  0.09533858  1  0  -0.062139  0  3.771611  0  0  -0.070129  0  4.015693  0  0  -0.072473  0  4.036844  0  0  -0.089104  -0.068481  0  4.001251  0
C  C96  1  0.25565759  0.05116922  0.37945177  1  0  -0.104388  0  3.695935  0  0  -0.124084  0  3.945437  0  0  -0.128351  0  3.96603  0  0  -0.084431  -0.121197  0  3.931432  0
C  C97  1  0.74435286  0.94882910  0.62055244  1  0  -0.104379  0  3.695809  0  0  -0.124101  0  3.945287  0  0  -0.12837  0  3.965888  0  0  -0.084429  -0.121208  0  3.931276  0
C  C98  1  0.28185496  0.15302042  0.35617281  1  0  0.061879  0  3.759714  0  0  0.076956  0  3.988842  0  0  0.07815  0  4.012344  0  0  -0.002575  0.076273  0  3.972828  0
C  C99  1  0.71815618  0.84697628  0.64383390  1  0  0.06184  0  3.759679  0  0  0.076994  0  3.988734  0  0  0.078189  0  4.012237  0  0  -0.002646  0.076308  0  3.972715  0
N  N100  1  0.96878278  0.68778134  0.21580334  1  0  -0.120254  0  3.190547  0  0  -0.076803  0  3.478968  0  0  -0.085  0  3.495552  0  0  -0.117572  -0.070958  0  3.46745  0
N  N101  1  0.03121339  0.31221857  0.78419627  1  0  -0.120125  0  3.190228  0  0  -0.076659  0  3.478627  0  0  -0.084855  0  3.495211  0  0  -0.11752  -0.070813  0  3.467115  0
N  N102  1  0.00260632  0.63557690  0.07677491  1  0  -0.277707  0  2.90945  0  0  -0.258905  0  3.189836  0  0  -0.268454  0  3.200635  0  0  -0.201476  -0.252456  0  3.182573  0
N  N103  1  0.99738472  0.36442223  0.92322416  1  0  -0.277645  0  2.909443  0  0  -0.258817  0  3.189822  0  0  -0.268367  0  3.200624  0  0  -0.201417  -0.252362  0  3.182548  0
N  N104  1  0.50526721  0.40001487  0.41818015  1  0  -0.295928  0  2.918935  0  0  -0.26917  0  3.1967  0  0  -0.280061  0  3.207445  0  0  -0.203971  -0.261838  0  3.189528  0
N  N105  1  0.49473287  0.59997764  0.58181354  1  0  -0.296063  0  2.918944  0  0  -0.26929  0  3.196699  0  0  -0.28018  0  3.207442  0  0  -0.203972  -0.261963  0  3.189543  0
N  N106  1  0.69422968  0.30236703  0.54376852  1  0  -0.345519  0  3.153486  0  0  -0.281682  0  3.428524  0  0  -0.300736  0  3.446001  0  0  -0.236767  -0.26867  0  3.416466  0
N  N107  1  0.30577208  0.69763600  0.45623044  1  0  -0.345548  0  3.153507  0  0  -0.281705  0  3.428555  0  0  -0.300759  0  3.446031  0  0  -0.236759  -0.26869  0  3.416487  0
N  N108  1  0.08941232  0.64821034  0.15762477  1  0  -0.063499  0  3.083166  0  0  -0.030944  0  3.35686  0  0  -0.031185  0  3.368322  0  0  -0.074643  -0.030503  0  3.349044  0
N  N109  1  0.91058202  0.35178725  0.84237530  1  0  -0.063574  0  3.083096  0  0  -0.031038  0  3.356822  0  0  -0.031279  0  3.368285  0  0  -0.074663  -0.030593  0  3.349006  0
N  N110  1  0.52523284  0.32679614  0.57740618  1  0  -0.111597  0  3.199775  0  0  -0.067594  0  3.486073  0  0  -0.074809  0  3.502185  0  0  -0.112851  -0.062434  0  3.474946  0
N  N111  1  0.47476615  0.67320316  0.42258987  1  0  -0.111627  0  3.199766  0  0  -0.067625  0  3.486066  0  0  -0.074839  0  3.502174  0  0  -0.112851  -0.062457  0  3.474921  0
N  N112  1  0.41310167  0.38457513  0.50281986  1  0  -0.067731  0  3.060222  0  0  -0.039946  0  3.336149  0  0  -0.040216  0  3.347628  0  0  -0.079885  -0.039494  0  3.328369  0
N  N113  1  0.58689378  0.61541889  0.49717357  1  0  -0.067681  0  3.060343  0  0  -0.039894  0  3.336263  0  0  -0.040161  0  3.347737  0  0  -0.079893  -0.039444  0  3.328484  0
N  N114  1  0.79844106  0.70271326  0.17344052  1  0  -0.344694  0  3.17167  0  0  -0.278157  0  3.451301  0  0  -0.297796  0  3.469057  0  0  -0.239721  -0.264685  0  3.438984  0
N  N115  1  0.20155559  0.29728897  0.82655864  1  0  -0.344892  0  3.171617  0  0  -0.278375  0  3.451309  0  0  -0.298016  0  3.469062  0  0  -0.239854  -0.264904  0  3.438994  0
O  O116  1  0.76528323  0.17846262  0.76907370  1  0  -0.716053  0  2.123252  0  0  -0.629804  0  2.402271  0  0  -0.665077  0  2.389177  0  0  -0.349256  -0.604772  0  2.410078  0
O  O117  1  0.23471379  0.82153446  0.23091986  1  0  -0.716  0  2.123279  0  0  -0.62983  0  2.402349  0  0  -0.665087  0  2.389209  0  0  -0.349267  -0.604793  0  2.410149  0
O  O118  1  0.71757818  0.81957667  0.34887276  1  0  -0.705647  0  2.097199  0  0  -0.62355  0  2.369004  0  0  -0.657601  0  2.357065  0  0  -0.346174  -0.599436  0  2.376135  0
O  O119  1  0.28242460  0.18042717  0.65112530  1  0  -0.705658  0  2.097215  0  0  -0.623541  0  2.369022  0  0  -0.657578  0  2.357046  0  0  -0.346164  -0.599429  0  2.376161  0
O  O120  1  0.05131160  0.39596293  0.55133497  1  0  -0.832858  0  1.926604  0  0  -0.773703  0  2.137535  0  0  -0.795409  0  2.108917  0  0  -0.588551  -0.758178  0  2.157416  0
O  O121  1  0.94868849  0.60403444  0.44867242  1  0  -0.832692  0  1.926792  0  0  -0.773505  0  2.137718  0  0  -0.795227  0  2.109143  0  0  -0.588362  -0.757982  0  2.1576  0
O  O122  1  0.58228066  0.08016625  0.85100202  1  0  -0.601871  0  1.929368  0  0  -0.542946  0  2.159148  0  0  -0.569856  0  2.150165  0  0  -0.305825  -0.524032  0  2.164667  0
O  O123  1  0.41771318  0.91983604  0.14899495  1  0  -0.601803  0  1.929589  0  0  -0.542932  0  2.159352  0  0  -0.569843  0  2.150365  0  0  -0.305833  -0.524022  0  2.164875  0
O  O124  1  0.90773205  0.91661949  0.38235582  1  0  -0.61844  0  1.947978  0  0  -0.55317  0  2.184547  0  0  -0.58199  0  2.175547  0  0  -0.313325  -0.532994  0  2.190047  0
O  O125  1  0.09227647  0.08337658  0.61764663  1  0  -0.618419  0  1.947993  0  0  -0.553204  0  2.184661  0  0  -0.582026  0  2.175653  0  0  -0.313305  -0.533021  0  2.190153  0
O  O126  1  0.55833801  0.41123781  0.76156534  1  0  -0.838216  0  1.938133  0  0  -0.776307  0  2.160481  0  0  -0.798399  0  2.126962  0  0  -0.586771  -0.760486  0  2.183788  0
O  O127  1  0.44165627  0.58876361  0.23843473  1  0  -0.838239  0  1.938202  0  0  -0.776322  0  2.160462  0  0  -0.798412  0  2.126942  0  0  -0.586769  -0.760507  0  2.183776  0
