# generated using pymatgen
data_Tb2H22C15O14
_symmetry_space_group_name_H-M   'P 1'
_cell_length_a   7.92191075
_cell_length_b   8.41023215
_cell_length_c   19.46823669
_cell_angle_alpha   88.14984152
_cell_angle_beta   86.09373669
_cell_angle_gamma   61.88895797
_symmetry_Int_Tables_number   1
_chemical_formula_structural   Tb2H22C15O14
_chemical_formula_sum   'Tb4 H44 C30 O28'
_cell_volume   1141.40764072
_cell_formula_units_Z   2
loop_
 _symmetry_equiv_pos_site_id
 _symmetry_equiv_pos_as_xyz
  1  'x, y, z'
loop_
 _atom_site_type_symbol
 _atom_site_label
 _atom_site_symmetry_multiplicity
 _atom_site_fract_x
 _atom_site_fract_y
 _atom_site_fract_z
 _atom_site_occupancy
 _atom_site_pbe_bader_charge
 _atom_site_pbe_bader_spin_density
 _atom_site_pbe_cm5_charge
 _atom_site_pbe_ddec_charge
 _atom_site_pbe_ddec_spin_density
 _atom_site_pbe_ddec_sum_bond_order
 _atom_site_pbe_magmom
Tb  Tb0  1  0.70993244  0.07431956  0.51045455  1  2.175252  0  1.519044  2.069847  0  2.113104  0
Tb  Tb1  1  0.21570410  0.07426831  0.98951505  1  2.174253  0  1.518797  2.069724  0  2.113025  0
Tb  Tb2  1  0.29006924  0.92567865  0.48954526  1  2.175252  0  1.519025  2.069802  0  2.113211  0
Tb  Tb3  1  0.78430114  0.92571776  0.01048637  1  2.174193  0  1.518806  2.06975  0  2.113106  0
H  H4  1  0.65080255  0.42540035  0.43649429  1  0.633511  0  0.29573  0.407161  0  0.927267  0
H  H5  1  0.92359337  0.42540944  0.06357656  1  0.663678  0  0.296048  0.407637  0  0.926559  0
H  H6  1  0.34919889  0.57460594  0.56350541  1  0.633397  0  0.295734  0.407172  0  0.927259  0
H  H7  1  0.07640073  0.57458876  0.93642347  1  0.663668  0  0.296078  0.407723  0  0.926439  0
H  H8  1  0.87268986  0.27846634  0.43296957  1  0.647059  0  0.306447  0.40961  0  0.918911  0
H  H9  1  0.84833449  0.27872498  0.06696944  1  0.65406  0  0.306219  0.409518  0  0.918665  0
H  H10  1  0.12731292  0.72153726  0.56702961  1  0.647147  0  0.306438  0.409597  0  0.918941  0
H  H11  1  0.15165960  0.72127322  0.93303008  1  0.654058  0  0.306227  0.409482  0  0.918709  0
H  H12  1  0.83415757  0.45770085  0.53447998  1  0.070477  0  0.11474  0.133074  0  0.987035  0
H  H13  1  0.70933512  0.45795034  0.96527020  1  0.076214  0  0.114787  0.133299  0  0.986632  0
H  H14  1  0.16584705  0.54230409  0.46551810  1  0.070483  0  0.114734  0.13301  0  0.987062  0
H  H15  1  0.29066656  0.54204786  0.03472961  1  0.076092  0  0.114794  0.133301  0  0.986638  0
H  H16  1  0.63276397  0.55988783  0.59233350  1  0.087042  0  0.111261  0.129637  0  0.992679  0
H  H17  1  0.80764070  0.56057122  0.90725751  1  0.07365  0  0.111248  0.129841  0  0.992987  0
H  H18  1  0.36724005  0.44011576  0.40766358  1  0.086844  0  0.111272  0.129602  0  0.992648  0
H  H19  1  0.19235188  0.43943507  0.09274193  1  0.073605  0  0.11123  0.129798  0  0.993037  0
H  H20  1  0.51070449  0.17201386  0.76914217  1  0.027736  0  0.09731  0.098304  0  0.980649  0
H  H21  1  0.31800412  0.17184017  0.73075690  1  0.054103  0  0.097612  0.098506  0  0.981101  0
H  H22  1  0.48930040  0.82798299  0.23085756  1  0.027797  0  0.097302  0.098305  0  0.980566  0
H  H23  1  0.68199817  0.82815938  0.26924389  1  0.054093  0  0.097614  0.098499  0  0.981097  0
H  H24  1  0.01019259  0.23111851  0.70567845  1  0.053421  0  0.106512  0.122572  0  0.987362  0
H  H25  1  0.75862734  0.23116707  0.79434638  1  0.055684  0  0.106573  0.122579  0  0.987053  0
H  H26  1  0.98980453  0.76888374  0.29431989  1  0.053356  0  0.106481  0.122568  0  0.987259  0
H  H27  1  0.24136737  0.76883248  0.20565567  1  0.055675  0  0.106577  0.122596  0  0.987056  0
H  H28  1  0.79054400  0.28125842  0.66906342  1  0.018804  0  0.100829  0.110484  0  1.021552  0
H  H29  1  0.92844718  0.28095331  0.83087607  1  0.047311  0  0.10066  0.11059  0  1.021308  0
H  H30  1  0.20945236  0.71874787  0.33093489  1  0.018834  0  0.100811  0.110484  0  1.021532  0
H  H31  1  0.07154830  0.71904220  0.16912705  1  0.047203  0  0.100673  0.110655  0  1.021237  0
H  H32  1  0.24618879  0.48225691  0.67612624  1  0.040549  0  0.102371  0.115072  0  0.997487  0
H  H33  1  0.27176718  0.48197198  0.82387352  1  0.039303  0  0.102452  0.115588  0  0.997817  0
H  H34  1  0.75381611  0.51773994  0.32387400  1  0.040808  0  0.102366  0.115049  0  0.997496  0
H  H35  1  0.72823976  0.51802083  0.17612878  1  0.039284  0  0.102467  0.115609  0  0.997851  0
H  H36  1  0.45999104  0.45382101  0.70692099  1  0.037811  0  0.103786  0.114776  0  0.97314  0
H  H37  1  0.08647746  0.45373460  0.79289265  1  0.055954  0  0.103859  0.115444  0  0.973417  0
H  H38  1  0.54001057  0.54617989  0.29307929  1  0.037833  0  0.103785  0.11479  0  0.973176  0
H  H39  1  0.91352872  0.54626226  0.20710858  1  0.056159  0  0.103891  0.115481  0  0.973306  0
H  H40  1  0.84599490  0.55613232  0.68432454  1  -0.003306  0  0.096143  0.088548  0  0.967973  0
H  H41  1  0.59828165  0.55618448  0.81547051  1  0.037205  0  0.09598  0.088308  0  0.96875  0
H  H42  1  0.15400980  0.44386992  0.31567306  1  -0.003375  0  0.096138  0.088483  0  0.968028  0
H  H43  1  0.40171811  0.44381507  0.18452985  1  0.037194  0  0.095968  0.088332  0  0.968723  0
H  H44  1  0.04685687  0.45489953  0.62499988  1  0.045913  0  0.095487  0.088533  0  1.010395  0
H  H45  1  0.49838356  0.45550713  0.87494698  1  0.038608  0  0.095575  0.088814  0  1.010166  0
H  H46  1  0.95314599  0.54510137  0.37499882  1  0.045795  0  0.095482  0.088556  0  1.010417  0
H  H47  1  0.50161097  0.54449782  0.12505346  1  0.038658  0  0.095588  0.088839  0  1.010169  0
C  C48  1  0.04453123  0.14563446  0.60232466  1  1.544726  0  0.219636  0.685524  0  4.101299  0
C  C49  1  0.80969441  0.14584792  0.89770698  1  1.542779  0  0.220035  0.686164  0  4.10147  0
C  C50  1  0.95546217  0.85436510  0.39767383  1  1.544721  0  0.219659  0.685533  0  4.101504  0
C  C51  1  0.19029391  0.85415432  0.10229624  1  1.542784  0  0.220171  0.686229  0  4.101309  0
C  C52  1  0.75183257  0.72782449  0.55569911  1  1.555942  0  0.231503  0.700985  0  4.073061  0
C  C53  1  0.52077839  0.72796165  0.94421350  1  1.533358  0  0.230967  0.700351  0  4.07332  0
C  C54  1  0.24817483  0.27217236  0.44429901  1  1.55599  0  0.231556  0.70098  0  4.073016  0
C  C55  1  0.47920989  0.27204059  0.05578767  1  1.533308  0  0.230887  0.70024  0  4.073322  0
C  C56  1  0.49823289  0.27202017  0.62734304  1  1.526518  0  0.198398  0.623406  0  4.16902  0
C  C57  1  0.22976338  0.27180354  0.87253604  1  1.520704  0  0.199031  0.624466  0  4.167608  0
C  C58  1  0.50176931  0.72798207  0.37265669  1  1.526614  0  0.198394  0.623421  0  4.169009  0
C  C59  1  0.77023637  0.72819601  0.12746380  1  1.520528  0  0.199066  0.624496  0  4.167436  0
C  C60  1  0.77537162  0.54756484  0.57969812  1  -0.042009  0  -0.157132  -0.30122  0  3.885785  0
C  C61  1  0.67762617  0.54790941  0.92005434  1  -0.024319  0  -0.156688  -0.301762  0  3.886744  0
C  C62  1  0.22463240  0.45243875  0.42029897  1  -0.041825  0  -0.15722  -0.301162  0  3.885706  0
C  C63  1  0.32236717  0.45209284  0.07994565  1  -0.024207  0  -0.156691  -0.30168  0  3.886834  0
C  C64  1  0.36930965  0.26177988  0.74995529  1  0.029973  0  -0.164368  -0.100948  0  3.93604  0
C  C65  1  0.63069466  0.73821562  0.25004550  1  0.029981  0  -0.164318  -0.10089  0  3.935931  0
C  C66  1  0.92980466  0.27826029  0.65899749  1  -0.008183  0  -0.157441  -0.296202  0  3.886089  0
C  C67  1  0.79201578  0.27831523  0.84097941  1  -0.021551  0  -0.157239  -0.296325  0  3.88658  0
C  C68  1  0.07019178  0.72174331  0.34100137  1  -0.008248  0  -0.157392  -0.296183  0  3.885905  0
C  C69  1  0.20797631  0.72168701  0.15902268  1  -0.021377  0  -0.157299  -0.296447  0  3.886533  0
C  C70  1  0.38737447  0.37767003  0.69100834  1  -0.022983  0  -0.159478  -0.291212  0  3.927327  0
C  C71  1  0.23519761  0.37748459  0.80888775  1  -0.044465  0  -0.159818  -0.293722  0  3.930304  0
C  C72  1  0.61263043  0.62232683  0.30899190  1  -0.023304  0  -0.159488  -0.291236  0  3.927369  0
C  C73  1  0.76480874  0.62250688  0.19111407  1  -0.044509  0  -0.159902  -0.29378  0  3.930084  0
C  C74  1  0.90526163  0.46622371  0.63934397  1  0.025885  0  -0.155209  -0.093212  0  3.92504  0
C  C75  1  0.62883043  0.46647363  0.86052088  1  -0.018709  0  -0.155694  -0.093627  0  3.927038  0
C  C76  1  0.09473920  0.53378123  0.36065422  1  0.026064  0  -0.155159  -0.09312  0  3.925112  0
C  C77  1  0.37116553  0.53352592  0.13947959  1  -0.01878  0  -0.155626  -0.093652  0  3.926931  0
O  O78  1  0.48971485  0.35724047  0.56988839  1  -1.200584  0  -0.376334  -0.65787  0  2.241528  0
O  O79  1  0.15279526  0.35710609  0.92994831  1  -1.199456  0  -0.376913  -0.658701  0  2.241276  0
O  O80  1  0.51028794  0.64276313  0.43011233  1  -1.200545  0  -0.376331  -0.657862  0  2.241597  0
O  O81  1  0.84720456  0.64289077  0.07005054  1  -1.199491  0  -0.37693  -0.658737  0  2.241285  0
O  O82  1  0.96405192  0.08763891  0.56146306  1  -1.213051  0  -0.43534  -0.756548  0  2.377457  0
O  O83  1  0.94825494  0.08771106  0.93856913  1  -1.21305  0  -0.435359  -0.757044  0  2.378007  0
O  O84  1  0.03594663  0.91235794  0.43853584  1  -1.212923  0  -0.435331  -0.756634  0  2.377533  0
O  O85  1  0.05174200  0.91227636  0.06142944  1  -1.213082  0  -0.435454  -0.757063  0  2.377988  0
O  O86  1  0.60317382  0.10315203  0.62991219  1  -1.174893  0  -0.371194  -0.59798  0  2.183509  0
O  O87  1  0.29368797  0.10294901  0.86999535  1  -1.161194  0  -0.371382  -0.59817  0  2.182379  0
O  O88  1  0.39682717  0.89684752  0.37008556  1  -1.175016  0  -0.371182  -0.597994  0  2.183474  0
O  O89  1  0.70630875  0.89704649  0.13000567  1  -1.161163  0  -0.371386  -0.59815  0  2.182381  0
O  O90  1  0.22168944  0.09742311  0.59346813  1  -1.17643  0  -0.364447  -0.608749  0  2.186212  0
O  O91  1  0.68071690  0.09778700  0.90658641  1  -1.175695  0  -0.364658  -0.608726  0  2.186966  0
O  O92  1  0.77831162  0.90257375  0.40652863  1  -1.176506  0  -0.364476  -0.608722  0  2.186348  0
O  O93  1  0.31926426  0.90222199  0.09341795  1  -1.175617  0  -0.364776  -0.60881  0  2.186997  0
O  O94  1  0.59171508  0.84393183  0.53295435  1  -1.209478  0  -0.429041  -0.732169  0  2.397667  0
O  O95  1  0.56469168  0.84399239  0.96700917  1  -1.200276  0  -0.428543  -0.731502  0  2.399256  0
O  O96  1  0.40828963  0.15607041  0.46704377  1  -1.209516  0  -0.428996  -0.732134  0  2.397715  0
O  O97  1  0.43529468  0.15601121  0.03299255  1  -1.200284  0  -0.428488  -0.731453  0  2.399169  0
O  O98  1  0.74150840  0.29189676  0.43815623  1  -1.274092  0  -0.655336  -0.881029  0  2.041278  0
O  O99  1  0.96617941  0.29198997  0.06178694  1  -1.311754  0  -0.654885  -0.880728  0  2.040383  0
O  O100  1  0.25849428  0.70810953  0.56184137  1  -1.274043  0  -0.655341  -0.881021  0  2.041375  0
O  O101  1  0.03381666  0.70800688  0.93821614  1  -1.311753  0  -0.654909  -0.880754  0  2.040405  0
O  O102  1  0.88855905  0.76754459  0.55574816  1  -1.195752  0  -0.356153  -0.630617  0  2.23361  0
O  O103  1  0.34431324  0.76751490  0.94427035  1  -1.196271  0  -0.356379  -0.630297  0  2.232045  0
O  O104  1  0.11144048  0.23246035  0.44424699  1  -1.195669  0  -0.356176  -0.630619  0  2.233514  0
O  O105  1  0.65567769  0.23248465  0.05573283  1  -1.196165  0  -0.356355  -0.63028  0  2.231923  0
