# generated using pymatgen
data_NiH48C24(N3O2)2
_symmetry_space_group_name_H-M   'P 1'
_cell_length_a   15.13741676
_cell_length_b   15.13735355
_cell_length_c   15.13708863
_cell_angle_alpha   64.95751941
_cell_angle_beta   64.95833523
_cell_angle_gamma   64.95867396
_symmetry_Int_Tables_number   1
_chemical_formula_structural   NiH48C24(N3O2)2
_chemical_formula_sum   'Ni3 H144 C72 N18 O12'
_cell_volume   2718.25969336
_cell_formula_units_Z   3
loop_
 _symmetry_equiv_pos_site_id
 _symmetry_equiv_pos_as_xyz
  1  'x, y, z'
loop_
 _atom_site_type_symbol
 _atom_site_label
 _atom_site_symmetry_multiplicity
 _atom_site_fract_x
 _atom_site_fract_y
 _atom_site_fract_z
 _atom_site_occupancy
 _atom_site_pbe_bader_charge
 _atom_site_pbe_bader_spin_density
 _atom_site_pbe_cm5_charge
 _atom_site_pbe_ddec_charge
 _atom_site_pbe_ddec_spin_density
 _atom_site_pbe_ddec_sum_bond_order
 _atom_site_pbe_magmom
Ni  Ni0  1  0.49999858  0.49999946  0.00000296  1  1.047307  1.48782  0.642382  0.618433  1.787659  2.553253  1.474
Ni  Ni1  1  0.50000039  0.00000151  0.49999953  1  1.047475  -1.488316  0.642453  0.61862  -1.745635  2.552999  -1.474
Ni  Ni2  1  0.00000093  0.49999873  0.50000033  1  1.047528  -1.488302  0.642429  0.618494  -1.745612  2.552792  -1.474
H  H3  1  0.38687622  0.43364696  0.97814770  1  0.494467  -0.000185  0.28414  0.247664  0.00028  1.018331  0.0
H  H4  1  0.43364890  0.97814724  0.38687325  1  0.494432  0.000183  0.284118  0.247709  -0.000253  1.018343  0.0
H  H5  1  0.97814645  0.38687320  0.43364076  1  0.494496  0.000183  0.284156  0.247851  -0.000249  1.018207  0.0
H  H6  1  0.61312367  0.56635785  0.02185166  1  0.494456  -0.000185  0.284135  0.247721  0.00028  1.0183  0.0
H  H7  1  0.56635329  0.02185106  0.61312855  1  0.494461  0.000182  0.284106  0.247696  -0.000253  1.018386  0.0
H  H8  1  0.02185574  0.61312583  0.56635874  1  0.494409  0.000184  0.284166  0.247868  -0.000249  1.018175  0.0
H  H9  1  0.37180546  0.63212349  0.08982325  1  0.406602  -0.000285  0.303471  0.24741  0.000183  0.936892  0.0
H  H10  1  0.63212583  0.08983251  0.37180375  1  0.406384  0.000286  0.30347  0.247324  -0.000149  0.936968  0.0
H  H11  1  0.08980981  0.37179719  0.63214180  1  0.407037  0.000273  0.303492  0.247312  -0.000153  0.936855  0.0
H  H12  1  0.62819367  0.36787644  0.91017782  1  0.406616  -0.000286  0.303466  0.247409  0.000183  0.936847  0.0
H  H13  1  0.36787636  0.91016652  0.62819377  1  0.406282  0.000286  0.303442  0.247311  -0.000149  0.937023  0.0
H  H14  1  0.91019009  0.62820033  0.36786063  1  0.407054  0.000273  0.303492  0.247338  -0.000153  0.936869  0.0
H  H15  1  0.41718893  0.32773156  0.18410566  1  0.067755  0.000826  0.114434  0.069681  0.000274  1.010137  0.001
H  H16  1  0.32773555  0.18409874  0.41718280  1  0.067933  -0.000842  0.114446  0.069686  -0.000271  1.010113  -0.001
H  H17  1  0.18410378  0.41717162  0.32773243  1  0.067537  -0.000828  0.114422  0.069604  -0.000266  1.010165  -0.001
H  H18  1  0.58281097  0.67226669  0.81589580  1  0.067301  0.000826  0.114443  0.069695  0.000274  1.010139  0.001
H  H19  1  0.67226892  0.81590107  0.58281673  1  0.067664  -0.000843  0.114427  0.069678  -0.000271  1.010116  -0.001
H  H20  1  0.81589841  0.58282668  0.67226474  1  0.067518  -0.000828  0.114472  0.069699  -0.000266  1.010174  -0.001
H  H21  1  0.35505974  0.28888484  0.13493261  1  0.025142  0.00675  0.103138  0.049749  0.003165  0.998133  0.003
H  H22  1  0.28889103  0.13492208  0.35505282  1  0.025075  -0.006971  0.103188  0.049837  -0.003206  0.998058  -0.003
H  H23  1  0.13492392  0.35505268  0.28888182  1  0.025071  -0.00697  0.103162  0.049828  -0.003221  0.998083  -0.003
H  H24  1  0.64493634  0.71111746  0.86506809  1  0.025164  0.006749  0.103154  0.049768  0.003164  0.998142  0.003
H  H25  1  0.71111421  0.86507604  0.64494445  1  0.025038  -0.006971  0.10316  0.049794  -0.003206  0.998132  -0.003
H  H26  1  0.86507674  0.64494608  0.71111778  1  0.025013  -0.006971  0.103159  0.049826  -0.003221  0.998102  -0.003
H  H27  1  0.29527242  0.48739813  0.17114786  1  0.038308  0.000291  0.105668  0.081058  2e-05  0.999187  0.0
H  H28  1  0.48738972  0.17115094  0.29526771  1  0.038271  -0.000291  0.105645  0.080989  -1.6e-05  0.999233  0.0
H  H29  1  0.17113050  0.29525297  0.48741775  1  0.039005  -0.000291  0.105698  0.081085  2e-06  0.999038  0.0
H  H30  1  0.70472747  0.51260158  0.82885497  1  0.038356  0.00029  0.105685  0.081096  2e-05  0.999168  0.0
H  H31  1  0.51261629  0.82884477  0.70472959  1  0.038328  -0.000291  0.105641  0.08097  -1.6e-05  0.999273  0.0
H  H32  1  0.82887093  0.70474336  0.51258254  1  0.039022  -0.000292  0.105709  0.081097  2e-06  0.999062  0.0
H  H33  1  0.22561658  0.48059797  0.10626281  1  0.057276  0.003728  0.095411  0.062866  0.001783  1.041457  0.002
H  H34  1  0.48060559  0.10626398  0.22560360  1  0.057267  -0.003731  0.095403  0.06287  -0.001738  1.041569  -0.002
H  H35  1  0.10623121  0.22560461  0.48062669  1  0.057399  -0.003917  0.095449  0.062975  -0.001846  1.041424  -0.002
H  H36  1  0.77438332  0.51940246  0.89373904  1  0.057261  0.003728  0.095417  0.062873  0.001783  1.041447  0.002
H  H37  1  0.51939736  0.89373044  0.77439620  1  0.057154  -0.00373  0.095415  0.062868  -0.001738  1.041574  -0.002
H  H38  1  0.89376869  0.77439364  0.51937344  1  0.057448  -0.003918  0.095433  0.062955  -0.001846  1.041411  -0.002
H  H39  1  0.29166144  0.61737317  0.95196716  1  0.075491  0.00027  0.112635  0.096566  1.9e-05  0.969478  0.0
H  H40  1  0.61738426  0.95197995  0.29164908  1  0.075778  -0.000273  0.112624  0.096558  -1.8e-05  0.969396  0.0
H  H41  1  0.95193530  0.29169358  0.61737098  1  0.075804  -0.000269  0.112641  0.096649  -2e-06  0.969535  0.0
H  H42  1  0.70833541  0.38262598  0.04803520  1  0.075474  0.00027  0.11262  0.096562  1.9e-05  0.969495  0.0
H  H43  1  0.38262022  0.04801548  0.70835163  1  0.075838  -0.000273  0.112643  0.096588  -1.8e-05  0.96946  0.0
H  H44  1  0.04806384  0.70830635  0.38262877  1  0.075805  -0.000269  0.112633  0.096646  -2e-06  0.96955  0.0
H  H45  1  0.21541777  0.66093576  0.06181222  1  -0.001716  0.003249  0.093326  0.063038  0.001518  0.990657  0.002
H  H46  1  0.66093587  0.06183179  0.21540845  1  -0.001974  -0.003255  0.093338  0.06306  -0.00148  0.990688  -0.002
H  H47  1  0.06176335  0.21542822  0.66095634  1  -0.001237  -0.003967  0.093416  0.063242  -0.001892  0.990406  -0.002
H  H48  1  0.78457907  0.33906485  0.93819085  1  -0.001647  0.003249  0.093344  0.063092  0.001518  0.990655  0.002
H  H49  1  0.33906786  0.93816314  0.78459015  1  -0.001934  -0.003255  0.093325  0.063072  -0.00148  0.99067  -0.002
H  H50  1  0.93823808  0.78457104  0.33904273  1  -0.001223  -0.003967  0.093433  0.063276  -0.001892  0.990371  -0.002
H  H51  1  0.40784851  0.71477747  0.86748731  1  0.067703  0.000872  0.11978  0.081047  0.000273  0.988723  0.001
H  H52  1  0.71478267  0.86750169  0.40784390  1  0.068052  -0.000837  0.11985  0.081136  -0.000224  0.988675  -0.001
H  H53  1  0.86747845  0.40786255  0.71477870  1  0.067405  -0.000875  0.119789  0.081155  -0.000263  0.988602  -0.001
H  H54  1  0.59214910  0.28522219  0.13251319  1  0.067543  0.000872  0.119785  0.081105  0.000273  0.988694  0.001
H  H55  1  0.28522334  0.13249621  0.59215447  1  0.068089  -0.000837  0.119858  0.081189  -0.000224  0.988703  -0.001
H  H56  1  0.13252145  0.59213497  0.28522175  1  0.067415  -0.000875  0.119784  0.081171  -0.000263  0.988573  -0.001
H  H57  1  0.33199700  0.79168515  0.95231696  1  0.016614  0.005768  0.09988  0.044277  0.002798  1.004473  0.003
H  H58  1  0.79168453  0.95234097  0.33199409  1  0.01665  -0.006047  0.099906  0.044348  -0.002883  1.004416  -0.003
H  H59  1  0.95230071  0.33200410  0.79169676  1  0.016745  -0.005792  0.09989  0.044244  -0.002742  1.004522  -0.003
H  H60  1  0.66800061  0.20831597  0.04768160  1  0.016675  0.005768  0.099882  0.044295  0.002798  1.004453  0.003
H  H61  1  0.20831995  0.04765957  0.66800381  1  0.016718  -0.006047  0.099904  0.044311  -0.002883  1.004427  -0.003
H  H62  1  0.04769995  0.66799392  0.20830314  1  0.016708  -0.005792  0.099888  0.044257  -0.002742  1.004515  -0.003
H  H63  1  0.56188386  0.77247994  0.99743069  1  0.040292  0.000387  0.106752  0.081842  0.000191  0.986319  0.0
H  H64  1  0.77247770  0.99743245  0.56189703  1  0.039973  -0.000412  0.106763  0.08191  -0.00019  0.986289  0.0
H  H65  1  0.99742800  0.56188725  0.77248792  1  0.039981  -0.000387  0.106747  0.081821  -0.000176  0.986316  0.0
H  H66  1  0.43811146  0.22751967  0.00257147  1  0.040159  0.000387  0.106761  0.081887  0.000191  0.986323  0.0
H  H67  1  0.22751991  0.00256939  0.43810454  1  0.039902  -0.000412  0.106756  0.081893  -0.00019  0.986255  0.0
H  H68  1  0.00257037  0.43811291  0.22751271  1  0.039966  -0.000387  0.106747  0.081819  -0.000176  0.98632  0.0
H  H69  1  0.47169611  0.70953305  0.08870425  1  0.029578  -3.3e-05  0.092552  0.063698  -5.7e-05  0.999229  0.0
H  H70  1  0.70954209  0.08870313  0.47169959  1  0.029628  2.2e-05  0.092532  0.06376  5.9e-05  0.999112  0.0
H  H71  1  0.08869465  0.47170262  0.70953550  1  0.029652  2.8e-05  0.092524  0.063684  5.5e-05  0.999083  0.0
H  H72  1  0.52830075  0.29046392  0.91129507  1  0.029535  -3.4e-05  0.092542  0.063719  -5.7e-05  0.999209  0.0
H  H73  1  0.29045628  0.91129484  0.52830263  1  0.029619  2.2e-05  0.092524  0.063735  5.9e-05  0.99912  0.0
H  H74  1  0.91130449  0.52829732  0.29046358  1  0.029693  2.7e-05  0.092532  0.063701  5.5e-05  0.999061  0.0
H  H75  1  0.42275491  0.93075313  0.94889042  1  0.025593  -6.7e-05  0.087643  0.079389  -3.9e-05  0.999215  0.0
H  H76  1  0.93076102  0.94889204  0.42277060  1  0.025853  -0.000112  0.087591  0.079333  -4.7e-05  0.999301  0.0
H  H77  1  0.94889394  0.42275009  0.93076179  1  0.025815  6.7e-05  0.08762  0.0794  4.1e-05  0.999149  0.0
H  H78  1  0.57723965  0.06924598  0.05111029  1  0.025692  -6.7e-05  0.087627  0.07942  -3.9e-05  0.999245  0.0
H  H79  1  0.06923811  0.05111153  0.57723026  1  0.025792  -0.000112  0.087585  0.079361  -4.7e-05  0.999275  0.0
H  H80  1  0.05110748  0.57724916  0.06923926  1  0.025791  6.7e-05  0.087641  0.079461  4.1e-05  0.999195  0.0
H  H81  1  0.32964921  0.87046712  0.04173898  1  0.014221  0.000206  0.082856  0.069265  9.8e-05  1.003752  0.0
H  H82  1  0.87047745  0.04172976  0.32965753  1  0.014053  -0.000288  0.082882  0.069288  -0.000133  1.003818  0.0
H  H83  1  0.04173817  0.32965011  0.87047042  1  0.014192  -0.000226  0.082878  0.069308  -0.000108  1.003747  0.0
H  H84  1  0.67034534  0.12953126  0.95826335  1  0.014253  0.000206  0.082892  0.069336  9.8e-05  1.003764  0.0
H  H85  1  0.12951939  0.95827305  0.67034263  1  0.014059  -0.000288  0.082912  0.069322  -0.000133  1.003797  0.0
H  H86  1  0.95826249  0.67034937  0.12952954  1  0.014204  -0.000226  0.082874  0.069312  -0.000108  1.003765  0.0
H  H87  1  0.40063709  0.84152693  0.17909449  1  0.026366  1e-05  0.09292  0.089095  5e-06  0.969133  0.0
H  H88  1  0.84152863  0.17909809  0.40063489  1  0.026325  -7e-06  0.092962  0.089122  8e-06  0.969112  0.0
H  H89  1  0.17909010  0.40064220  0.84152384  1  0.026388  -1.3e-05  0.092944  0.089122  -5e-06  0.969105  0.0
H  H90  1  0.59936052  0.15847345  0.82090505  1  0.026389  1e-05  0.092956  0.089164  4e-06  0.969057  0.0
H  H91  1  0.15847050  0.82090548  0.59936464  1  0.026145  -7e-06  0.092974  0.08915  8e-06  0.969077  0.0
H  H92  1  0.82091133  0.59935851  0.15847395  1  0.026432  -1.3e-05  0.09296  0.08915  -5e-06  0.969135  0.0
H  H93  1  0.48838138  0.90760646  0.08661292  1  0.003776  2.3e-05  0.08767  0.078657  8e-06  0.987687  0.0
H  H94  1  0.90760732  0.08662395  0.48838523  1  0.003627  -3.1e-05  0.087683  0.078722  1e-06  0.987747  0.0
H  H95  1  0.08661267  0.48838278  0.90760881  1  0.003723  -2.3e-05  0.087689  0.078713  -8e-06  0.987697  0.0
H  H96  1  0.51161547  0.09239124  0.91338609  1  0.003652  2.3e-05  0.087709  0.078769  8e-06  0.987656  0.0
H  H97  1  0.09238952  0.91338031  0.51161499  1  0.003625  -3e-05  0.087682  0.078708  1e-06  0.987759  0.0
H  H98  1  0.91338799  0.51161524  0.09239242  1  0.003709  -2.3e-05  0.087701  0.078731  -8e-06  0.987638  0.0
H  H99  1  0.25506160  0.99823994  0.13861679  1  -0.014534  -3e-06  0.082476  0.065872  -4e-06  0.984256  0.0
H  H100  1  0.99824233  0.13862672  0.25505926  1  -0.014515  -3e-06  0.082459  0.065842  1.4e-05  0.98428  0.0
H  H101  1  0.13862544  0.25505968  0.99823948  1  -0.014563  -5e-06  0.082457  0.065848  -0.0  0.984255  0.0
H  H102  1  0.74493601  0.00176191  0.86138147  1  -0.014582  -3e-06  0.082481  0.065878  -4e-06  0.984235  0.0
H  H103  1  0.00175985  0.86137522  0.74494165  1  -0.014573  -3e-06  0.082461  0.065842  1.4e-05  0.984263  0.0
H  H104  1  0.86137599  0.74493884  0.00175857  1  -0.014542  -5e-06  0.082441  0.065819  -0.0  0.98423  0.0
H  H105  1  0.34330332  0.06494764  0.04721564  1  0.006452  1.4e-05  0.082706  0.066258  8e-06  0.993218  0.0
H  H106  1  0.06494641  0.04722383  0.34330338  1  0.006568  -3.6e-05  0.082639  0.066133  -5e-06  0.993291  0.0
H  H107  1  0.04722717  0.34329788  0.06495129  1  0.006594  -1.5e-05  0.082635  0.066107  -5e-06  0.993315  0.0
H  H108  1  0.65669658  0.93505207  0.95278256  1  0.006476  1.4e-05  0.082721  0.066283  8e-06  0.993202  0.0
H  H109  1  0.93505196  0.95277778  0.65670061  1  0.006536  -3.6e-05  0.082638  0.066117  -5e-06  0.993226  0.0
H  H110  1  0.95277502  0.65670114  0.93504822  1  0.00654  -1.5e-05  0.082625  0.066093  -5e-06  0.993307  0.0
H  H111  1  0.32541284  0.97054416  0.27700684  1  0.024567  -6.1e-05  0.089245  0.124494  -3.2e-05  1.002692  0.0
H  H112  1  0.97055045  0.27700553  0.32541730  1  0.024542  -9.6e-05  0.089299  0.124562  -3.5e-05  1.002634  0.0
H  H113  1  0.27700659  0.32542006  0.97053837  1  0.024427  6e-05  0.089241  0.124486  3.5e-05  1.002721  0.0
H  H114  1  0.67458706  0.02945700  0.72299008  1  0.024509  -6.1e-05  0.089238  0.124474  -3.2e-05  1.002682  0.0
H  H115  1  0.02945097  0.72299591  0.67458349  1  0.024575  -9.6e-05  0.089281  0.124507  -3.5e-05  1.00267  0.0
H  H116  1  0.72299483  0.67457992  0.02946238  1  0.024458  6e-05  0.089245  0.124499  3.5e-05  1.002731  0.0
H  H117  1  0.27766353  0.10294725  0.21443355  1  0.022385  -0.000114  0.076844  0.092811  -4.6e-05  1.051415  0.0
H  H118  1  0.10294732  0.21443139  0.27766530  1  0.022554  -0.000385  0.076852  0.09283  -0.000213  1.051371  0.0
H  H119  1  0.21444016  0.27766712  0.10294370  1  0.022554  8.1e-05  0.07683  0.092823  4.6e-05  1.051406  0.0
H  H120  1  0.72233485  0.89705437  0.78556448  1  0.022435  -0.000114  0.076849  0.092818  -4.5e-05  1.051376  0.0
H  H121  1  0.89705257  0.78556467  0.72233774  1  0.022354  -0.000385  0.076839  0.09279  -0.000213  1.051408  0.0
H  H122  1  0.78556126  0.72233140  0.89705567  1  0.022549  8.1e-05  0.076836  0.092815  4.6e-05  1.051426  0.0
H  H123  1  0.41114228  0.04000022  0.18467042  1  -0.005423  -0.000118  0.083566  0.113682  -6.3e-05  1.021666  0.0
H  H124  1  0.04000116  0.18467019  0.41114829  1  -0.005509  -0.000226  0.083553  0.113657  -0.000115  1.021613  0.0
H  H125  1  0.18467476  0.41114587  0.03999367  1  -0.005494  0.000117  0.083596  0.113713  6.6e-05  1.021632  0.0
H  H126  1  0.58885915  0.95999977  0.81532636  1  -0.005416  -0.000118  0.083576  0.113697  -6.3e-05  1.021676  0.0
H  H127  1  0.95999949  0.81532929  0.58885365  1  -0.005449  -0.000226  0.083558  0.113671  -0.000115  1.02164  0.0
H  H128  1  0.81532438  0.58885261  0.96000471  1  -0.005493  0.000118  0.083573  0.113671  6.6e-05  1.021658  0.0
H  H129  1  0.51517665  0.49364594  0.34114438  1  0.035725  0.001578  0.095752  0.081114  0.00071  0.961211  0.001
H  H130  1  0.49364712  0.34114065  0.51517685  1  0.035725  -0.001757  0.095782  0.081125  -0.000786  0.961223  -0.001
H  H131  1  0.34114845  0.51517396  0.49364771  1  0.035493  -0.001756  0.095742  0.081092  -0.000784  0.96118  -0.001
H  H132  1  0.48482171  0.50635859  0.65885970  1  0.035673  0.001579  0.095782  0.081151  0.00071  0.961257  0.001
H  H133  1  0.50635583  0.65885888  0.48482145  1  0.035566  -0.001758  0.095778  0.081116  -0.000787  0.961268  -0.001
H  H134  1  0.65885297  0.48482675  0.50635339  1  0.035597  -0.001755  0.095747  0.081168  -0.000784  0.961218  -0.001
H  H135  1  0.48083799  0.31206912  0.33275106  1  0.020165  4.5e-05  0.084024  0.077936  4.1e-05  1.026194  0.0
H  H136  1  0.31206798  0.33275904  0.48083167  1  0.020279  -0.000284  0.084018  0.077938  -0.00016  1.026254  0.0
H  H137  1  0.33275462  0.48084048  0.31206259  1  0.020232  -4.8e-05  0.084003  0.077904  -3.1e-05  1.026254  0.0
H  H138  1  0.51916343  0.68793961  0.66724401  1  0.020158  4.5e-05  0.084046  0.07801  4.1e-05  1.026086  0.0
H  H139  1  0.68793726  0.66724273  0.51916605  1  0.020175  -0.000284  0.084032  0.077978  -0.00016  1.026125  0.0
H  H140  1  0.66724986  0.51915713  0.68793654  1  0.020114  -4.9e-05  0.084031  0.077961  -3.1e-05  1.026168  0.0
H  H141  1  0.59248300  0.31159297  0.34553087  1  -0.011519  4e-06  0.08437  0.077021  5e-06  0.984972  0.0
H  H142  1  0.31158632  0.34552818  0.59248602  1  -0.011737  -0.000144  0.084411  0.077024  -2.9e-05  0.985025  0.0
H  H143  1  0.34553625  0.59248696  0.31158855  1  -0.011328  -1.8e-05  0.084351  0.077003  -6e-06  0.985019  0.0
H  H144  1  0.40751766  0.68841381  0.65446535  1  -0.021449  5e-06  0.084382  0.077027  5e-06  0.985017  0.0
H  H145  1  0.68841892  0.65447140  0.40751196  1  -0.011797  -0.000144  0.084427  0.077046  -2.9e-05  0.984925  0.0
H  H146  1  0.65446441  0.40751617  0.68841119  1  -0.021475  -1.9e-05  0.084369  0.077044  -6e-06  0.984984  0.0
C  C147  1  0.41490332  0.32395627  0.11413577  1  0.631267  -0.000667  0.02611  0.060385  0.000161  3.94333  -0.002
C  C148  1  0.32396176  0.11412982  0.41489542  1  0.63122  0.000549  0.026104  0.060326  -0.000184  3.943216  0.002
C  C149  1  0.11413346  0.41489329  0.32395377  1  0.631705  0.000586  0.026149  0.060444  -0.00016  3.943127  0.002
C  C150  1  0.58509429  0.67604412  0.88586575  1  0.631779  -0.000667  0.02613  0.060357  0.000161  3.943435  -0.002
C  C151  1  0.67604425  0.88586953  0.58510233  1  0.631562  0.000549  0.026166  0.060341  -0.000184  3.94324  0.002
C  C152  1  0.88586645  0.58510496  0.67604636  1  0.631799  0.000586  0.026113  0.060286  -0.00016  3.943291  0.002
C  C153  1  0.29401285  0.49780412  0.09509409  1  0.286208  0.000261  -0.072983  -0.051181  0.000583  3.919269  -0.001
C  C154  1  0.49780527  0.09509435  0.29400834  1  0.286281  -0.000273  -0.072971  -0.051076  -0.000523  3.919301  0.001
C  C155  1  0.09507715  0.29400369  0.49781845  1  0.285329  -0.000328  -0.073116  -0.051313  -0.000572  3.919297  0.001
C  C156  1  0.70598475  0.50219699  0.90490844  1  0.286178  0.000261  -0.073015  -0.05123  0.000583  3.919247  -0.001
C  C157  1  0.50219845  0.90490131  0.70599062  1  0.286225  -0.000273  -0.07299  -0.051095  -0.000523  3.919374  0.001
C  C158  1  0.90492427  0.70599411  0.50218057  1  0.285311  -0.000328  -0.073086  -0.051256  -0.000572  3.919284  0.001
C  C159  1  0.28819506  0.60817076  0.02939770  1  0.286665  0.000131  -0.068457  -0.046988  0.000495  3.908333  -0.001
C  C160  1  0.60817551  0.02940986  0.28818950  1  0.28666  -0.000142  -0.068492  -0.047104  -0.000439  3.908436  0.001
C  C161  1  0.02936843  0.28820473  0.60818089  1  0.285816  -0.000368  -0.068518  -0.047311  -0.000585  3.908345  0.001
C  C162  1  0.71180101  0.39183008  0.97060428  1  0.286752  0.000131  -0.068421  -0.046992  0.000495  3.908445  -0.001
C  C163  1  0.39182897  0.97058776  0.71180831  1  0.28672  -0.000142  -0.068485  -0.047108  -0.000439  3.908504  0.001
C  C164  1  0.97063223  0.71179475  0.39181906  1  0.285785  -0.000368  -0.068543  -0.047367  -0.000585  3.908363  0.001
C  C165  1  0.39834685  0.72431661  0.93936853  1  0.62654  -0.000662  0.026502  0.05412  7e-05  3.948941  -0.002
C  C166  1  0.72431813  0.93938273  0.39834510  1  0.625904  0.000595  0.02642  0.053858  -4.4e-05  3.948945  0.002
C  C167  1  0.93935899  0.39835306  0.72432319  1  0.626952  0.000654  0.026448  0.053864  -3e-06  3.948951  0.002
C  C168  1  0.60165075  0.27568451  0.06063070  1  0.626719  -0.000661  0.026455  0.053989  7e-05  3.949025  -0.002
C  C169  1  0.27568788  0.06061516  0.60165460  1  0.6247  0.000595  0.026448  0.05397  -4.3e-05  3.948926  0.002
C  C170  1  0.06064091  0.60164519  0.27567695  1  0.626796  0.000655  0.026459  0.053858  -2e-06  3.948873  0.002
C  C171  1  0.48503606  0.76902441  0.01399442  1  0.309213  -4e-06  -0.067029  -0.052565  -1.1e-05  3.929662  0.0
C  C172  1  0.76903046  0.01399227  0.48504458  1  0.309265  -1.9e-05  -0.066982  -0.052815  -1.4e-05  3.929528  0.0
C  C173  1  0.01398933  0.48504128  0.76902807  1  0.309294  2e-06  -0.066951  -0.052476  1.8e-05  3.929372  0.0
C  C174  1  0.51495926  0.23097593  0.98600610  1  0.309221  -4e-06  -0.066968  -0.052548  -1.1e-05  3.929681  0.0
C  C175  1  0.23096943  0.98600670  0.51495723  1  0.309362  -1.9e-05  -0.067011  -0.052727  -1.4e-05  3.929492  0.0
C  C176  1  0.98600980  0.51495792  0.23097066  1  0.309255  2e-06  -0.066956  -0.052483  1.8e-05  3.929308  0.0
C  C177  1  0.40771485  0.87221752  0.02341104  1  -0.054392  0.00011  -0.167304  -0.173296  9.1e-05  3.991168  0.0
C  C178  1  0.87222552  0.02340956  0.40772522  1  -0.054581  -0.000226  -0.167226  -0.173172  -0.000191  3.991077  0.0
C  C179  1  0.02341000  0.40771634  0.87222086  1  -0.054475  -0.00011  -0.167315  -0.173406  -9e-05  3.991146  0.0
C  C180  1  0.59227894  0.12778181  0.97659055  1  -0.054549  0.00011  -0.167369  -0.173462  9e-05  3.991261  0.0
C  C181  1  0.12777285  0.97659424  0.59227454  1  -0.054592  -0.000226  -0.167265  -0.173251  -0.000191  3.991144  0.0
C  C182  1  0.97659066  0.59228314  0.12777843  1  -0.054483  -0.00011  -0.167356  -0.173493  -9e-05  3.991285  0.0
C  C183  1  0.41147944  0.90240863  0.10572432  1  -0.000614  -9e-06  -0.164758  -0.143846  -7e-06  3.949614  0.0
C  C184  1  0.90241125  0.10573058  0.41148162  1  -0.000215  -1.1e-05  -0.16487  -0.143998  1.5e-05  3.94954  0.0
C  C185  1  0.10572400  0.41148119  0.90240957  1  -0.000664  7e-06  -0.164787  -0.143922  5e-06  3.949582  0.0
C  C186  1  0.58851741  0.09759052  0.89427540  1  -0.00046  -9e-06  -0.164834  -0.14405  -7e-06  3.9496  0.0
C  C187  1  0.09758788  0.89427300  0.58851792  1  1.8e-05  -1.1e-05  -0.164861  -0.144007  1.5e-05  3.949574  0.0
C  C188  1  0.89427742  0.58851879  0.09758918  1  -0.000689  7e-06  -0.164805  -0.143991  5e-06  3.949567  0.0
C  C189  1  0.33187680  0.00335830  0.12002604  1  0.003597  2.3e-05  -0.167009  -0.089222  2e-05  3.984608  0.0
C  C190  1  0.00336038  0.12003357  0.33187736  1  0.003573  -1.7e-05  -0.166954  -0.089087  1.6e-05  3.984457  0.0
C  C191  1  0.12003506  0.33187423  0.00336039  1  0.003562  -2.5e-05  -0.166953  -0.089045  -1.8e-05  3.984465  0.0
C  C192  1  0.66812158  0.99664113  0.87997159  1  0.003725  2.3e-05  -0.167039  -0.089244  2e-05  3.98448  0.0
C  C193  1  0.99663951  0.87996833  0.66812454  1  0.003584  -1.7e-05  -0.166936  -0.089041  1.6e-05  3.984368  0.0
C  C194  1  0.87996713  0.66812261  0.99663805  1  0.00364  -2.5e-05  -0.166952  -0.089002  -1.8e-05  3.984367  0.0
C  C195  1  0.33621539  0.03101276  0.20369093  1  -0.037911  -0.000103  -0.246042  -0.355998  -7.5e-05  3.95926  0.0
C  C196  1  0.03101534  0.20369064  0.33622018  1  -0.038083  -0.000343  -0.246033  -0.355991  -0.00028  3.959008  0.0
C  C197  1  0.20369717  0.33621881  0.03100917  1  -0.03798  8.5e-05  -0.246028  -0.356018  7.5e-05  3.95915  0.0
C  C198  1  0.66378451  0.96898914  0.79630502  1  -0.037961  -0.000103  -0.246034  -0.355964  -7.5e-05  3.959079  0.0
C  C199  1  0.96898379  0.79630929  0.66378287  1  -0.037962  -0.000343  -0.246034  -0.355944  -0.00028  3.959097  0.0
C  C200  1  0.79630425  0.66377971  0.96898954  1  -0.038054  8.5e-05  -0.245991  -0.355953  7.5e-05  3.959166  0.0
C  C201  1  0.52701664  0.48611643  0.19885866  1  1.557984  0.000181  0.195597  0.57367  0.001034  4.179877  0.0
C  C202  1  0.48610574  0.19885735  0.52702428  1  1.55803  -0.000347  0.195555  0.573641  -0.001026  4.18003  0.0
C  C203  1  0.19886279  0.52701943  0.48611422  1  1.558211  -0.000247  0.195655  0.573765  -0.000962  4.179796  0.0
C  C204  1  0.47296951  0.51388297  0.80114943  1  1.557925  0.000179  0.195624  0.57361  0.001035  4.179929  0.0
C  C205  1  0.51388883  0.80114761  0.47296404  1  1.55794  -0.000349  0.195674  0.573772  -0.001027  4.179727  0.0
C  C206  1  0.80113480  0.47299116  0.51388895  1  1.557997  -0.000247  0.195575  0.573662  -0.000962  4.179871  0.0
C  C207  1  0.48126645  0.46097024  0.31521760  1  -0.008937  0.007054  -0.094459  -0.104165  0.004436  3.870715  0.005
C  C208  1  0.46096955  0.31521449  0.48126852  1  -0.008992  -0.007328  -0.094489  -0.104172  -0.004532  3.870605  -0.005
C  C209  1  0.31521913  0.48126341  0.46097488  1  -0.008839  -0.007119  -0.094515  -0.104177  -0.004389  3.870564  -0.005
C  C210  1  0.51873497  0.53903192  0.68478553  1  -0.009236  0.007058  -0.094501  -0.104155  0.004438  3.870728  0.005
C  C211  1  0.53903340  0.68478577  0.51873014  1  -0.008813  -0.007331  -0.094514  -0.104219  -0.004534  3.870767  -0.005
C  C212  1  0.68477923  0.51873893  0.53902880  1  -0.009041  -0.007118  -0.094536  -0.104392  -0.004389  3.871001  -0.005
C  C213  1  0.50871949  0.34478717  0.36483134  1  0.007369  -1.4e-05  -0.163645  -0.170528  1.4e-05  3.915695  0.0
C  C214  1  0.34478508  0.36483116  0.50872117  1  0.007525  0.000124  -0.16367  -0.170555  4.6e-05  3.915827  0.0
C  C215  1  0.36483362  0.50872087  0.34478613  1  0.006801  1.9e-05  -0.163585  -0.17052  1.7e-05  3.91571  0.0
C  C216  1  0.49128269  0.65521623  0.63516698  1  0.017324  -1.5e-05  -0.163673  -0.170649  1.4e-05  3.915761  0.0
C  C217  1  0.65521710  0.63517078  0.49127842  1  0.007769  0.000124  -0.163679  -0.170514  4.6e-05  3.915714  0.0
C  C218  1  0.63516628  0.49128102  0.65521578  1  0.017389  2e-05  -0.163635  -0.170561  1.7e-05  3.915745  0.0
N  N219  1  0.38942846  0.42997051  0.04766726  1  -1.103626  0.076614  -0.502078  -0.348494  0.047492  3.532305  0.066
N  N220  1  0.42997269  0.04766451  0.38942374  1  -1.10373  -0.07668  -0.502073  -0.348607  -0.046325  3.532493  -0.066
N  N221  1  0.04766067  0.38942120  0.42997118  1  -1.103862  -0.076682  -0.502027  -0.348731  -0.046334  3.532258  -0.066
N  N222  1  0.61056991  0.57003184  0.95233576  1  -1.103707  0.076612  -0.502069  -0.348542  0.04749  3.532466  0.066
N  N223  1  0.57003103  0.95233552  0.61057536  1  -1.10374  -0.076684  -0.502053  -0.34856  -0.046327  3.532415  -0.066
N  N224  1  0.95234000  0.61057682  0.57002873  1  -1.103775  -0.076687  -0.502051  -0.348745  -0.046337  3.532231  -0.066
N  N225  1  0.37813191  0.63001604  0.02060548  1  -1.040209  0.073249  -0.490535  -0.330793  0.045818  3.530917  0.064
N  N226  1  0.63001788  0.02061701  0.37813005  1  -1.039832  -0.073376  -0.490532  -0.330677  -0.044723  3.530993  -0.064
N  N227  1  0.02059219  0.37813769  0.63002615  1  -1.040469  -0.073347  -0.490596  -0.330552  -0.044699  3.530618  -0.064
N  N228  1  0.62186493  0.36998457  0.97939627  1  -1.040228  0.073247  -0.490522  -0.330777  0.045816  3.531012  0.064
N  N229  1  0.36998660  0.97938061  0.62186908  1  -1.039209  -0.073376  -0.490541  -0.330733  -0.044724  3.531025  -0.064
N  N230  1  0.97940847  0.62186106  0.36997477  1  -1.040473  -0.073348  -0.49056  -0.330567  -0.0447  3.530614  -0.064
N  N231  1  0.48847364  0.74155417  0.93048928  1  -1.074151  0.000572  -0.344125  -0.177652  9.4e-05  3.588104  0.001
N  N232  1  0.74155612  0.93049271  0.48847814  1  -1.073905  -0.00125  -0.344155  -0.177407  -0.000443  3.587642  -0.001
N  N233  1  0.93048235  0.48847977  0.74156147  1  -1.074298  -0.0006  -0.344181  -0.177543  -8.4e-05  3.587781  -0.001
N  N234  1  0.51152320  0.25844791  0.06950921  1  -1.074067  0.000572  -0.344088  -0.177674  9.4e-05  3.588012  0.001
N  N235  1  0.25844836  0.06950563  0.51152201  1  -1.07323  -0.00125  -0.344096  -0.177575  -0.000444  3.587761  -0.001
N  N236  1  0.06951679  0.51151797  0.25843853  1  -1.074038  -0.0006  -0.344183  -0.177591  -8.4e-05  3.587746  -0.001
O  O237  1  0.48877180  0.45980901  0.15541374  1  -1.185143  0.069104  -0.332733  -0.578128  0.042304  2.351747  0.064
O  O238  1  0.45976108  0.15541686  0.48880808  1  -1.18518  -0.0692  -0.332811  -0.578239  -0.04126  2.351858  -0.064
O  O239  1  0.15542389  0.48875899  0.45981232  1  -1.185013  -0.069185  -0.332775  -0.578229  -0.041245  2.351439  -0.064
O  O240  1  0.51122580  0.54018845  0.84459628  1  -1.184679  0.069147  -0.332734  -0.578179  0.042328  2.351442  0.064
O  O241  1  0.54023653  0.84458937  0.51118834  1  -1.184857  -0.069239  -0.332881  -0.578402  -0.041282  2.351456  -0.064
O  O242  1  0.84457524  0.51124386  0.54018884  1  -1.18505  -0.069158  -0.332702  -0.578134  -0.04123  2.351872  -0.064
O  O243  1  0.59638546  0.52933691  0.15414237  1  -1.192817  -0.000157  -0.349512  -0.578983  -0.000381  2.119873  0.0
O  O244  1  0.52935812  0.15413777  0.59637464  1  -1.192822  0.000116  -0.349462  -0.578962  0.000401  2.119811  0.0
O  O245  1  0.15414723  0.59638909  0.52932586  1  -1.193074  0.00017  -0.349558  -0.579061  0.000434  2.120034  0.0
O  O246  1  0.40361137  0.47067318  0.84585539  1  -1.19311  -0.000159  -0.349535  -0.578889  -0.000382  2.120346  0.0
O  O247  1  0.47064942  0.84585675  0.40362318  1  -1.193091  0.000118  -0.349494  -0.578901  0.000402  2.120059  0.0
O  O248  1  0.84585190  0.40361231  0.47067261  1  -1.192858  0.000168  -0.349557  -0.579057  0.000434  2.119537  0.0
