# generated using pymatgen
data_CdH10C14(SN3)2
_symmetry_space_group_name_H-M   'P 1'
_cell_length_a   3.82153553
_cell_length_b   12.58864991
_cell_length_c   9.17250113
_cell_angle_alpha   118.26160801
_cell_angle_beta   94.44484208
_cell_angle_gamma   91.14423440
_symmetry_Int_Tables_number   1
_chemical_formula_structural   CdH10C14(SN3)2
_chemical_formula_sum   'Cd1 H10 C14 S2 N6'
_cell_volume   386.69216510
_cell_formula_units_Z   1
loop_
 _symmetry_equiv_pos_site_id
 _symmetry_equiv_pos_as_xyz
  1  'x, y, z'
loop_
 _atom_site_type_symbol
 _atom_site_label
 _atom_site_symmetry_multiplicity
 _atom_site_fract_x
 _atom_site_fract_y
 _atom_site_fract_z
 _atom_site_occupancy
 _atom_site_hle17_bader_spin_density
 _atom_site_hle17_ddec_charge
 _atom_site_hle17_ddec_spin_density
 _atom_site_hle17_ddec_sum_bond_order
 _atom_site_hle17_magmom
 _atom_site_hse06_10hf_bader_spin_density
 _atom_site_hse06_10hf_ddec_charge
 _atom_site_hse06_10hf_ddec_spin_density
 _atom_site_hse06_10hf_ddec_sum_bond_order
 _atom_site_hse06_10hf_magmom
 _atom_site_hse06_bader_spin_density
 _atom_site_hse06_ddec_charge
 _atom_site_hse06_ddec_spin_density
 _atom_site_hse06_ddec_sum_bond_order
 _atom_site_hse06_magmom
 _atom_site_pbe_bader_spin_density
 _atom_site_pbe_cm5_charge
 _atom_site_pbe_ddec_charge
 _atom_site_pbe_ddec_spin_density
 _atom_site_pbe_ddec_sum_bond_order
 _atom_site_pbe_magmom
Cd  Cd0  1  0.99998736  0.99999982  0.99999990  1  0  1.103285  0  1.713033  0  0  0.917507  0  2.148496  0  0  0.966496  0  2.110563  0  0  0.797761  0.883799  0  2.173803  0
H  H1  1  0.29492169  0.99752601  0.33543355  1  0  0.074382  0  0.959041  0  0  0.083764  0  1.025247  0  0  0.085527  0  1.024008  0  0  0.111063  0.082524  0  1.026026  0
H  H2  1  0.70501696  0.00246145  0.66455953  1  0  0.074367  0  0.959133  0  0  0.083831  0  1.025241  0  0  0.085605  0  1.023974  0  0  0.111121  0.082598  0  1.026015  0
H  H3  1  0.33090766  0.12934135  0.64730013  1  0  0.101494  0  0.966848  0  0  0.111795  0  1.027953  0  0  0.113893  0  1.028367  0  0  0.103155  0.110282  0  1.027758  0
H  H4  1  0.66908575  0.87065491  0.35269428  1  0  0.101445  0  0.966894  0  0  0.111746  0  1.027999  0  0  0.113846  0  1.028408  0  0  0.103131  0.110232  0  1.027809  0
H  H5  1  0.08429297  0.33127622  0.76204806  1  0  0.096571  0  0.978065  0  0  0.103097  0  1.047598  0  0  0.105804  0  1.045861  0  0  0.09619  0.100963  0  1.049015  0
H  H6  1  0.91575439  0.66872931  0.23795228  1  0  0.096488  0  0.978153  0  0  0.103035  0  1.047665  0  0  0.105738  0  1.045935  0  0  0.096172  0.100902  0  1.049085  0
H  H7  1  0.80700687  0.26018722  0.25764237  1  0  0.083685  0  0.981771  0  0  0.086567  0  1.057365  0  0  0.088623  0  1.055022  0  0  0.115029  0.084908  0  1.059185  0
H  H8  1  0.19295834  0.73980995  0.74236161  1  0  0.08372  0  0.98168  0  0  0.086569  0  1.057329  0  0  0.088628  0  1.054984  0  0  0.115016  0.084911  0  1.059142  0
H  H9  1  0.80018421  0.49434454  0.70530880  1  0  0.079306  0  0.939507  0  0  0.082462  0  1.018028  0  0  0.086198  0  1.01383  0  0  0.109723  0.079595  0  1.021063  0
H  H10  1  0.19985458  0.50566037  0.29469398  1  0  0.079388  0  0.93952  0  0  0.082439  0  1.018134  0  0  0.086175  0  1.013938  0  0  0.109741  0.079568  0  1.02118  0
C  C11  1  0.19017416  0.08663494  0.39219201  1  0  0.121967  0  3.700901  0  0  0.087704  0  3.954809  0  0  0.094833  0  3.975049  0  0  0.040543  0.083374  0  3.941047  0
C  C12  1  0.80977512  0.91335543  0.60780430  1  0  0.122045  0  3.701071  0  0  0.087742  0  3.954957  0  0  0.09487  0  3.975208  0  0  0.040535  0.083406  0  3.941197  0
C  C13  1  0.20863646  0.15970314  0.56353598  1  0  -0.124683  0  3.75791  0  0  -0.134541  0  4.009411  0  0  -0.142514  0  4.033568  0  0  -0.086723  -0.129628  0  3.993473  0
C  C14  1  0.79134881  0.84029417  0.43646060  1  0  -0.124666  0  3.757947  0  0  -0.134513  0  4.009464  0  0  -0.142485  0  4.03362  0  0  -0.086735  -0.129599  0  3.993537  0
C  C15  1  0.07117267  0.27314336  0.62780807  1  0  -0.036504  0  3.682929  0  0  -0.061559  0  3.92387  0  0  -0.058951  0  3.943055  0  0  -0.060247  -0.063399  0  3.911164  0
C  C16  1  0.92884744  0.72685867  0.37219205  1  0  -0.036432  0  3.682969  0  0  -0.061575  0  3.923944  0  0  -0.058959  0  3.943117  0  0  -0.060251  -0.063403  0  3.911233  0
C  C17  1  0.91471216  0.30967840  0.51719040  1  0  0.004256  0  3.778149  0  0  0.029046  0  4.00546  0  0  0.023366  0  4.028307  0  0  -0.001616  0.032464  0  3.990046  0
C  C18  1  0.08529948  0.69032390  0.48281259  1  0  0.004177  0  3.778318  0  0  0.029091  0  4.005424  0  0  0.023411  0  4.028275  0  0  -0.001616  0.032507  0  3.990008  0
C  C19  1  0.91616299  0.23182245  0.34584276  1  0  0.125745  0  3.630205  0  0  0.082931  0  3.8806  0  0  0.091853  0  3.897207  0  0  0.062058  0.07758  0  3.869436  0
C  C20  1  0.08382444  0.76817805  0.65415992  1  0  0.125812  0  3.630283  0  0  0.083004  0  3.880594  0  0  0.091925  0  3.897202  0  0  0.06209  0.077655  0  3.869426  0
C  C21  1  0.75658035  0.42520905  0.57371589  1  0  0.107414  0  3.63827  0  0  0.072339  0  3.898187  0  0  0.079432  0  3.911993  0  0  0.079375  0.068115  0  3.888326  0
C  C22  1  0.24345050  0.57479679  0.42628790  1  0  0.107289  0  3.638533  0  0  0.072278  0  3.898406  0  0  0.079373  0  3.912208  0  0  0.079287  0.068051  0  3.888559  0
C  C23  1  0.55857877  0.21138471  0.98156407  1  0  0.31193  0  4.055992  0  0  0.292372  0  4.354777  0  0  0.317762  0  4.368623  0  0  0.138556  0.275216  0  4.344272  0
C  C24  1  0.44142790  0.78862124  0.01844144  1  0  0.312104  0  4.056035  0  0  0.292551  0  4.354792  0  0  0.317943  0  4.368621  0  0  0.138617  0.275388  0  4.344307  0
S  S25  1  0.63911039  0.34389396  0.00459856  1  0  -0.291059  0  2.042711  0  0  -0.276137  0  2.332065  0  0  -0.291245  0  2.328806  0  0  -0.130004  -0.264823  0  2.332058  0
S  S26  1  0.36094425  0.65610718  0.99540016  1  0  -0.291125  0  2.04267  0  0  -0.27623  0  2.332061  0  0  -0.291334  0  2.328795  0  0  -0.130017  -0.264918  0  2.332061  0
N  N27  1  0.04852096  0.12324655  0.28507619  1  0  -0.331793  0  3.279115  0  0  -0.246816  0  3.544364  0  0  -0.26949  0  3.566045  0  0  -0.329085  -0.231815  0  3.529216  0
N  N28  1  0.95144212  0.87674934  0.71492372  1  0  -0.331949  0  3.279292  0  0  -0.247002  0  3.544575  0  0  -0.269682  0  3.566264  0  0  -0.329102  -0.231999  0  3.529425  0
N  N29  1  0.56447516  0.44335491  0.46586249  1  0  -0.209782  0  3.078822  0  0  -0.176963  0  3.36699  0  0  -0.187792  0  3.387334  0  0  -0.209405  -0.169984  0  3.353351  0
N  N30  1  0.43552161  0.55664348  0.53414423  1  0  -0.209729  0  3.078898  0  0  -0.1769  0  3.367038  0  0  -0.187731  0  3.387389  0  0  -0.209344  -0.169918  0  3.353395  0
N  N31  1  0.50548088  0.11143584  0.96551899  1  0  -0.664509  0  2.890249  0  0  -0.594764  0  3.177614  0  0  -0.620499  0  3.181133  0  0  -0.437487  -0.577233  0  3.175032  0
N  N32  1  0.49450016  0.88856756  0.03447914  1  0  -0.664639  0  2.890418  0  0  -0.594869  0  3.177746  0  0  -0.62062  0  3.181302  0  0  -0.437529  -0.577321  0  3.175142  0
