# generated using pymatgen
data_CdH18C20S2(N2O3)2
_symmetry_space_group_name_H-M   'P 1'
_cell_length_a   8.60010086
_cell_length_b   9.48896004
_cell_length_c   13.42911758
_cell_angle_alpha   90.00020685
_cell_angle_beta   101.66240966
_cell_angle_gamma   90.00061663
_symmetry_Int_Tables_number   1
_chemical_formula_structural   CdH18C20S2(N2O3)2
_chemical_formula_sum   'Cd2 H36 C40 S4 N8 O12'
_cell_volume   1073.27266625
_cell_formula_units_Z   2
loop_
 _symmetry_equiv_pos_site_id
 _symmetry_equiv_pos_as_xyz
  1  'x, y, z'
loop_
 _atom_site_type_symbol
 _atom_site_label
 _atom_site_symmetry_multiplicity
 _atom_site_fract_x
 _atom_site_fract_y
 _atom_site_fract_z
 _atom_site_occupancy
 _atom_site_hle17_bader_spin_density
 _atom_site_hle17_ddec_charge
 _atom_site_hle17_ddec_spin_density
 _atom_site_hle17_ddec_sum_bond_order
 _atom_site_hle17_magmom
 _atom_site_hse06_10hf_bader_spin_density
 _atom_site_hse06_10hf_ddec_charge
 _atom_site_hse06_10hf_ddec_spin_density
 _atom_site_hse06_10hf_ddec_sum_bond_order
 _atom_site_hse06_10hf_magmom
 _atom_site_hse06_bader_spin_density
 _atom_site_hse06_ddec_charge
 _atom_site_hse06_ddec_spin_density
 _atom_site_hse06_ddec_sum_bond_order
 _atom_site_hse06_magmom
 _atom_site_pbe_bader_spin_density
 _atom_site_pbe_cm5_charge
 _atom_site_pbe_ddec_charge
 _atom_site_pbe_ddec_spin_density
 _atom_site_pbe_ddec_sum_bond_order
 _atom_site_pbe_magmom
Cd  Cd0  1  0.49999181  0.99999976  0.99999703  1  0  1.144461  0  1.647838  0  0  0.960291  0  2.082023  0  0  1.015562  0  2.029616  0  0  0.765883  0.922354  0  2.116982  0
Cd  Cd1  1  0.00000898  0.50000025  0.50000112  1  0  1.144469  0  1.647872  0  0  0.960306  0  2.082073  0  0  1.015579  0  2.029658  0  0  0.765924  0.922366  0  2.117032  0
H  H2  1  0.32464393  0.83348610  0.86457902  1  0  0.396203  0  0.926415  0  0  0.364143  0  0.99442  0  0  0.375483  0  0.978156  0  0  0.275368  0.35622  0  1.005709  0
H  H3  1  0.17535469  0.33348373  0.63541620  1  0  0.396066  0  0.926573  0  0  0.364006  0  0.994593  0  0  0.375345  0  0.97833  0  0  0.275316  0.356078  0  1.005889  0
H  H4  1  0.67534436  0.16651398  0.13541138  1  0  0.396107  0  0.92654  0  0  0.364035  0  0.994586  0  0  0.375376  0  0.978319  0  0  0.275304  0.356114  0  1.005874  0
H  H5  1  0.82465361  0.66651319  0.36459030  1  0  0.396022  0  0.926639  0  0  0.363939  0  0.994707  0  0  0.375279  0  0.978442  0  0  0.27528  0.356014  0  1.006002  0
H  H6  1  0.23418789  0.79641756  0.95421921  1  0  0.385894  0  0.934093  0  0  0.345575  0  1.015585  0  0  0.356785  0  0.999578  0  0  0.273269  0.33789  0  1.026463  0
H  H7  1  0.26580902  0.29641770  0.54577717  1  0  0.385892  0  0.934082  0  0  0.345576  0  1.015611  0  0  0.356786  0  0.999604  0  0  0.273254  0.337892  0  1.026477  0
H  H8  1  0.76579329  0.20358568  0.04576948  1  0  0.386067  0  0.934099  0  0  0.34572  0  1.015467  0  0  0.356931  0  0.999466  0  0  0.273299  0.338032  0  1.026337  0
H  H9  1  0.73420401  0.70358132  0.45423071  1  0  0.386085  0  0.934151  0  0  0.345761  0  1.015423  0  0  0.356972  0  0.999417  0  0  0.27334  0.33807  0  1.026299  0
H  H10  1  0.50153191  0.21079687  0.80688083  1  0  0.082875  0  0.946412  0  0  0.088412  0  1.014948  0  0  0.0916  0  1.011713  0  0  0.111848  0.08586  0  1.017526  0
H  H11  1  0.99845302  0.71078528  0.69311929  1  0  0.082841  0  0.946408  0  0  0.088404  0  1.014943  0  0  0.091591  0  1.011711  0  0  0.111871  0.085854  0  1.01752  0
H  H12  1  0.49847534  0.78921586  0.19311510  1  0  0.082752  0  0.946522  0  0  0.088326  0  1.015022  0  0  0.091512  0  1.011792  0  0  0.111839  0.085774  0  1.017606  0
H  H13  1  0.00154350  0.28921585  0.30687817  1  0  0.082868  0  0.94641  0  0  0.08844  0  1.014924  0  0  0.091624  0  1.011694  0  0  0.111894  0.085892  0  1.017495  0
H  H14  1  0.42459753  0.46017563  0.75228968  1  0  0.116497  0  0.951147  0  0  0.126799  0  1.009326  0  0  0.130148  0  1.008002  0  0  0.111764  0.124242  0  1.010581  0
H  H15  1  0.07537181  0.96017181  0.74770785  1  0  0.116601  0  0.951171  0  0  0.126929  0  1.009265  0  0  0.130275  0  1.007951  0  0  0.111824  0.124375  0  1.01052  0
H  H16  1  0.57540612  0.53983393  0.24770800  1  0  0.116566  0  0.951049  0  0  0.126802  0  1.009262  0  0  0.130151  0  1.00794  0  0  0.111771  0.124248  0  1.010518  0
H  H17  1  0.92461401  0.03983037  0.25228892  1  0  0.116621  0  0.951131  0  0  0.126943  0  1.00923  0  0  0.130291  0  1.007911  0  0  0.111823  0.124391  0  1.010485  0
H  H18  1  0.29100644  0.60844757  0.86221608  1  0  0.1095  0  0.954106  0  0  0.120303  0  1.014864  0  0  0.123861  0  1.011197  0  0  0.114042  0.117916  0  1.017138  0
H  H19  1  0.20896766  0.10844870  0.63778645  1  0  0.109588  0  0.953861  0  0  0.120365  0  1.014653  0  0  0.123922  0  1.010987  0  0  0.114064  0.117979  0  1.016929  0
H  H20  1  0.70898419  0.39155461  0.13777687  1  0  0.109469  0  0.954082  0  0  0.120346  0  1.014765  0  0  0.123903  0  1.011098  0  0  0.114066  0.117957  0  1.017045  0
H  H21  1  0.79102403  0.89155454  0.36221632  1  0  0.109546  0  0.953966  0  0  0.120353  0  1.014733  0  0  0.123908  0  1.011073  0  0  0.114069  0.117978  0  1.016988  0
H  H22  1  0.30882651  0.24991419  0.06297500  1  0  0.077154  0  0.968985  0  0  0.084729  0  1.036977  0  0  0.087392  0  1.034369  0  0  0.112441  0.082637  0  1.039028  0
H  H23  1  0.19118559  0.74990722  0.43703812  1  0  0.077227  0  0.968987  0  0  0.084767  0  1.036996  0  0  0.087454  0  1.034359  0  0  0.11243  0.082679  0  1.039033  0
H  H24  1  0.69116892  0.75008694  0.93701562  1  0  0.077159  0  0.968935  0  0  0.084676  0  1.03698  0  0  0.087407  0  1.034296  0  0  0.112406  0.082576  0  1.039053  0
H  H25  1  0.80882272  0.25009708  0.56296689  1  0  0.077258  0  0.968921  0  0  0.084784  0  1.036944  0  0  0.087501  0  1.034272  0  0  0.112451  0.082691  0  1.038997  0
H  H26  1  0.04534497  0.90038768  0.02698522  1  0  0.12701  0  0.949783  0  0  0.153011  0  0.999463  0  0  0.154159  0  0.999477  0  0  0.099315  0.152023  0  0.999691  0
H  H27  1  0.45465974  0.40038451  0.47301834  1  0  0.126997  0  0.949762  0  0  0.153  0  0.999436  0  0  0.154148  0  0.99945  0  0  0.099297  0.152011  0  0.999663  0
H  H28  1  0.95464788  0.09960923  0.97301920  1  0  0.126987  0  0.949795  0  0  0.153038  0  0.999399  0  0  0.154187  0  0.999412  0  0  0.099303  0.15205  0  0.999624  0
H  H29  1  0.54534864  0.59961767  0.52698147  1  0  0.127  0  0.949788  0  0  0.153063  0  0.999382  0  0  0.154213  0  0.999395  0  0  0.099327  0.152073  0  0.999613  0
H  H30  1  0.91476388  0.85681411  0.11084286  1  0  0.132321  0  0.954323  0  0  0.149468  0  1.019776  0  0  0.151276  0  1.019184  0  0  0.094969  0.148193  0  1.020119  0
H  H31  1  0.58524134  0.35680797  0.38916175  1  0  0.132246  0  0.954358  0  0  0.149419  0  1.019795  0  0  0.151224  0  1.019204  0  0  0.09496  0.148141  0  1.020144  0
H  H32  1  0.08523133  0.14317859  0.88916336  1  0  0.13231  0  0.954293  0  0  0.14951  0  1.019698  0  0  0.151315  0  1.019106  0  0  0.094936  0.148227  0  1.020056  0
H  H33  1  0.41476702  0.64319000  0.61083954  1  0  0.132316  0  0.954239  0  0  0.149468  0  1.019703  0  0  0.151273  0  1.019111  0  0  0.09497  0.148187  0  1.020058  0
H  H34  1  0.10822727  0.91934089  0.16049633  1  0  0.117156  0  0.971464  0  0  0.132192  0  1.044726  0  0  0.13422  0  1.043496  0  0  0.087143  0.130864  0  1.045602  0
H  H35  1  0.39177653  0.41933536  0.33950566  1  0  0.11708  0  0.971518  0  0  0.132114  0  1.044791  0  0  0.13414  0  1.043562  0  0  0.087115  0.130789  0  1.045668  0
H  H36  1  0.89176678  0.08065392  0.83950825  1  0  0.117223  0  0.971386  0  0  0.132214  0  1.044703  0  0  0.134242  0  1.043471  0  0  0.087131  0.130887  0  1.045577  0
H  H37  1  0.60823066  0.58066261  0.66049399  1  0  0.117139  0  0.971419  0  0  0.132162  0  1.044703  0  0  0.13419  0  1.043471  0  0  0.087107  0.130835  0  1.045573  0
C  C38  1  0.44042263  0.27973259  0.85142320  1  0  0.143014  0  3.661772  0  0  0.106976  0  3.920217  0  0  0.11596  0  3.93558  0  0  0.049027  0.101237  0  3.909907  0
C  C39  1  0.05956096  0.77972599  0.64857432  1  0  0.143293  0  3.661768  0  0  0.107163  0  3.920255  0  0  0.11615  0  3.935618  0  0  0.049129  0.101419  0  3.909951  0
C  C40  1  0.55958107  0.72027382  0.14857150  1  0  0.143304  0  3.66179  0  0  0.107216  0  3.920245  0  0  0.116202  0  3.935606  0  0  0.049142  0.101478  0  3.909943  0
C  C41  1  0.94043910  0.22027514  0.35142511  1  0  0.143195  0  3.661781  0  0  0.107071  0  3.920253  0  0  0.116058  0  3.93562  0  0  0.04911  0.101335  0  3.909937  0
C  C42  1  0.39934708  0.41802671  0.82265812  1  0  -0.101552  0  3.715279  0  0  -0.114764  0  3.973018  0  0  -0.12124  0  3.992015  0  0  -0.077867  -0.11089  0  3.960444  0
C  C43  1  0.10063118  0.91801961  0.67734200  1  0  -0.101987  0  3.71569  0  0  -0.115178  0  3.973458  0  0  -0.121656  0  3.992453  0  0  -0.077988  -0.111302  0  3.960887  0
C  C44  1  0.60065426  0.58197969  0.17733478  1  0  -0.101789  0  3.715442  0  0  -0.114901  0  3.973204  0  0  -0.121378  0  3.992199  0  0  -0.077945  -0.111026  0  3.960633  0
C  C45  1  0.89936174  0.08198047  0.32265796  1  0  -0.101917  0  3.715743  0  0  -0.115096  0  3.973508  0  0  -0.121573  0  3.992503  0  0  -0.07795  -0.111225  0  3.960941  0
C  C46  1  0.32308918  0.50036323  0.88378121  1  0  -0.013079  0  3.635301  0  0  -0.044416  0  3.88718  0  0  -0.039244  0  3.902735  0  0  -0.058327  -0.047354  0  3.876251  0
C  C47  1  0.17689062  0.00035972  0.61622183  1  0  -0.013031  0  3.635213  0  0  -0.044366  0  3.887132  0  0  -0.039191  0  3.902684  0  0  -0.058428  -0.047305  0  3.876206  0
C  C48  1  0.67690383  0.49964317  0.11621206  1  0  -0.013095  0  3.635253  0  0  -0.044498  0  3.887139  0  0  -0.039325  0  3.902692  0  0  -0.05846  -0.047444  0  3.876204  0
C  C49  1  0.82310580  0.99964247  0.38378307  1  0  -0.01294  0  3.635349  0  0  -0.044323  0  3.887261  0  0  -0.039148  0  3.902811  0  0  -0.058402  -0.047262  0  3.87634  0
C  C50  1  0.28969395  0.44250027  0.97336753  1  0  -0.025836  0  3.810736  0  0  -0.005395  0  4.053836  0  0  -0.013337  0  4.078395  0  0  -0.006471  -0.000757  0  4.037456  0
C  C51  1  0.21029645  0.94249872  0.52663876  1  0  -0.025976  0  3.810779  0  0  -0.005493  0  4.053838  0  0  -0.013438  0  4.078402  0  0  -0.006459  -0.000853  0  4.037459  0
C  C52  1  0.71029669  0.55750086  0.02662542  1  0  -0.025701  0  3.81064  0  0  -0.005297  0  4.053816  0  0  -0.013239  0  4.078384  0  0  -0.006338  -0.000653  0  4.037425  0
C  C53  1  0.78971182  0.05750347  0.47336923  1  0  -0.026031  0  3.811033  0  0  -0.005538  0  4.054076  0  0  -0.013482  0  4.078643  0  0  -0.006477  -0.000897  0  4.037703  0
C  C54  1  0.33323615  0.30182759  0.99532529  1  0  0.098308  0  3.687221  0  0  0.059642  0  3.937129  0  0  0.067363  0  3.954833  0  0  0.050415  0.054862  0  3.925365  0
C  C55  1  0.16676544  0.80182234  0.50468217  1  0  0.098268  0  3.687186  0  0  0.059629  0  3.937063  0  0  0.067333  0  3.95476  0  0  0.050423  0.054858  0  3.925306  0
C  C56  1  0.66676043  0.69817565  0.00466772  1  0  0.098239  0  3.687242  0  0  0.059686  0  3.937091  0  0  0.067356  0  3.954769  0  0  0.050455  0.054907  0  3.925326  0
C  C57  1  0.83324289  0.19817985  0.49532136  1  0  0.098193  0  3.687288  0  0  0.059583  0  3.937169  0  0  0.067266  0  3.954853  0  0  0.050371  0.054801  0  3.925416  0
C  C58  1  0.21510414  0.52365601  0.04313556  1  0  0.142313  0  3.785644  0  0  0.122604  0  4.076816  0  0  0.135103  0  4.093829  0  0  0.119109  0.114938  0  4.064444  0
C  C59  1  0.28489195  0.02365322  0.45687113  1  0  0.14222  0  3.785762  0  0  0.122501  0  4.076968  0  0  0.135001  0  4.093987  0  0  0.119039  0.114826  0  4.064607  0
C  C60  1  0.78488885  0.47634301  0.95685919  1  0  0.142319  0  3.785772  0  0  0.122566  0  4.07701  0  0  0.135064  0  4.094026  0  0  0.119044  0.114896  0  4.064631  0
C  C61  1  0.71511752  0.97634897  0.54313627  1  0  0.1423  0  3.785933  0  0  0.122569  0  4.077161  0  0  0.135066  0  4.094188  0  0  0.119052  0.114889  0  4.064805  0
C  C62  1  0.09998138  0.70672942  0.10566368  1  0  0.294583  0  3.729111  0  0  0.290392  0  3.990346  0  0  0.29919  0  4.011483  0  0  0.10479  0.284577  0  3.97598  0
C  C63  1  0.40001601  0.20672425  0.39433916  1  0  0.294416  0  3.729118  0  0  0.29026  0  3.990351  0  0  0.299063  0  4.011494  0  0  0.104769  0.284449  0  3.975988  0
C  C64  1  0.90001984  0.29326644  0.89433814  1  0  0.294678  0  3.728906  0  0  0.290362  0  3.99028  0  0  0.299167  0  4.011415  0  0  0.104744  0.284547  0  3.975914  0
C  C65  1  0.59998875  0.79327688  0.60566463  1  0  0.294471  0  3.72907  0  0  0.290293  0  3.990353  0  0  0.299093  0  4.01149  0  0  0.104764  0.284492  0  3.975978  0
C  C66  1  0.09821668  0.60949451  0.18282370  1  0  -0.247483  0  3.676759  0  0  -0.235109  0  3.947746  0  0  -0.248139  0  3.970122  0  0  -0.02848  -0.227063  0  3.933071  0
C  C67  1  0.40178416  0.10948685  0.31718011  1  0  -0.247445  0  3.676502  0  0  -0.235094  0  3.947518  0  0  -0.248145  0  3.969927  0  0  -0.028492  -0.227046  0  3.932829  0
C  C68  1  0.90178694  0.39050135  0.81717695  1  0  -0.247517  0  3.676659  0  0  -0.235057  0  3.947608  0  0  -0.248103  0  3.970007  0  0  -0.028427  -0.22701  0  3.93292  0
C  C69  1  0.59821708  0.89051112  0.68282022  1  0  -0.247363  0  3.676472  0  0  -0.234984  0  3.947469  0  0  -0.248024  0  3.969864  0  0  -0.028449  -0.226938  0  3.932774  0
C  C70  1  0.03658702  0.62125655  0.27818267  1  0  0.659605  0  3.976221  0  0  0.608756  0  4.273771  0  0  0.644139  0  4.26608  0  0  0.194165  0.585072  0  4.277906  0
C  C71  1  0.46341399  0.12125215  0.22182045  1  0  0.659451  0  3.976286  0  0  0.608597  0  4.273877  0  0  0.643987  0  4.266185  0  0  0.194076  0.584912  0  4.278015  0
C  C72  1  0.96341774  0.37873510  0.72182112  1  0  0.659555  0  3.976191  0  0  0.608705  0  4.273728  0  0  0.644093  0  4.266036  0  0  0.19412  0.585019  0  4.277879  0
C  C73  1  0.53658250  0.87874582  0.77817924  1  0  0.659506  0  3.975943  0  0  0.608652  0  4.273536  0  0  0.644035  0  4.265852  0  0  0.194102  0.58497  0  4.277675  0
C  C74  1  0.03782416  0.85382109  0.10039553  1  0  -0.359957  0  3.687929  0  0  -0.442315  0  3.924975  0  0  -0.444937  0  3.931401  0  0  -0.242035  -0.440263  0  3.920524  0
C  C75  1  0.46217876  0.35381761  0.39960767  1  0  -0.359747  0  3.687836  0  0  -0.442117  0  3.92485  0  0  -0.444734  0  3.931279  0  0  -0.241962  -0.440068  0  3.920397  0
C  C76  1  0.96217109  0.14617372  0.89960847  1  0  -0.360013  0  3.6877  0  0  -0.442372  0  3.924703  0  0  -0.44499  0  3.931123  0  0  -0.241955  -0.44032  0  3.92026  0
C  C77  1  0.53782724  0.64618036  0.60039256  1  0  -0.359884  0  3.687574  0  0  -0.442253  0  3.924588  0  0  -0.444871  0  3.93101  0  0  -0.241995  -0.440207  0  3.920146  0
S  S78  1  0.18244677  0.45342927  0.15575522  1  0  0.145178  0  2.604635  0  0  0.145058  0  2.932846  0  0  0.143714  0  2.939313  0  0  0.123363  0.145396  0  2.929041  0
S  S79  1  0.31755146  0.95342093  0.34425280  1  0  0.145211  0  2.604414  0  0  0.145112  0  2.932644  0  0  0.143771  0  2.939124  0  0  0.123383  0.145453  0  2.928842  0
S  S80  1  0.81755333  0.54656870  0.84424198  1  0  0.14516  0  2.604693  0  0  0.145054  0  2.93288  0  0  0.14371  0  2.939364  0  0  0.123367  0.145389  0  2.929068  0
S  S81  1  0.68245328  0.04657915  0.65575248  1  0  0.145125  0  2.604421  0  0  0.145039  0  2.932625  0  0  0.143693  0  2.939107  0  0  0.12335  0.14538  0  2.928818  0
N  N82  1  0.40711479  0.22293190  0.93664930  1  0  -0.330328  0  3.257455  0  0  -0.250418  0  3.522546  0  0  -0.270195  0  3.539653  0  0  -0.327377  -0.237408  0  3.510658  0
N  N83  1  0.09288223  0.72292202  0.56335437  1  0  -0.330303  0  3.257392  0  0  -0.250382  0  3.522522  0  0  -0.270158  0  3.539631  0  0  -0.327365  -0.237375  0  3.510642  0
N  N84  1  0.59287942  0.77707239  0.06334338  1  0  -0.330327  0  3.257379  0  0  -0.250475  0  3.52254  0  0  -0.270255  0  3.539669  0  0  -0.32741  -0.237467  0  3.510659  0
N  N85  1  0.90712375  0.27707700  0.43664735  1  0  -0.330269  0  3.25742  0  0  -0.250358  0  3.522537  0  0  -0.270136  0  3.539658  0  0  -0.327367  -0.237347  0  3.510649  0
N  N86  1  0.16820335  0.65677465  0.02857450  1  0  -0.406962  0  3.102298  0  0  -0.357688  0  3.359667  0  0  -0.374647  0  3.374631  0  0  -0.313823  -0.346163  0  3.348867  0
N  N87  1  0.33178982  0.15677028  0.47142765  1  0  -0.406788  0  3.102435  0  0  -0.357565  0  3.35989  0  0  -0.374513  0  3.374825  0  0  -0.313782  -0.34604  0  3.349079  0
N  N88  1  0.83178842  0.34322437  0.97142232  1  0  -0.407006  0  3.102427  0  0  -0.357673  0  3.359862  0  0  -0.374625  0  3.374808  0  0  -0.313785  -0.346146  0  3.349044  0
N  N89  1  0.66822086  0.84323085  0.52857843  1  0  -0.406889  0  3.102439  0  0  -0.357677  0  3.359903  0  0  -0.374632  0  3.374857  0  0  -0.313782  -0.346155  0  3.349095  0
O  O90  1  0.08719878  0.52700744  0.34573140  1  0  -0.662849  0  1.967673  0  0  -0.594009  0  2.211759  0  0  -0.62265  0  2.199649  0  0  -0.33894  -0.574038  0  2.219196  0
O  O91  1  0.41280924  0.02699588  0.15427542  1  0  -0.662725  0  1.967675  0  0  -0.593864  0  2.211725  0  0  -0.622503  0  2.199613  0  0  -0.338825  -0.573891  0  2.219159  0
O  O92  1  0.91281667  0.47299053  0.65427309  1  0  -0.662808  0  1.967566  0  0  -0.594019  0  2.211738  0  0  -0.622665  0  2.199632  0  0  -0.338913  -0.574022  0  2.219122  0
O  O93  1  0.58718603  0.97299893  0.84572634  1  0  -0.662814  0  1.96759  0  0  -0.593965  0  2.211688  0  0  -0.622609  0  2.199586  0  0  -0.338899  -0.573981  0  2.219093  0
O  O94  1  0.94075157  0.72004628  0.28533968  1  0  -0.619144  0  1.961865  0  0  -0.562782  0  2.183184  0  0  -0.589569  0  2.177811  0  0  -0.314912  -0.544301  0  2.186147  0
O  O95  1  0.55925889  0.22003898  0.21467051  1  0  -0.619098  0  1.96195  0  0  -0.562759  0  2.183294  0  0  -0.589544  0  2.177922  0  0  -0.314915  -0.544275  0  2.186257  0
O  O96  1  0.05925676  0.27994958  0.71466384  1  0  -0.619151  0  1.96191  0  0  -0.562798  0  2.183231  0  0  -0.589585  0  2.177856  0  0  -0.314923  -0.54432  0  2.186198  0
O  O97  1  0.44073880  0.77995689  0.78532860  1  0  -0.61913  0  1.961768  0  0  -0.562799  0  2.1831  0  0  -0.589583  0  2.177732  0  0  -0.314904  -0.544318  0  2.18606  0
O  O98  1  0.26877419  0.87702077  0.91593210  1  0  -0.832645  0  1.889156  0  0  -0.77127  0  2.084063  0  0  -0.794181  0  2.051052  0  0  -0.595748  -0.75484  0  2.106215  0
O  O99  1  0.23122379  0.37702078  0.58406463  1  0  -0.832525  0  1.889239  0  0  -0.771178  0  2.084075  0  0  -0.794092  0  2.051068  0  0  -0.595699  -0.754733  0  2.106254  0
O  O100  1  0.73120819  0.12298036  0.08405527  1  0  -0.832713  0  1.889317  0  0  -0.77135  0  2.084023  0  0  -0.794271  0  2.051001  0  0  -0.595724  -0.75492  0  2.106203  0
O  O101  1  0.76878567  0.62297719  0.41594352  1  0  -0.832664  0  1.889428  0  0  -0.771276  0  2.084031  0  0  -0.794194  0  2.051023  0  0  -0.595722  -0.75484  0  2.106212  0
