# generated using pymatgen
data_CuH27C36IN7O3
_symmetry_space_group_name_H-M   'P 1'
_cell_length_a   8.68721038
_cell_length_b   19.69493637
_cell_length_c   24.72649072
_cell_angle_alpha   90.00005801
_cell_angle_beta   90.17552744
_cell_angle_gamma   89.99991120
_symmetry_Int_Tables_number   1
_chemical_formula_structural   CuH27C36IN7O3
_chemical_formula_sum   'Cu4 H108 C144 I4 N28 O12'
_cell_volume   4230.53572761
_cell_formula_units_Z   4
loop_
 _symmetry_equiv_pos_site_id
 _symmetry_equiv_pos_as_xyz
  1  'x, y, z'
loop_
 _atom_site_type_symbol
 _atom_site_label
 _atom_site_symmetry_multiplicity
 _atom_site_fract_x
 _atom_site_fract_y
 _atom_site_fract_z
 _atom_site_occupancy
 _atom_site_pbe_bader_charge
 _atom_site_pbe_bader_spin_density
 _atom_site_pbe_cm5_charge
 _atom_site_pbe_ddec_charge
 _atom_site_pbe_ddec_spin_density
 _atom_site_pbe_ddec_sum_bond_order
 _atom_site_pbe_magmom
Cu  Cu0  1  0.45727762  0.50066241  0.54944986  1  0.539261  0  0.375422  0.21919  0  2.69808  0
Cu  Cu1  1  0.04271212  0.00066290  0.45054878  1  0.539272  0  0.375438  0.219199  0  2.698003  0
Cu  Cu2  1  0.54271409  0.49933405  0.45054497  1  0.539716  0  0.375481  0.219248  0  2.698206  0
Cu  Cu3  1  0.95727697  0.99933711  0.54946100  1  0.53971  0  0.375462  0.219182  0  2.698022  0
H  H4  1  0.07486812  0.98759848  0.73288482  1  0.069234  0  0.101267  0.107176  0  1.032575  0
H  H5  1  0.42513247  0.48759491  0.26711948  1  0.069293  0  0.101246  0.107152  0  1.032573  0
H  H6  1  0.92513618  0.01240762  0.26711288  1  0.069134  0  0.10122  0.107144  0  1.032623  0
H  H7  1  0.57486134  0.51240713  0.73288466  1  0.069191  0  0.101263  0.107182  0  1.032612  0
H  H8  1  0.17384577  0.88918581  0.68124332  1  0.102803  0  0.107122  0.118603  0  1.005873  0
H  H9  1  0.32616434  0.38918237  0.31876256  1  0.102581  0  0.107128  0.11864  0  1.005792  0
H  H10  1  0.82615161  0.11081471  0.31875516  1  0.102826  0  0.107099  0.118549  0  1.005801  0
H  H11  1  0.67384560  0.61081256  0.68124083  1  0.102819  0  0.107137  0.118607  0  1.005855  0
H  H12  1  0.90089885  0.75410014  0.77861461  1  0.05357  0  0.105875  0.121428  0  0.999636  0
H  H13  1  0.59911503  0.25410079  0.22138640  1  0.053482  0  0.105914  0.121473  0  0.999677  0
H  H14  1  0.09911573  0.24589733  0.22138757  1  0.053653  0  0.105917  0.121467  0  0.999746  0
H  H15  1  0.40089040  0.74589871  0.77861252  1  0.053714  0  0.105933  0.121482  0  0.999714  0
H  H16  1  0.80097487  0.85233815  0.83025917  1  0.08465  0  0.106022  0.118056  0  0.99512  0
H  H17  1  0.69902832  0.35233866  0.16974147  1  0.084546  0  0.106036  0.118057  0  0.995121  0
H  H18  1  0.19903158  0.14765881  0.16974622  1  0.084713  0  0.106042  0.118036  0  0.995229  0
H  H19  1  0.30096911  0.64765983  0.83025459  1  0.084722  0  0.106028  0.118075  0  0.995178  0
H  H20  1  0.31960776  0.73253632  0.62240181  1  0.056905  0  0.110415  0.115995  0  1.022984  0
H  H21  1  0.18039037  0.23253763  0.37759743  1  0.056916  0  0.110392  0.115944  0  1.023015  0
H  H22  1  0.68040684  0.26746268  0.37759916  1  0.05694  0  0.110402  0.116055  0  1.022984  0
H  H23  1  0.81959319  0.76746543  0.62240141  1  0.056662  0  0.110413  0.11607  0  1.022944  0
H  H24  1  0.46847766  0.64889747  0.56850524  1  0.147218  0  0.098957  0.079948  0  1.035687  0
H  H25  1  0.03152760  0.14890252  0.43149720  1  0.147144  0  0.098986  0.079982  0  1.035734  0
H  H26  1  0.53153465  0.35109949  0.43149532  1  0.14724  0  0.098942  0.079896  0  1.035688  0
H  H27  1  0.96845118  0.85110359  0.56851012  1  0.14703  0  0.098996  0.079919  0  1.035848  0
H  H28  1  0.14953461  0.49711899  0.59657109  1  0.096841  0  0.10999  0.084257  0  0.999705  0
H  H29  1  0.35045329  0.99711939  0.40343317  1  0.096842  0  0.109964  0.08425  0  0.999734  0
H  H30  1  0.85045932  0.50288305  0.40342738  1  0.09683  0  0.109992  0.084262  0  0.999571  0
H  H31  1  0.64952779  0.00288417  0.59657415  1  0.096796  0  0.110006  0.084273  0  0.999493  0
H  H32  1  0.99045535  0.57332513  0.65570917  1  0.128375  0  0.110858  0.119887  0  1.010238  0
H  H33  1  0.50953270  0.07331840  0.34429080  1  0.12833  0  0.110851  0.119863  0  1.010272  0
H  H34  1  0.00953861  0.42667335  0.34428768  1  0.128464  0  0.110839  0.119892  0  1.01018  0
H  H35  1  0.49045192  0.92667451  0.65571249  1  0.128988  0  0.110832  0.119859  0  1.010262  0
H  H36  1  0.99252079  0.10805440  0.83648355  1  0.059239  0  0.100291  0.104773  0  1.007607  0
H  H37  1  0.50747290  0.60805877  0.16351606  1  0.059174  0  0.100304  0.104801  0  1.00758  0
H  H38  1  0.00748589  0.89194308  0.16351052  1  0.059364  0  0.100293  0.104805  0  1.007517  0
H  H39  1  0.49252556  0.39194632  0.83648566  1  0.059259  0  0.100315  0.104806  0  1.007524  0
H  H40  1  0.92254079  0.21568662  0.78927576  1  0.130268  0  0.104799  0.122478  0  1.004592  0
H  H41  1  0.57746405  0.71568695  0.21072357  1  0.130295  0  0.104741  0.122432  0  1.004685  0
H  H42  1  0.07746476  0.78431187  0.21071709  1  0.130651  0  0.104825  0.122533  0  1.004488  0
H  H43  1  0.42253332  0.28431662  0.78927572  1  0.130362  0  0.104672  0.122272  0  1.004712  0
H  H44  1  0.63262894  0.10201530  0.68054835  1  0.072989  0  0.108954  0.116656  0  0.99323  0
H  H45  1  0.86737060  0.60201710  0.31944805  1  0.072794  0  0.108956  0.116719  0  0.993182  0
H  H46  1  0.36736736  0.89798268  0.31944690  1  0.07284  0  0.108938  0.116691  0  0.993209  0
H  H47  1  0.13263144  0.39798901  0.68054762  1  0.073156  0  0.108982  0.11667  0  0.993214  0
H  H48  1  0.70595533  0.99495091  0.72660948  1  0.093976  0  0.104664  0.111124  0  1.024109  0
H  H49  1  0.79403935  0.49495201  0.27338881  1  0.094067  0  0.104671  0.111133  0  1.023974  0
H  H50  1  0.29404324  0.00504910  0.27338698  1  0.093994  0  0.104698  0.111195  0  1.024013  0
H  H51  1  0.20596609  0.50505461  0.72660930  1  0.093901  0  0.104667  0.111112  0  1.023966  0
H  H52  1  0.83720176  0.41873218  0.68959294  1  0.131793  0  0.107246  0.108019  0  1.068444  0
H  H53  1  0.66279884  0.91873004  0.31041017  1  0.131882  0  0.107218  0.107982  0  1.068435  0
H  H54  1  0.16277254  0.58127088  0.31040829  1  0.131645  0  0.107238  0.108027  0  1.068232  0
H  H55  1  0.33721229  0.08127353  0.68959160  1  0.13177  0  0.10719  0.107884  0  1.068465  0
H  H56  1  0.70507002  0.50106654  0.62907012  1  0.078517  0  0.103816  0.08312  0  1.023395  0
H  H57  1  0.79492283  0.00106726  0.37093265  1  0.07847  0  0.103822  0.08314  0  1.023414  0
H  H58  1  0.29490541  0.49893804  0.37093233  1  0.078497  0  0.10383  0.083061  0  1.023543  0
H  H59  1  0.20509058  0.99893783  0.62907034  1  0.078574  0  0.103834  0.083099  0  1.023553  0
H  H60  1  0.40030784  0.35530833  0.57360456  1  0.114053  0  0.09887  0.077932  0  1.03698  0
H  H61  1  0.09971055  0.85530741  0.42639646  1  0.134675  0  0.098883  0.077987  0  1.036896  0
H  H62  1  0.59969648  0.64469016  0.42639233  1  0.11377  0  0.09886  0.077932  0  1.036843  0
H  H63  1  0.90029126  0.14469362  0.57361053  1  0.113627  0  0.098853  0.077822  0  1.036939  0
H  H64  1  0.51978922  0.26572083  0.63037145  1  0.059696  0  0.110801  0.114208  0  1.006101  0
H  H65  1  0.98022118  0.76572161  0.36962875  1  0.059628  0  0.11079  0.114162  0  1.006125  0
H  H66  1  0.48020586  0.73428121  0.36962702  1  0.059661  0  0.110783  0.114149  0  1.00597  0
H  H67  1  0.01978535  0.23428348  0.63037260  1  0.059654  0  0.110773  0.114145  0  1.006092  0
H  H68  1  0.01143935  0.90494387  0.89208988  1  0.081957  0  0.104843  0.116089  0  1.00385  0
H  H69  1  0.48856398  0.40493952  0.10790709  1  0.081902  0  0.104804  0.116079  0  1.003797  0
H  H70  1  0.98856608  0.09506071  0.10790904  1  0.081876  0  0.104803  0.116059  0  1.003832  0
H  H71  1  0.51143459  0.59505897  0.89208938  1  0.081864  0  0.104793  0.115991  0  1.003918  0
H  H72  1  0.95132901  0.90853996  0.98917649  1  0.034765  0  0.105443  0.114245  0  0.987253  0
H  H73  1  0.54867632  0.40853681  0.01082259  1  0.034588  0  0.105442  0.114215  0  0.987336  0
H  H74  1  0.04867532  0.09146309  0.01082000  1  0.0346  0  0.10542  0.114193  0  0.987237  0
H  H75  1  0.45132219  0.59146371  0.98917711  1  0.034646  0  0.105427  0.1142  0  0.987299  0
H  H76  1  0.61301273  0.06461096  0.96045904  1  0.108198  0  0.104911  0.124886  0  1.020989  0
H  H77  1  0.88699141  0.56460779  0.03954382  1  0.108259  0  0.104913  0.124869  0  1.021024  0
H  H78  1  0.38700532  0.93539109  0.03954195  1  0.108269  0  0.10488  0.124786  0  1.02105  0
H  H79  1  0.11300016  0.43539121  0.96045748  1  0.108186  0  0.104902  0.124851  0  1.021022  0
H  H80  1  0.66976282  0.05939430  0.86274119  1  0.080994  0  0.10045  0.108193  0  1.023394  0
H  H81  1  0.83023328  0.55939080  0.13726163  1  0.081021  0  0.100494  0.10825  0  1.023424  0
H  H82  1  0.33025175  0.94060977  0.13726140  1  0.080944  0  0.100445  0.108171  0  1.023367  0
H  H83  1  0.16975603  0.44060667  0.86273764  1  0.080899  0  0.100482  0.108243  0  1.023376  0
H  H84  1  0.69152934  0.91044656  0.12447573  1  0.027527  0  0.106149  0.104145  0  1.003258  0
H  H85  1  0.80848632  0.41044541  0.87552460  1  0.027631  0  0.106203  0.104227  0  1.003251  0
H  H86  1  0.30849899  0.08955346  0.87552933  1  0.027599  0  0.106176  0.104285  0  1.003301  0
H  H87  1  0.19151105  0.58955003  0.12447470  1  0.027653  0  0.106224  0.104282  0  1.003313  0
H  H88  1  0.64258040  0.89670097  0.22227026  1  0.087714  0  0.107538  0.080002  0  1.023122  0
H  H89  1  0.85742610  0.39669611  0.77773003  1  0.087674  0  0.107552  0.080013  0  1.023035  0
H  H90  1  0.35742957  0.10330665  0.77773191  1  0.087671  0  0.107535  0.079936  0  1.022971  0
H  H91  1  0.14256899  0.60329680  0.22226804  1  0.087864  0  0.107495  0.07994  0  1.023012  0
H  H92  1  0.56763555  0.10258014  0.24308474  1  0.113134  0  0.107402  0.079839  0  1.029608  0
H  H93  1  0.93236043  0.60257640  0.75691690  1  0.112682  0  0.10738  0.079841  0  1.029712  0
H  H94  1  0.43237211  0.89742647  0.75691783  1  0.112677  0  0.107399  0.079825  0  1.029727  0
H  H95  1  0.06763583  0.39741651  0.24308037  1  0.113163  0  0.107353  0.0798  0  1.029579  0
H  H96  1  0.60457938  0.12494216  0.14369266  1  0.111875  0  0.111139  0.120376  0  0.993945  0
H  H97  1  0.89542340  0.62494212  0.85631024  1  0.111852  0  0.111121  0.120345  0  0.993919  0
H  H98  1  0.39544446  0.87505887  0.85630673  1  0.111885  0  0.11112  0.120325  0  0.993953  0
H  H99  1  0.10457167  0.37505382  0.14368905  1  0.111756  0  0.111166  0.120457  0  0.993987  0
H  H100  1  0.22894313  0.77140831  0.68867663  1  0.532087  0  0.303163  0.273077  0  1.023874  0
H  H101  1  0.27106520  0.27140440  0.31132390  1  0.532145  0  0.303181  0.273118  0  1.023854  0
H  H102  1  0.77105422  0.22859119  0.31132348  1  0.531989  0  0.303152  0.27311  0  1.023804  0
H  H103  1  0.72893333  0.72859054  0.68867500  1  0.532158  0  0.303232  0.27319  0  1.023727  0
H  H104  1  0.59566489  0.21874482  0.69747125  1  0.528475  0  0.305001  0.275205  0  1.02477  0
H  H105  1  0.90434338  0.71874454  0.30252851  1  0.528386  0  0.305032  0.27525  0  1.024634  0
H  H106  1  0.40433710  0.78125570  0.30252685  1  0.528559  0  0.30495  0.275114  0  1.024889  0
H  H107  1  0.09565165  0.28125954  0.69747240  1  0.528464  0  0.305022  0.275148  0  1.02469  0
H  H108  1  0.80282706  0.95049027  0.05895404  1  0.446278  0  0.319116  0.26755  0  0.947713  0
H  H109  1  0.69717809  0.45049132  0.94104628  1  0.446531  0  0.319099  0.26754  0  0.947746  0
H  H110  1  0.19718296  0.04950619  0.94104570  1  0.446601  0  0.319125  0.2675  0  0.947706  0
H  H111  1  0.30281578  0.54950818  0.05895462  1  0.446587  0  0.319112  0.267556  0  0.947738  0
C  C112  1  0.93266708  0.92682220  0.78565486  1  0.298019  0  0.090631  0.175047  0  4.044049  0
C  C113  1  0.56733006  0.42682083  0.21434744  1  0.298644  0  0.090655  0.175006  0  4.043864  0
C  C114  1  0.06734063  0.07317832  0.21434488  1  0.297597  0  0.090456  0.174715  0  4.044035  0
C  C115  1  0.43266611  0.57317868  0.78565387  1  0.298385  0  0.090632  0.175047  0  4.04396  0
C  C116  1  0.03597148  0.93656051  0.74274006  1  -0.037409  0  -0.097172  -0.161204  0  4.006118  0
C  C117  1  0.46403387  0.43655943  0.25726543  1  -0.037666  0  -0.097128  -0.160963  0  4.006086  0
C  C118  1  0.96402363  0.06344001  0.25725680  1  -0.037661  0  -0.097145  -0.161139  0  4.006275  0
C  C119  1  0.53596915  0.56343956  0.74273874  1  -0.037365  0  -0.097241  -0.161229  0  4.006306  0
C  C120  1  0.09113800  0.88167581  0.71374496  1  -0.044397  0  -0.090572  -0.151615  0  3.9813  0
C  C121  1  0.40887218  0.38167379  0.28625849  1  -0.043992  0  -0.090642  -0.15191  0  3.981572  0
C  C122  1  0.90885942  0.11832116  0.28625150  1  -0.044001  0  -0.09046  -0.151482  0  3.981166  0
C  C123  1  0.59113547  0.61832114  0.71374408  1  -0.044443  0  -0.090534  -0.151588  0  3.981289  0
C  C124  1  0.04464007  0.81539585  0.72663474  1  0.323129  0  0.082456  0.215956  0  4.029369  0
C  C125  1  0.45536465  0.31539277  0.27336580  1  0.323075  0  0.082512  0.216132  0  4.029242  0
C  C126  1  0.95536542  0.18460213  0.27336135  1  0.324076  0  0.082441  0.216096  0  4.029194  0
C  C127  1  0.54463498  0.68460419  0.72663512  1  0.323663  0  0.082509  0.215995  0  4.029099  0
C  C128  1  0.93908042  0.80519346  0.76865609  1  0.065304  0  -0.097077  -0.162047  0  3.996377  0
C  C129  1  0.56093671  0.30519262  0.23134618  1  0.065134  0  -0.097121  -0.162089  0  3.996386  0
C  C130  1  0.06093071  0.19480655  0.23134527  1  0.065023  0  -0.097128  -0.162188  0  3.996537  0
C  C131  1  0.43906297  0.69480587  0.76865271  1  0.065029  0  -0.097139  -0.162087  0  3.996376  0
C  C132  1  0.88304213  0.86056560  0.79766706  1  -2.4e-05  0  -0.100444  -0.173652  0  4.008619  0
C  C133  1  0.61696444  0.36056621  0.20233563  1  0.000391  0  -0.100474  -0.173651  0  4.008578  0
C  C134  1  0.11696209  0.13943340  0.20233469  1  2.1e-05  0  -0.100403  -0.17348  0  4.008716  0
C  C135  1  0.38303752  0.63943228  0.79766409  1  3.5e-05  0  -0.10043  -0.17367  0  4.008729  0
C  C136  1  0.04839557  0.70392402  0.68044397  1  1.389325  0  0.240558  0.463815  0  4.136111  0
C  C137  1  0.45159801  0.20392050  0.31955726  1  1.389522  0  0.240537  0.463792  0  4.136288  0
C  C138  1  0.95160992  0.29607396  0.31955171  1  1.388873  0  0.240537  0.463731  0  4.136056  0
C  C139  1  0.54838657  0.79607494  0.68044806  1  1.388897  0  0.24056  0.463758  0  4.13613  0
C  C140  1  0.14487207  0.65871640  0.64600784  1  -0.004988  0  -0.001502  0.00623  0  3.977157  0
C  C141  1  0.35512289  0.15871198  0.35399013  1  0.008191  0  -0.001439  0.006339  0  3.976909  0
C  C142  1  0.85512762  0.34128208  0.35399066  1  -0.004949  0  -0.001388  0.006482  0  3.976928  0
C  C143  1  0.64486757  0.84128245  0.64600914  1  -0.004998  0  -0.001406  0.006394  0  3.976948  0
C  C144  1  0.27892673  0.68037267  0.61974628  1  -0.014175  0  -0.082663  -0.148296  0  3.952806  0
C  C145  1  0.22107150  0.18037193  0.38025656  1  -0.027428  0  -0.082659  -0.148282  0  3.952652  0
C  C146  1  0.72107641  0.31962633  0.38025222  1  -0.013964  0  -0.082663  -0.148442  0  3.953139  0
C  C147  1  0.77892695  0.81963113  0.61974557  1  -0.013873  0  -0.082645  -0.148397  0  3.952942  0
C  C148  1  0.36170161  0.63452581  0.58874734  1  0.429738  0  0.038912  0.093153  0  3.918249  0
C  C149  1  0.13829334  0.13452821  0.41125505  1  0.429381  0  0.038932  0.09315  0  3.918598  0
C  C150  1  0.63830382  0.36547166  0.41125157  1  0.429372  0  0.038877  0.09317  0  3.918299  0
C  C151  1  0.86169701  0.86547434  0.58874948  1  0.429909  0  0.038914  0.09322  0  3.918795  0
C  C152  1  0.18451059  0.54924305  0.60505335  1  0.461179  0  0.041414  0.089585  0  3.920262  0
C  C153  1  0.31547887  0.04924277  0.39495057  1  0.460926  0  0.041439  0.089546  0  3.920583  0
C  C154  1  0.81547760  0.45075900  0.39494470  1  0.461156  0  0.041482  0.089648  0  3.919825  0
C  C155  1  0.68451950  0.95075725  0.60505560  1  0.461267  0  0.041483  0.089634  0  3.919818  0
C  C156  1  0.09634184  0.59168497  0.63731610  1  -0.038274  0  -0.077063  -0.135474  0  3.940338  0
C  C157  1  0.40365095  0.09168053  0.36268666  1  -0.038121  0  -0.077075  -0.13548  0  3.940303  0
C  C158  1  0.90364866  0.40831555  0.36268115  1  -0.038189  0  -0.077084  -0.135571  0  3.94011  0
C  C159  1  0.59634170  0.90831390  0.63731828  1  -0.03884  0  -0.077092  -0.135564  0  3.940308  0
C  C160  1  0.85188019  0.04491381  0.78520043  1  0.346191  0  0.087319  0.166715  0  4.039682  0
C  C161  1  0.64811038  0.54491359  0.21479387  1  0.345676  0  0.087285  0.166722  0  4.039774  0
C  C162  1  0.14812184  0.95508467  0.21479605  1  0.345933  0  0.087386  0.166805  0  4.03961  0
C  C163  1  0.35188475  0.45508845  0.78520218  1  0.345942  0  0.087331  0.166772  0  4.03958  0
C  C164  1  0.91461586  0.10712929  0.80186550  1  -0.078694  0  -0.095851  -0.160262  0  4.019846  0
C  C165  1  0.58537901  0.60712959  0.19813291  1  -0.078738  0  -0.095816  -0.160217  0  4.019875  0
C  C166  1  0.08538735  0.89287022  0.19812937  1  -0.078927  0  -0.095841  -0.160273  0  4.019601  0
C  C167  1  0.41461719  0.39287448  0.80186678  1  -0.078809  0  -0.09577  -0.16026  0  4.019625  0
C  C168  1  0.87510193  0.16744123  0.77586619  1  -0.033439  0  -0.097419  -0.164949  0  3.97816  0
C  C169  1  0.62489380  0.66744053  0.22413631  1  -0.033295  0  -0.097363  -0.164889  0  3.978124  0
C  C170  1  0.12489780  0.83255827  0.22412988  1  -0.034019  0  -0.097495  -0.165064  0  3.97794  0
C  C171  1  0.37510700  0.33256253  0.77586380  1  -0.033708  0  -0.097404  -0.164656  0  3.978019  0
C  C172  1  0.77074828  0.16561742  0.73245774  1  0.311026  0  0.089793  0.232124  0  4.016691  0
C  C173  1  0.72924514  0.66561924  0.26754556  1  0.310908  0  0.089716  0.232  0  4.016804  0
C  C174  1  0.22924567  0.83438361  0.26753992  1  0.311302  0  0.089762  0.232061  0  4.016754  0
C  C175  1  0.27075448  0.33438635  0.73245617  1  0.311385  0  0.089755  0.231767  0  4.017137  0
C  C176  1  0.71334355  0.10295665  0.71434138  1  0.061047  0  -0.088222  -0.151565  0  3.968827  0
C  C177  1  0.78665480  0.60295795  0.28565622  1  0.061541  0  -0.088173  -0.151597  0  3.968918  0
C  C178  1  0.28665733  0.89704387  0.28565469  1  0.061103  0  -0.088193  -0.151618  0  3.968971  0
C  C179  1  0.21335069  0.39704714  0.71433986  1  0.060837  0  -0.088258  -0.151531  0  3.968976  0
C  C180  1  0.75383615  0.04313214  0.74016425  1  -0.054746  0  -0.089151  -0.147196  0  3.996812  0
C  C181  1  0.74615786  0.54313496  0.25983087  1  -0.054959  0  -0.089195  -0.147249  0  3.996671  0
C  C182  1  0.24616818  0.95686685  0.25983224  1  -0.054836  0  -0.089238  -0.1473  0  3.996798  0
C  C183  1  0.25383728  0.45687064  0.74016437  1  -0.054843  0  -0.089149  -0.147187  0  3.99664  0
C  C184  1  0.77723317  0.28496127  0.69949344  1  1.384807  0  0.23921  0.463446  0  4.141925  0
C  C185  1  0.72276327  0.78495959  0.30051077  1  1.384888  0  0.239366  0.463621  0  4.141695  0
C  C186  1  0.22275959  0.71504128  0.30050583  1  1.385069  0  0.239341  0.463794  0  4.141865  0
C  C187  1  0.27723520  0.21504550  0.69949055  1  1.385186  0  0.239241  0.463449  0  4.141972  0
C  C188  1  0.68939809  0.33460703  0.66594125  1  -0.102622  0  -0.0052  0.001652  0  3.986791  0
C  C189  1  0.81060164  0.83460584  0.33406260  1  -0.10258  0  -0.005346  0.001427  0  3.986804  0
C  C190  1  0.31058661  0.66539501  0.33405799  1  -0.102579  0  -0.005217  0.00137  0  3.987184  0
C  C191  1  0.18940254  0.16539620  0.66594117  1  -0.102381  0  -0.005259  0.001492  0  3.986839  0
C  C192  1  0.74033216  0.40210355  0.66491622  1  0.020334  0  -0.081574  -0.144451  0  3.949139  0
C  C193  1  0.75966617  0.90210341  0.33508849  1  0.020111  0  -0.081528  -0.144245  0  3.948949  0
C  C194  1  0.25964553  0.59789747  0.33508827  1  0.020292  0  -0.081567  -0.144312  0  3.948921  0
C  C195  1  0.24034843  0.09790066  0.66491248  1  0.020111  0  -0.081532  -0.144188  0  3.948945  0
C  C196  1  0.66615716  0.44853376  0.63180400  1  0.483294  0  0.037849  0.092002  0  3.915427  0
C  C197  1  0.83383875  0.94853514  0.36819871  1  0.48344  0  0.037874  0.091895  0  3.915497  0
C  C198  1  0.33382522  0.55146625  0.36819645  1  0.483748  0  0.037908  0.092074  0  3.915626  0
C  C199  1  0.16616888  0.05146792  0.63180507  1  0.484022  0  0.037925  0.092007  0  3.915473  0
C  C200  1  0.49610404  0.36694379  0.60077521  1  0.453675  0  0.037376  0.0909  0  3.922793  0
C  C201  1  0.00390278  0.86694697  0.39922660  1  0.433221  0  0.037285  0.090738  0  3.922618  0
C  C202  1  0.50388301  0.63305317  0.39922203  1  0.418639  0  0.037303  0.090778  0  3.922601  0
C  C203  1  0.99610370  0.13305609  0.60077758  1  0.454436  0  0.037398  0.091032  0  3.922565  0
C  C204  1  0.56392051  0.31738740  0.63284975  1  0.027891  0  -0.082724  -0.148393  0  3.95858  0
C  C205  1  0.93608047  0.81738820  0.36715207  1  0.027866  0  -0.082548  -0.148121  0  3.958472  0
C  C206  1  0.43606191  0.68261363  0.36714828  1  0.027491  0  -0.082682  -0.148149  0  3.958345  0
C  C207  1  0.06393182  0.18261740  0.63284930  1  0.027229  0  -0.082643  -0.148253  0  3.958517  0
C  C208  1  0.84615725  0.98283313  0.87010017  1  0.338977  0  0.086878  0.16944  0  4.051209  0
C  C209  1  0.65384432  0.48282904  0.12990138  1  0.338911  0  0.086978  0.169538  0  4.051339  0
C  C210  1  0.15385273  0.01716841  0.12990160  1  0.338959  0  0.086892  0.169492  0  4.051428  0
C  C211  1  0.34615422  0.51716944  0.87009671  1  0.338856  0  0.086923  0.169569  0  4.05132  0
C  C212  1  0.92320126  0.93972204  0.90662202  1  -0.009387  0  -0.103934  -0.176254  0  4.022039  0
C  C213  1  0.57681086  0.43971543  0.09337752  1  -0.009324  0  -0.103874  -0.176193  0  4.021863  0
C  C214  1  0.07681334  0.06028051  0.09337896  1  -0.009186  0  -0.103949  -0.176367  0  4.021889  0
C  C215  1  0.42318307  0.56028306  0.90662096  1  -0.009162  0  -0.103923  -0.176287  0  4.021952  0
C  C216  1  0.88847836  0.94169570  0.96144205  1  -0.038389  0  -0.098951  -0.173132  0  4.009991  0
C  C217  1  0.61153605  0.44168847  0.03855789  1  -0.03816  0  -0.098927  -0.173027  0  4.009913  0
C  C218  1  0.11154203  0.05830939  0.03855732  1  -0.038155  0  -0.098806  -0.172958  0  4.009825  0
C  C219  1  0.38846132  0.55830900  0.96144140  1  -0.038236  0  -0.098874  -0.172973  0  4.00987  0
C  C220  1  0.77767609  0.98699369  0.98164983  1  0.351106  0  0.085928  0.226798  0  4.047101  0
C  C221  1  0.72233354  0.48698991  0.01835054  1  0.350915  0  0.086017  0.22686  0  4.047168  0
C  C222  1  0.22233739  0.01300683  0.01834952  1  0.350805  0  0.085987  0.226923  0  4.047013  0
C  C223  1  0.27766841  0.51300553  0.98164958  1  0.351172  0  0.085901  0.226815  0  4.046954  0
C  C224  1  0.69948234  0.02967199  0.94531031  1  0.022296  0  -0.099742  -0.161248  0  3.980226  0
C  C225  1  0.80051505  0.52966890  0.05469048  1  0.022321  0  -0.099757  -0.161196  0  3.980517  0
C  C226  1  0.30052536  0.97032853  0.05469024  1  0.022662  0  -0.099734  -0.161219  0  3.980291  0
C  C227  1  0.19948463  0.47032705  0.94530802  1  0.022417  0  -0.099726  -0.161278  0  3.980225  0
C  C228  1  0.73293564  0.02681943  0.89053988  1  -0.048254  0  -0.102114  -0.169582  0  4.025676  0
C  C229  1  0.76706061  0.52681644  0.10946130  1  -0.048223  0  -0.102325  -0.169836  0  4.026001  0
C  C230  1  0.26706859  0.97318160  0.10946146  1  -0.048565  0  -0.102152  -0.169611  0  4.025781  0
C  C231  1  0.23294139  0.47318002  0.89053639  1  -0.048214  0  -0.102232  -0.169691  0  4.02581  0
C  C232  1  0.67285308  0.03581206  0.06700978  1  1.414795  0  0.235202  0.458224  0  4.143838  0
C  C233  1  0.82715350  0.53580965  0.93299145  1  1.414764  0  0.235083  0.45815  0  4.144096  0
C  C234  1  0.32716384  0.96418896  0.93299040  1  1.415166  0  0.235169  0.458132  0  4.144306  0
C  C235  1  0.17284621  0.46418580  0.06700583  1  1.415377  0  0.23499  0.457957  0  4.144123  0
C  C236  1  0.65567970  0.02034113  0.12610492  1  -0.046884  0  -0.000439  0.006645  0  3.994975  0
C  C237  1  0.84432462  0.52033811  0.87389669  1  -0.046888  0  -0.000387  0.006639  0  3.994992  0
C  C238  1  0.34434639  0.97965990  0.87389690  1  -0.046968  0  -0.000344  0.00677  0  3.995272  0
C  C239  1  0.15566585  0.47965886  0.12610218  1  -0.046628  0  -0.000333  0.006831  0  3.994794  0
C  C240  1  0.66751372  0.95538757  0.14886914  1  -0.051711  0  -0.08923  -0.171944  0  3.987882  0
C  C241  1  0.83248448  0.45538536  0.85113278  1  -0.051958  0  -0.089343  -0.172026  0  3.987945  0
C  C242  1  0.33250307  0.04461193  0.85113710  1  -0.051621  0  -0.089362  -0.172339  0  3.988222  0
C  C243  1  0.16750251  0.54461059  0.14886729  1  -0.052027  0  -0.089388  -0.172306  0  3.988151  0
C  C244  1  0.63929163  0.94722359  0.20396541  1  0.50778  0  0.03967  0.086236  0  3.993869  0
C  C245  1  0.86070201  0.44722180  0.79603568  1  0.507847  0  0.039713  0.086277  0  3.993572  0
C  C246  1  0.36071717  0.05277743  0.79603757  1  0.507991  0  0.039707  0.086417  0  3.993445  0
C  C247  1  0.13928041  0.55277415  0.20396235  1  0.50778  0  0.039691  0.086394  0  3.993606  0
C  C248  1  0.59413990  0.06109382  0.21527354  1  0.443229  0  0.042767  0.09136  0  3.97838  0
C  C249  1  0.90584818  0.56109419  0.78472724  1  0.443753  0  0.042655  0.091223  0  3.978562  0
C  C250  1  0.40586661  0.93890569  0.78472862  1  0.443651  0  0.042672  0.091343  0  3.978678  0
C  C251  1  0.09413775  0.43890125  0.21526838  1  0.442985  0  0.042732  0.091375  0  3.978146  0
C  C252  1  0.61710830  0.07406310  0.16050006  1  0.014236  0  -0.077143  -0.139586  0  3.931437  0
C  C253  1  0.88288668  0.57406254  0.83949913  1  0.014313  0  -0.077087  -0.13951  0  3.931277  0
C  C254  1  0.38290980  0.92593692  0.83949890  1  0.013945  0  -0.077125  -0.139545  0  3.931644  0
C  C255  1  0.11710271  0.42593391  0.16049650  1  0.014118  0  -0.077205  -0.139732  0  3.931606  0
I  I256  1  0.71534043  0.56904993  0.52038940  1  -0.517915  0  -0.278375  -0.466457  0  1.569744  0
I  I257  1  0.78464311  0.06905232  0.47960692  1  -0.517821  0  -0.278382  -0.466475  0  1.569571  0
I  I258  1  0.28465128  0.43094551  0.47960502  1  -0.517808  0  -0.278365  -0.466439  0  1.569659  0
I  I259  1  0.21534719  0.93094312  0.52040003  1  -0.517883  0  -0.278349  -0.466438  0  1.569491  0
N  N260  1  0.88152274  0.98415829  0.81459532  1  -1.231294  0  -0.255689  -0.153213  0  3.688752  0
N  N261  1  0.61846507  0.48415786  0.18540335  1  -1.23145  0  -0.25571  -0.153331  0  3.688972  0
N  N262  1  0.11847696  0.01583918  0.18540237  1  -1.23065  0  -0.255647  -0.15309  0  3.688727  0
N  N263  1  0.38152769  0.51584215  0.81459593  1  -1.231558  0  -0.255713  -0.153289  0  3.688928  0
N  N264  1  0.11449851  0.76229739  0.69721866  1  -1.304249  0  -0.394595  -0.374451  0  3.617529  0
N  N265  1  0.38550754  0.26229440  0.30278226  1  -1.304179  0  -0.394563  -0.374507  0  3.617693  0
N  N266  1  0.88550350  0.23769907  0.30277904  1  -1.3047  0  -0.394565  -0.374556  0  3.617488  0
N  N267  1  0.61448980  0.73770003  0.69721785  1  -1.304794  0  -0.394691  -0.374563  0  3.617492  0
N  N268  1  0.31781628  0.56933901  0.58196876  1  -1.20715  0  -0.35849  -0.175236  0  3.637106  0
N  N269  1  0.18218119  0.06934292  0.41803399  1  -1.206807  0  -0.358564  -0.175238  0  3.637518  0
N  N270  1  0.68216956  0.43066252  0.41803130  1  -1.207205  0  -0.358613  -0.175274  0  3.637013  0
N  N271  1  0.81782293  0.93065811  0.58197260  1  -1.207175  0  -0.358654  -0.175238  0  3.637366  0
N  N272  1  0.71113440  0.22357090  0.70642109  1  -1.291099  0  -0.397  -0.379116  0  3.62544  0
N  N273  1  0.78887040  0.72357068  0.29357865  1  -1.291161  0  -0.397069  -0.379182  0  3.625429  0
N  N274  1  0.28886649  0.77643013  0.29357458  1  -1.291176  0  -0.396902  -0.379013  0  3.62546  0
N  N275  1  0.21112807  0.27643491  0.70642267  1  -1.291262  0  -0.396926  -0.378777  0  3.625454  0
N  N276  1  0.54612450  0.43182797  0.59956164  1  -1.226146  0  -0.356646  -0.17271  0  3.630413  0
N  N277  1  0.95387724  0.93183286  0.40044027  1  -1.226221  0  -0.356718  -0.172748  0  3.630525  0
N  N278  1  0.45386138  0.56816697  0.40043640  1  -1.19066  0  -0.356686  -0.172779  0  3.630341  0
N  N279  1  0.04612461  0.06816867  0.59956470  1  -1.226485  0  -0.356786  -0.172798  0  3.630131  0
N  N280  1  0.74773758  0.98702403  0.03739544  1  -1.25168  0  -0.397031  -0.37468  0  3.61515  0
N  N281  1  0.75227089  0.48702202  0.96260574  1  -1.251869  0  -0.397045  -0.374786  0  3.615268  0
N  N282  1  0.25227243  0.01297395  0.96260471  1  -1.252244  0  -0.39712  -0.374621  0  3.615265  0
N  N283  1  0.24772763  0.51297545  0.03739356  1  -1.252338  0  -0.397018  -0.374711  0  3.615246  0
N  N284  1  0.60388338  0.99878594  0.23716798  1  -1.20972  0  -0.320225  -0.267264  0  3.334685  0
N  N285  1  0.89611297  0.49878527  0.76283277  1  -1.209678  0  -0.320156  -0.267183  0  3.334376  0
N  N286  1  0.39612605  0.00121389  0.76283219  1  -1.209604  0  -0.320157  -0.267215  0  3.334342  0
N  N287  1  0.10388094  0.50121017  0.23716691  1  -1.209471  0  -0.320107  -0.267184  0  3.33416  0
O  O288  1  0.91260327  0.68731540  0.69156659  1  -1.180177  0  -0.299122  -0.52111  0  2.244508  0
O  O289  1  0.58739353  0.18730856  0.30843634  1  -1.180156  0  -0.299087  -0.521064  0  2.244484  0
O  O290  1  0.08740562  0.31268715  0.30843194  1  -1.180115  0  -0.299126  -0.521082  0  2.244559  0
O  O291  1  0.41259562  0.81269044  0.69157061  1  -1.179871  0  -0.299091  -0.521075  0  2.244689  0
O  O292  1  0.90692864  0.30045050  0.71822088  1  -1.173593  0  -0.301628  -0.517564  0  2.234897  0
O  O293  1  0.59306303  0.80045193  0.28178858  1  -1.173585  0  -0.301668  -0.517602  0  2.234829  0
O  O294  1  0.09306411  0.69954951  0.28177880  1  -1.17376  0  -0.301712  -0.517756  0  2.2349  0
O  O295  1  0.40693307  0.19955316  0.71821597  1  -1.173769  0  -0.301631  -0.517598  0  2.234924  0
O  O296  1  0.62057358  0.08900848  0.04764041  1  -1.12361  0  -0.299539  -0.473221  0  2.075278  0
O  O297  1  0.87943051  0.58900656  0.95236085  1  -1.123616  0  -0.299451  -0.473122  0  2.075332  0
O  O298  1  0.37944216  0.91099254  0.95236138  1  -1.123754  0  -0.299476  -0.473159  0  2.075412  0
O  O299  1  0.12056000  0.41098837  0.04763600  1  -1.123932  0  -0.299336  -0.473  0  2.075386  0
