# generated using pymatgen
data_CdH6C8(N4O)2
_symmetry_space_group_name_H-M   'P 1'
_cell_length_a   7.71606701
_cell_length_b   7.83148662
_cell_length_c   11.58428953
_cell_angle_alpha   105.91051453
_cell_angle_beta   109.42990345
_cell_angle_gamma   90.03151181
_symmetry_Int_Tables_number   1
_chemical_formula_structural   CdH6C8(N4O)2
_chemical_formula_sum   'Cd2 H12 C16 N16 O4'
_cell_volume   631.60565804
_cell_formula_units_Z   2
loop_
 _symmetry_equiv_pos_site_id
 _symmetry_equiv_pos_as_xyz
  1  'x, y, z'
loop_
 _atom_site_type_symbol
 _atom_site_label
 _atom_site_symmetry_multiplicity
 _atom_site_fract_x
 _atom_site_fract_y
 _atom_site_fract_z
 _atom_site_occupancy
 _atom_site_hle17_bader_spin_density
 _atom_site_hle17_ddec_charge
 _atom_site_hle17_ddec_spin_density
 _atom_site_hle17_ddec_sum_bond_order
 _atom_site_hle17_magmom
 _atom_site_hse06_10hf_bader_spin_density
 _atom_site_hse06_10hf_ddec_charge
 _atom_site_hse06_10hf_ddec_spin_density
 _atom_site_hse06_10hf_ddec_sum_bond_order
 _atom_site_hse06_10hf_magmom
 _atom_site_hse06_bader_spin_density
 _atom_site_hse06_ddec_charge
 _atom_site_hse06_ddec_spin_density
 _atom_site_hse06_ddec_sum_bond_order
 _atom_site_hse06_magmom
 _atom_site_pbe_bader_spin_density
 _atom_site_pbe_cm5_charge
 _atom_site_pbe_ddec_charge
 _atom_site_pbe_ddec_spin_density
 _atom_site_pbe_ddec_sum_bond_order
 _atom_site_pbe_magmom
Cd  Cd0  1  0.50000251  0.99999971  0.50000084  1  0  1.081171  0  1.833677  0  0  0.88465  0  2.314933  0  0  0.933906  0  2.267803  0  0  0.799893  0.849459  0  2.347879  0
Cd  Cd1  1  0.00000053  0.00000099  0.49999908  1  0  1.081353  0  1.833071  0  0  0.884811  0  2.315088  0  0  0.934104  0  2.267856  0  0  0.800193  0.85013  0  2.346824  0
H  H2  1  0.63209575  0.57231749  0.72436230  1  0  0.114225  0  0.938357  0  0  0.121257  0  1.001643  0  0  0.124262  0  0.998496  0  0  0.134394  0.118985  0  1.004027  0
H  H3  1  0.90825015  0.42698340  0.27551443  1  0  0.114714  0  0.939625  0  0  0.121902  0  1.002583  0  0  0.124895  0  0.999451  0  0  0.134528  0.119568  0  1.005016  0
H  H4  1  0.36790512  0.42768378  0.27563528  1  0  0.114212  0  0.93836  0  0  0.12124  0  1.001655  0  0  0.12424  0  0.998503  0  0  0.134394  0.118974  0  1.004041  0
H  H5  1  0.09175074  0.57301790  0.72448576  1  0  0.114706  0  0.939632  0  0  0.121902  0  1.002584  0  0  0.124894  0  0.999454  0  0  0.134517  0.119561  0  1.005017  0
H  H6  1  0.76111367  0.70711869  0.96142120  1  0  0.137498  0  0.917103  0  0  0.147646  0  0.971291  0  0  0.151642  0  0.969264  0  0  0.126694  0.144784  0  0.972862  0
H  H7  1  0.79995518  0.29213220  0.03843456  1  0  0.137261  0  0.918235  0  0  0.147032  0  0.97269  0  0  0.151085  0  0.970609  0  0  0.126562  0.144106  0  0.974421  0
H  H8  1  0.23888859  0.29288260  0.03857929  1  0  0.137528  0  0.917085  0  0  0.14765  0  0.971297  0  0  0.151645  0  0.969273  0  0  0.126696  0.14479  0  0.972865  0
H  H9  1  0.20004558  0.70786776  0.96156535  1  0  0.137259  0  0.918256  0  0  0.147035  0  0.972706  0  0  0.151089  0  0.970623  0  0  0.126562  0.144106  0  0.97444  0
H  H10  1  0.15605927  0.41829840  0.54745724  1  0  0.129024  0  0.967798  0  0  0.133845  0  1.03839  0  0  0.137119  0  1.036279  0  0  0.116444  0.131508  0  1.03992  0
H  H11  1  0.60917076  0.58187751  0.45253325  1  0  0.12843  0  0.968139  0  0  0.133344  0  1.038628  0  0  0.136537  0  1.036615  0  0  0.116393  0.130892  0  1.040343  0
H  H12  1  0.84393750  0.58170290  0.45254377  1  0  0.129009  0  0.967793  0  0  0.133818  0  1.03838  0  0  0.137091  0  1.036269  0  0  0.116447  0.131486  0  1.039903  0
H  H13  1  0.39082449  0.41812243  0.54746459  1  0  0.128424  0  0.968172  0  0  0.133352  0  1.038653  0  0  0.136547  0  1.036642  0  0  0.116405  0.130899  0  1.04037  0
C  C14  1  0.54365069  0.60226756  0.78185892  1  0  0.109576  0  3.578387  0  0  0.064432  0  3.833464  0  0  0.07442  0  3.847652  0  0  0.069793  0.057477  0  3.824469  0
C  C15  1  0.76228568  0.39730310  0.21806411  1  0  0.107788  0  3.580314  0  0  0.062232  0  3.835405  0  0  0.072239  0  3.849637  0  0  0.068804  0.055545  0  3.826338  0
C  C16  1  0.45634580  0.39773106  0.21813982  1  0  0.109561  0  3.578438  0  0  0.064417  0  3.83353  0  0  0.074416  0  3.847709  0  0  0.069748  0.057461  0  3.824545  0
C  C17  1  0.23771370  0.60269686  0.78193550  1  0  0.107784  0  3.580302  0  0  0.062206  0  3.835417  0  0  0.072212  0  3.849651  0  0  0.068787  0.055519  0  3.82634  0
C  C18  1  0.61254705  0.67722127  0.91269419  1  0  -0.127226  0  3.671259  0  0  -0.150977  0  3.92575  0  0  -0.159645  0  3.944142  0  0  -0.063524  -0.145446  0  3.913756  0
C  C19  1  0.70021244  0.32232435  0.08723085  1  0  -0.126299  0  3.67103  0  0  -0.149222  0  3.925047  0  0  -0.157984  0  3.943455  0  0  -0.062771  -0.143891  0  3.913316  0
C  C20  1  0.38745096  0.32277869  0.08730599  1  0  -0.127282  0  3.671294  0  0  -0.15101  0  3.925787  0  0  -0.159678  0  3.944178  0  0  -0.063529  -0.145475  0  3.913792  0
C  C21  1  0.29978694  0.67767561  0.91276876  1  0  -0.126304  0  3.67107  0  0  -0.149224  0  3.925094  0  0  -0.157987  0  3.943502  0  0  -0.062777  -0.143898  0  3.913366  0
C  C22  1  0.49052039  0.71499476  0.98136133  1  0  0.091292  0  3.758136  0  0  0.099549  0  3.993965  0  0  0.108304  0  4.012912  0  0  0.030187  0.093664  0  3.981379  0
C  C23  1  0.50947762  0.28500520  0.01863798  1  0  0.091313  0  3.758052  0  0  0.099575  0  3.993878  0  0  0.10833  0  4.012825  0  0  0.030188  0.093698  0  3.981285  0
C  C24  1  0.55965857  0.78751429  0.11951650  1  0  0.202607  0  3.829  0  0  0.189215  0  4.106533  0  0  0.190739  0  4.126393  0  0  0.19648  0.188265  0  4.092929  0
C  C25  1  0.44034204  0.21248433  0.88048228  1  0  0.202647  0  3.82898  0  0  0.189243  0  4.106532  0  0  0.190768  0  4.12639  0  0  0.196492  0.188285  0  4.092929  0
C  C26  1  0.28862586  0.49789643  0.57768216  1  0  -0.204224  0  3.552277  0  0  -0.265213  0  3.799237  0  0  -0.267363  0  3.804516  0  0  -0.068477  -0.263432  0  3.795765  0
C  C27  1  0.71137324  0.50210086  0.42231691  1  0  -0.204203  0  3.552351  0  0  -0.265126  0  3.799193  0  0  -0.267285  0  3.804502  0  0  -0.068481  -0.263345  0  3.795716  0
C  C28  1  0.26269108  0.66121857  0.52518463  1  0  0.703694  0  3.85418  0  0  0.65245  0  4.158826  0  0  0.686171  0  4.15194  0  0  0.214277  0.629598  0  4.162117  0
C  C29  1  0.73730557  0.33878141  0.47481697  1  0  0.703447  0  3.85449  0  0  0.652229  0  4.159075  0  0  0.685949  0  4.152191  0  0  0.214162  0.629375  0  4.16236  0
N  N30  1  0.35889576  0.56525797  0.71832610  1  0  0.025188  0  3.53264  0  0  0.118617  0  3.742286  0  0  0.105487  0  3.767457  0  0  -0.205405  0.126873  0  3.725858  0
N  N31  1  0.64110225  0.43474199  0.28167408  1  0  0.025204  0  3.532629  0  0  0.118613  0  3.742248  0  0  0.105483  0  3.767416  0  0  -0.205356  0.126871  0  3.72583  0
N  N32  1  0.45055864  0.82317446  0.19203390  1  0  -0.253146  0  2.914277  0  0  -0.246541  0  3.186116  0  0  -0.251434  0  3.200781  0  0  -0.209756  -0.243155  0  3.176148  0
N  N33  1  0.25869820  0.17705232  0.80809747  1  0  -0.252956  0  2.915331  0  0  -0.24648  0  3.187209  0  0  -0.251333  0  3.201819  0  0  -0.209744  -0.242598  0  3.176874  0
N  N34  1  0.54944361  0.17682682  0.80796486  1  0  -0.253201  0  2.914326  0  0  -0.246599  0  3.186176  0  0  -0.251491  0  3.20084  0  0  -0.209791  -0.243216  0  3.176206  0
N  N35  1  0.74130352  0.82294364  0.19190193  1  0  -0.252846  0  2.915286  0  0  -0.246363  0  3.187149  0  0  -0.251218  0  3.201759  0  0  -0.209695  -0.24248  0  3.17682  0
N  N36  1  0.56811820  0.88145387  0.31069044  1  0  -0.118341  0  3.166904  0  0  -0.070477  0  3.463274  0  0  -0.079152  0  3.480041  0  0  -0.112199  -0.064559  0  3.452046  0
N  N37  1  0.25742016  0.11867819  0.68938876  1  0  -0.119786  0  3.167599  0  0  -0.072075  0  3.464253  0  0  -0.080666  0  3.48093  0  0  -0.112352  -0.065848  0  3.452445  0
N  N38  1  0.43188393  0.11854609  0.68930891  1  0  -0.118316  0  3.166869  0  0  -0.070447  0  3.46322  0  0  -0.079123  0  3.479988  0  0  -0.112175  -0.064529  0  3.451982  0
N  N39  1  0.74258031  0.88131910  0.31060974  1  0  -0.119905  0  3.167696  0  0  -0.07221  0  3.464383  0  0  -0.080799  0  3.481057  0  0  -0.112394  -0.065984  0  3.452586  0
N  N40  1  0.19641295  0.04541580  0.39282081  1  0  -0.619851  0  2.759487  0  0  -0.574747  0  3.075732  0  0  -0.600731  0  3.07857  0  0  -0.334332  -0.557053  0  3.073848  0
N  N41  1  0.80359234  0.95458818  0.60718082  1  0  -0.619884  0  2.759496  0  0  -0.574775  0  3.075727  0  0  -0.600763  0  3.07858  0  0  -0.334382  -0.557086  0  3.073843  0
N  N42  1  0.15944555  0.13323235  0.31873293  1  0  0.42765  0  4.231422  0  0  0.458216  0  4.515908  0  0  0.475535  0  4.544503  0  0  0.087358  0.446443  0  4.496768  0
N  N43  1  0.84055808  0.86676894  0.68126613  1  0  0.427764  0  4.231239  0  0  0.458335  0  4.515719  0  0  0.475653  0  4.544311  0  0  0.087448  0.446558  0  4.496585  0
N  N44  1  0.12368807  0.21829010  0.24705281  1  0  -0.408404  0  2.403185  0  0  -0.409887  0  2.628282  0  0  -0.417643  0  2.636542  0  0  -0.198194  -0.404213  0  2.622743  0
N  N45  1  0.87631517  0.78170721  0.75294802  1  0  -0.408516  0  2.403064  0  0  -0.41  0  2.628158  0  0  -0.417758  0  2.636418  0  0  -0.198265  -0.404331  0  2.622622  0
O  O46  1  0.40210034  0.72078017  0.50838628  1  0  -0.640569  0  2.032194  0  0  -0.57462  0  2.289115  0  0  -0.603428  0  2.279122  0  0  -0.322477  -0.553663  0  2.294986  0
O  O47  1  0.89334384  0.27912114  0.49184479  1  0  -0.639293  0  2.031005  0  0  -0.574132  0  2.289154  0  0  -0.60296  0  2.278994  0  0  -0.322695  -0.553543  0  2.294891  0
O  O48  1  0.59790403  0.27922787  0.49162280  1  0  -0.640398  0  2.032409  0  0  -0.574479  0  2.289321  0  0  -0.603287  0  2.279332  0  0  -0.322365  -0.553521  0  2.295184  0
O  O49  1  0.10665112  0.72087612  0.50815077  1  0  -0.639376  0  2.030993  0  0  -0.574208  0  2.289166  0  0  -0.603037  0  2.279006  0  0  -0.322711  -0.553613  0  2.294893  0
