# generated using pymatgen
data_Zn3H28C30N9O14
_symmetry_space_group_name_H-M   'P 1'
_cell_length_a   10.47873473
_cell_length_b   12.82010302
_cell_length_c   14.99793385
_cell_angle_alpha   93.82634191
_cell_angle_beta   106.29358312
_cell_angle_gamma   109.20671774
_symmetry_Int_Tables_number   1
_chemical_formula_structural   Zn3H28C30N9O14
_chemical_formula_sum   'Zn6 H56 C60 N18 O28'
_cell_volume   1797.90630833
_cell_formula_units_Z   2
loop_
 _symmetry_equiv_pos_site_id
 _symmetry_equiv_pos_as_xyz
  1  'x, y, z'
loop_
 _atom_site_type_symbol
 _atom_site_label
 _atom_site_symmetry_multiplicity
 _atom_site_fract_x
 _atom_site_fract_y
 _atom_site_fract_z
 _atom_site_occupancy
 _atom_site_pbe_bader_charge
 _atom_site_pbe_bader_spin_density
 _atom_site_pbe_cm5_charge
 _atom_site_pbe_ddec_charge
 _atom_site_pbe_ddec_spin_density
 _atom_site_pbe_ddec_sum_bond_order
 _atom_site_pbe_magmom
Zn  Zn0  1  0.42034748  0.92211899  0.34127065  1  1.366081  0  0.683827  0.938601  0  2.243737  0
Zn  Zn1  1  0.57965518  0.07788210  0.65872755  1  1.366033  0  0.683835  0.93859  0  2.243751  0
Zn  Zn2  1  0.23170864  0.63592723  0.08312403  1  1.282866  0  0.697741  0.844958  0  2.299935  0
Zn  Zn3  1  0.76828711  0.36406946  0.91687510  1  1.282847  0  0.697769  0.844976  0  2.299977  0
Zn  Zn4  1  0.59577007  0.48959689  0.17933245  1  1.269702  0  0.714707  0.838955  0  2.280576  0
Zn  Zn5  1  0.40421962  0.51039716  0.82066457  1  1.269577  0  0.714729  0.838998  0  2.280421  0
H  H6  1  0.12039411  0.54340723  0.33296096  1  0.093219  0  0.106877  0.102597  0  1.011777  0
H  H7  1  0.87959548  0.45659108  0.66703233  1  0.093098  0  0.106891  0.102623  0  1.01173  0
H  H8  1  0.30756829  0.62143843  0.38152933  1  0.139996  0  0.127712  0.143183  0  0.978992  0
H  H9  1  0.69242429  0.37855562  0.61847162  1  0.140073  0  0.127724  0.143194  0  0.979062  0
H  H10  1  0.94487927  0.65769521  0.15416305  1  0.171097  0  0.128937  0.138808  0  1.024925  0
H  H11  1  0.05512460  0.34230909  0.84584096  1  0.171134  0  0.128975  0.138838  0  1.024918  0
H  H12  1  0.84828921  0.71209860  0.06412702  1  0.063728  0  0.11089  0.110034  0  0.991573  0
H  H13  1  0.15170749  0.28789319  0.93587063  1  0.063689  0  0.110945  0.110123  0  0.991586  0
H  H14  1  0.36906770  0.71829000  0.51538473  1  0.077609  0  0.121452  0.127397  0  0.978512  0
H  H15  1  0.63093015  0.28170925  0.48461435  1  0.077647  0  0.121464  0.127419  0  0.97848  0
H  H16  1  0.23540419  0.73299551  0.56205714  1  0.089514  0  0.107352  0.104344  0  1.033598  0
H  H17  1  0.76459362  0.26700860  0.43794627  1  0.089588  0  0.107358  0.104365  0  1.033642  0
H  H18  1  0.93418430  0.96291505  0.61288925  1  0.047509  0  0.107187  0.10709  0  0.991216  0
H  H19  1  0.06581928  0.03707924  0.38711600  1  0.047653  0  0.107189  0.107107  0  0.991222  0
H  H20  1  0.07461884  0.95473103  0.57274525  1  0.092814  0  0.107269  0.099978  0  1.048145  0
H  H21  1  0.92538487  0.04526581  0.42725821  1  0.092892  0  0.107267  0.099936  0  1.048206  0
H  H22  1  0.73830966  0.92090481  0.39468392  1  0.064498  0  0.106381  0.097121  0  1.024322  0
H  H23  1  0.26169503  0.07909449  0.60532191  1  0.064836  0  0.106355  0.097131  0  1.024313  0
H  H24  1  0.73639885  0.93478883  0.51181952  1  0.115924  0  0.11453  0.128324  0  1.012362  0
H  H25  1  0.26359963  0.06520772  0.48818817  1  0.116592  0  0.114537  0.128362  0  1.01234  0
H  H26  1  0.71683071  0.82447845  0.19377277  1  0.125421  0  0.127817  0.136837  0  0.984409  0
H  H27  1  0.28316650  0.17551919  0.80622406  1  0.125352  0  0.127816  0.136871  0  0.984459  0
H  H28  1  0.67123962  0.75538819  0.07527712  1  0.088197  0  0.120291  0.126733  0  0.969181  0
H  H29  1  0.32875719  0.24460612  0.92471939  1  0.088194  0  0.120302  0.126768  0  0.969271  0
H  H30  1  0.35485868  0.29450078  0.14886303  1  0.630954  0  0.31253  0.382498  0  0.931465  0
H  H31  1  0.64513418  0.70549405  0.85114004  1  0.631005  0  0.312586  0.382612  0  0.931331  0
H  H32  1  0.31703369  0.39537898  0.11059247  1  0.638454  0  0.320043  0.40654  0  0.892686  0
H  H33  1  0.68296015  0.60461284  0.88940058  1  0.638443  0  0.320029  0.406538  0  0.892734  0
H  H34  1  0.49921365  0.87980934  0.18249962  1  0.638146  0  0.290563  0.378907  0  0.955532  0
H  H35  1  0.50078314  0.12018495  0.81749755  1  0.637965  0  0.290547  0.378859  0  0.955583  0
H  H36  1  0.60465591  0.99909152  0.24310427  1  0.66936  0  0.313831  0.412093  0  0.884073  0
H  H37  1  0.39533992  0.00090278  0.75689137  1  0.669299  0  0.313873  0.412174  0  0.883997  0
H  H38  1  0.10013058  0.32888359  0.22523608  1  0.170076  0  0.117768  0.140837  0  1.012025  0
H  H39  1  0.89987107  0.67112238  0.77476492  1  0.17015  0  0.117754  0.140838  0  1.012082  0
H  H40  1  0.97443190  0.42489134  0.11349958  1  0.116599  0  0.117227  0.094686  0  1.02387  0
H  H41  1  0.02555994  0.57511021  0.88649908  1  0.116705  0  0.117242  0.094725  0  1.023801  0
H  H42  1  0.84587185  0.59580448  0.52405302  1  0.180737  0  0.119854  0.14714  0  1.024789  0
H  H43  1  0.15414038  0.40421870  0.47593871  1  0.181378  0  0.119886  0.147201  0  1.024763  0
H  H44  1  0.77334100  0.35401443  0.23110182  1  0.102169  0  0.120816  0.093722  0  0.981602  0
H  H45  1  0.22665390  0.64598235  0.76889314  1  0.102065  0  0.120831  0.093758  0  0.981602  0
H  H46  1  0.93538728  0.94966302  0.14086672  1  0.091636  0  0.107773  0.115608  0  1.002747  0
H  H47  1  0.06461415  0.05034466  0.85913235  1  0.091606  0  0.107873  0.115746  0  1.002688  0
H  H48  1  0.76724396  0.13527458  0.90923491  1  0.149299  0  0.122934  0.102475  0  1.007628  0
H  H49  1  0.23275151  0.86471701  0.09076847  1  0.14929  0  0.123025  0.102595  0  1.007784  0
H  H50  1  0.64506130  0.56449863  0.38336917  1  0.18779  0  0.122426  0.113572  0  1.030152  0
H  H51  1  0.35493429  0.43550903  0.61662336  1  0.187856  0  0.12238  0.113517  0  1.030228  0
H  H52  1  0.89692552  0.03143389  0.00943933  1  0.056522  0  0.104601  0.107845  0  1.020328  0
H  H53  1  0.10308129  0.96856554  0.99056428  1  0.056593  0  0.104601  0.107856  0  1.020271  0
H  H54  1  0.97622786  0.37014616  0.36797002  1  0.196845  0  0.115539  0.136033  0  1.069426  0
H  H55  1  0.02377156  0.62985901  0.63202712  1  0.19683  0  0.115589  0.136093  0  1.069411  0
H  H56  1  0.28306926  0.26716516  0.25655241  1  0.096919  0  0.115754  0.119532  0  1.005106  0
H  H57  1  0.71693942  0.73284099  0.74345073  1  0.097005  0  0.11577  0.119533  0  1.005171  0
H  H58  1  0.10029189  0.85798970  0.22693863  1  0.136025  0  0.116657  0.097039  0  1.04025  0
H  H59  1  0.89971291  0.14201400  0.77305819  1  0.135899  0  0.116734  0.097115  0  1.040124  0
H  H60  1  0.43691551  0.15978291  0.32633914  1  0.12697  0  0.122911  0.102593  0  1.008826  0
H  H61  1  0.56309724  0.84022093  0.67366201  1  0.127066  0  0.12297  0.102581  0  1.008893  0
C  C62  1  0.20302191  0.62768483  0.34867764  1  0.307886  0  -0.056759  -0.209564  0  3.909271  0
C  C63  1  0.79696975  0.37231169  0.65132263  1  0.307911  0  -0.056743  -0.209632  0  3.909404  0
C  C64  1  0.20613620  0.66359139  0.25472366  1  1.566838  0  0.215235  0.629023  0  4.125643  0
C  C65  1  0.79386329  0.33640706  0.74527637  1  1.566885  0  0.215193  0.629049  0  4.125694  0
C  C66  1  0.85824448  0.71388983  0.27602359  1  1.561721  0  0.327726  0.456091  0  4.172941  0
C  C67  1  0.14175296  0.28610855  0.72397667  1  1.562242  0  0.327735  0.456012  0  4.172967  0
C  C68  1  0.90700966  0.80090404  0.42404858  1  1.550602  0  0.350284  0.484113  0  4.07838  0
C  C69  1  0.09298590  0.19909005  0.57595433  1  1.550462  0  0.350375  0.484206  0  4.078391  0
C  C70  1  0.05809371  0.72467619  0.38897729  1  1.55866  0  0.345021  0.478362  0  4.122433  0
C  C71  1  0.94190568  0.27532219  0.61102538  1  1.557886  0  0.345096  0.478538  0  4.122245  0
C  C72  1  0.83688183  0.65207446  0.11305276  1  0.260351  0  -0.06941  -0.239887  0  3.928955  0
C  C73  1  0.16312027  0.34792320  0.88694908  1  0.26035  0  -0.069504  -0.24006  0  3.929124  0
C  C74  1  0.28395831  0.75265112  0.50630132  1  0.315656  0  -0.062477  -0.22932  0  3.936123  0
C  C75  1  0.71604415  0.24734738  0.49370066  1  0.315592  0  -0.062504  -0.229427  0  3.936366  0
C  C76  1  0.97265210  0.90496061  0.58068565  1  0.269263  0  -0.069716  -0.208246  0  3.883607  0
C  C77  1  0.02734965  0.09503621  0.41931607  1  0.269285  0  -0.069708  -0.208182  0  3.883788  0
C  C78  1  0.73862967  0.87709598  0.45530006  1  0.27949  0  -0.069546  -0.230473  0  3.91842  0
C  C79  1  0.26137032  0.12290155  0.54470401  1  0.278389  0  -0.069556  -0.230639  0  3.918366  0
C  C80  1  0.35260175  0.88030543  0.52239240  1  1.622417  0  0.222082  0.64321  0  4.127192  0
C  C81  1  0.64740520  0.11969899  0.47761092  1  1.622418  0  0.222111  0.643152  0  4.127739  0
C  C82  1  0.52340999  0.68290974  0.14388917  1  1.581151  0  0.233783  0.641736  0  4.091312  0
C  C83  1  0.47658747  0.31708620  0.85610892  1  1.581172  0  0.233797  0.641782  0  4.090998  0
C  C84  1  0.67620258  0.74224169  0.14772372  1  0.294737  0  -0.060377  -0.231809  0  3.921393  0
C  C85  1  0.32378978  0.25775406  0.85227531  1  0.294692  0  -0.060389  -0.231996  0  3.921431  0
C  C86  1  0.76423015  0.53441384  0.05561298  1  1.548402  0  0.219813  0.619475  0  4.128132  0
C  C87  1  0.23577240  0.46558041  0.94439272  1  1.548561  0  0.219935  0.619546  0  4.12841  0
C  C88  1  0.59722735  0.77671549  0.42589145  1  1.604244  0  0.196421  0.615811  0  4.201862  0
C  C89  1  0.40277568  0.22328026  0.57412046  1  1.604133  0  0.196356  0.615892  0  4.201466  0
C  C90  1  0.00698819  0.82895500  0.65258338  1  1.629298  0  0.177723  0.594622  0  4.249023  0
C  C91  1  0.99301768  0.17104446  0.34741804  1  1.629596  0  0.177731  0.594674  0  4.249266  0
C  C92  1  0.03309194  0.28519351  0.15397431  1  -0.004528  0  -0.072288  -0.157524  0  3.901714  0
C  C93  1  0.96690217  0.71480886  0.84602754  1  -0.00397  0  -0.072285  -0.157519  0  3.901849  0
C  C94  1  0.93547251  0.48939279  0.45921338  1  -0.070067  0  0.023175  0.109647  0  3.908613  0
C  C95  1  0.06453033  0.51061579  0.54078472  1  -0.034132  0  0.023247  0.109765  0  3.908524  0
C  C96  1  0.95791246  0.33714729  0.09316608  1  0.485412  0  0.047375  0.105396  0  3.924924  0
C  C97  1  0.04207450  0.66285236  0.90683544  1  0.484754  0  0.047324  0.105339  0  3.925041  0
C  C98  1  0.83495808  0.53911060  0.46218268  1  -0.026713  0  -0.06506  -0.134083  0  3.82521  0
C  C99  1  0.16505470  0.46090680  0.53780875  1  -0.028223  0  -0.065134  -0.134201  0  3.8254  0
C  C100  1  0.79308667  0.40632065  0.29757249  1  0.424382  0  0.044436  0.095104  0  3.946173  0
C  C101  1  0.20691400  0.59367796  0.70242312  1  0.424583  0  0.044393  0.095014  0  3.946616  0
C  C102  1  0.09929823  0.11599776  0.18326527  1  -0.021298  0  0.018128  0.111629  0  3.98062  0
C  C103  1  0.90070775  0.88400667  0.81673651  1  -0.021049  0  0.018161  0.111618  0  3.980692  0
C  C104  1  0.04680495  0.99950045  0.17933279  1  -0.020158  0  -0.07916  -0.167556  0  3.93933  0
C  C105  1  0.95320753  0.00050450  0.82065837  1  -0.020275  0  -0.079359  -0.167797  0  3.939312  0
C  C106  1  0.84293550  0.17516885  0.97928968  1  0.491161  0  0.047839  0.09859  0  3.930735  0
C  C107  1  0.15706324  0.82483279  0.02071441  1  0.491084  0  0.047744  0.098408  0  3.931013  0
C  C108  1  0.72008420  0.52241987  0.38189458  1  0.429624  0  0.049261  0.101427  0  3.882447  0
C  C109  1  0.27991278  0.47758623  0.61809612  1  0.430041  0  0.04921  0.101334  0  3.882484  0
C  C110  1  0.91539358  0.11806809  0.03607424  1  -0.077565  0  -0.083418  -0.177389  0  3.945521  0
C  C111  1  0.08460205  0.88192851  0.96392819  1  -0.077588  0  -0.083428  -0.177296  0  3.945601  0
C  C112  1  0.01344475  0.17300507  0.12535242  1  0.022545  0  0.022286  0.122029  0  3.962754  0
C  C113  1  0.98654596  0.82699881  0.87465084  1  0.022629  0  0.022323  0.121998  0  3.96279  0
C  C114  1  0.90871205  0.41783649  0.37519096  1  0.014999  0  -0.07313  -0.157348  0  3.891419  0
C  C115  1  0.09129383  0.58216974  0.62480559  1  0.014946  0  -0.073202  -0.157523  0  3.891562  0
C  C116  1  0.24014032  0.17560160  0.24169083  1  -0.092021  0  -0.079781  -0.188778  0  3.958099  0
C  C117  1  0.75986327  0.82440192  0.75831107  1  -0.092469  0  -0.079778  -0.188755  0  3.958066  0
C  C118  1  0.13670393  0.94803812  0.22725487  1  0.464327  0  0.047282  0.090639  0  3.925545  0
C  C119  1  0.86330339  0.05196659  0.77273854  1  0.464225  0  0.047242  0.09065  0  3.925337  0
C  C120  1  0.32500039  0.11733226  0.28427835  1  0.528754  0  0.056117  0.110104  0  3.906127  0
C  C121  1  0.67500217  0.88267121  0.71572400  1  0.528763  0  0.056134  0.110207  0  3.906025  0
N  N122  1  0.97076753  0.68248912  0.29846598  1  -1.26848  0  -0.358553  -0.536173  0  3.338437  0
N  N123  1  0.02923660  0.31750862  0.70153562  1  -1.268414  0  -0.358552  -0.536205  0  3.338535  0
N  N124  1  0.18009685  0.70233413  0.41404458  1  -1.181429  0  -0.26879  -0.066926  0  3.666722  0
N  N125  1  0.81990316  0.29766341  0.58595883  1  -1.181415  0  -0.268866  -0.066909  0  3.66672  0
N  N126  1  0.81735724  0.77046942  0.33256196  1  -1.246766  0  -0.348799  -0.521688  0  3.276636  0
N  N127  1  0.18264437  0.22953406  0.66743886  1  -1.247072  0  -0.348839  -0.521754  0  3.276743  0
N  N128  1  0.03211959  0.78459736  0.45371050  1  -1.215097  0  -0.337706  -0.494989  0  3.242676  0
N  N129  1  0.96787647  0.21540013  0.54629008  1  -1.214637  0  -0.337774  -0.495099  0  3.242606  0
N  N130  1  0.86875388  0.85302183  0.48726179  1  -1.176325  0  -0.258996  -0.048581  0  3.625298  0
N  N131  1  0.13124352  0.14697650  0.51273979  1  -1.176471  0  -0.258952  -0.048459  0  3.625197  0
N  N132  1  0.77034331  0.68035184  0.17970073  1  -1.155826  0  -0.296293  -0.13187  0  3.580496  0
N  N133  1  0.22965549  0.31964740  0.82029987  1  -1.155802  0  -0.29633  -0.131702  0  3.580499  0
N  N134  1  0.86501116  0.28372845  0.00692208  1  -1.286904  0  -0.337467  -0.250712  0  3.604199  0
N  N135  1  0.13499081  0.71627099  0.99307520  1  -1.286814  0  -0.337446  -0.250738  0  3.604151  0
N  N136  1  0.70131128  0.45959120  0.29943055  1  -1.301811  0  -0.35567  -0.290184  0  3.659104  0
N  N137  1  0.29868370  0.54041298  0.70056694  1  -1.301675  0  -0.355579  -0.28995  0  3.659122  0
N  N138  1  0.27544483  0.00495598  0.27558515  1  -1.198839  0  -0.306786  -0.208122  0  3.467547  0
N  N139  1  0.72455761  0.99504928  0.72441263  1  -1.198646  0  -0.306841  -0.208183  0  3.467392  0
O  O140  1  0.34360738  0.93299770  0.45421774  1  -1.208043  0  -0.318421  -0.57624  0  2.394396  0
O  O141  1  0.65637537  0.06700113  0.54577818  1  -1.208202  0  -0.31852  -0.576312  0  2.394912  0
O  O142  1  0.17394967  0.57970754  0.18853165  1  -1.178716  0  -0.335856  -0.558038  0  2.303363  0
O  O143  1  0.82604549  0.42029490  0.81146910  1  -1.178721  0  -0.33583  -0.558018  0  2.303187  0
O  O144  1  0.23992826  0.76305397  0.24063010  1  -1.199057  0  -0.3057  -0.571725  0  2.327576  0
O  O145  1  0.76007720  0.23694949  0.75937618  1  -1.199054  0  -0.305682  -0.571723  0  2.32766  0
O  O146  1  0.41655249  0.92444677  0.60906712  1  -1.18814  0  -0.320333  -0.563895  0  2.333562  0
O  O147  1  0.58345069  0.07555342  0.39093446  1  -1.188024  0  -0.32031  -0.563819  0  2.333533  0
O  O148  1  0.43971302  0.73609338  0.11841657  1  -1.168729  0  -0.296906  -0.519212  0  2.326101  0
O  O149  1  0.56028863  0.26390769  0.88158141  1  -1.168755  0  -0.29688  -0.519152  0  2.325979  0
O  O150  1  0.48019636  0.58412630  0.16142699  1  -1.172093  0  -0.3057  -0.524593  0  2.382273  0
O  O151  1  0.51980176  0.41587129  0.83857269  1  -1.172001  0  -0.305746  -0.524685  0  2.382159  0
O  O152  1  0.81140452  0.51763994  0.98864091  1  -1.180121  0  -0.310069  -0.538827  0  2.343337  0
O  O153  1  0.18860699  0.48235449  0.01136932  1  -1.18008  0  -0.31015  -0.538833  0  2.343539  0
O  O154  1  0.66734414  0.45835456  0.07522810  1  -1.162618  0  -0.314042  -0.527833  0  2.313301  0
O  O155  1  0.33265322  0.54164131  0.92477264  1  -1.162819  0  -0.314028  -0.527852  0  2.313407  0
O  O156  1  0.58924107  0.68362716  0.44846447  1  -1.178955  0  -0.340662  -0.554921  0  2.09835  0
O  O157  1  0.41076051  0.31637818  0.55152913  1  -1.17876  0  -0.340741  -0.555069  0  2.097551  0
O  O158  1  0.48802084  0.79819140  0.37788669  1  -1.206297  0  -0.351412  -0.609392  0  2.394144  0
O  O159  1  0.51197685  0.20181262  0.62212002  1  -1.206385  0  -0.351312  -0.60929  0  2.394265  0
O  O160  1  0.91970739  0.72906645  0.63980636  1  -1.206991  0  -0.349662  -0.590347  0  2.166694  0
O  O161  1  0.08029634  0.27093286  0.36019794  1  -1.207022  0  -0.349712  -0.59045  0  2.166752  0
O  O162  1  0.12053385  0.87787091  0.72150443  1  -1.205038  0  -0.386778  -0.624895  0  2.027707  0
O  O163  1  0.87947771  0.12212543  0.27849662  1  -1.205255  0  -0.386747  -0.624895  0  2.027874  0
O  O164  1  0.38518147  0.35683338  0.11595059  1  -1.22958  0  -0.54864  -0.705795  0  2.080099  0
O  O165  1  0.61481347  0.64315666  0.88404790  1  -1.229595  0  -0.548706  -0.705939  0  2.079939  0
O  O166  1  0.50411451  0.94982104  0.21696068  1  -1.278146  0  -0.573807  -0.756142  0  2.057891  0
O  O167  1  0.49588137  0.05017330  0.78303364  1  -1.277887  0  -0.573828  -0.756177  0  2.057869  0
