# generated using pymatgen
data_Zn4H32C48Cl4O13
_symmetry_space_group_name_H-M   'P 1'
_cell_length_a   23.87399435
_cell_length_b   23.87541958
_cell_length_c   23.87361357
_cell_angle_alpha   66.74520213
_cell_angle_beta   72.39228544
_cell_angle_gamma   107.61689618
_symmetry_Int_Tables_number   1
_chemical_formula_structural   Zn4H32C48Cl4O13
_chemical_formula_sum   'Zn8 H64 C96 Cl8 O26'
_cell_volume   10441.16631815
_cell_formula_units_Z   2
loop_
 _symmetry_equiv_pos_site_id
 _symmetry_equiv_pos_as_xyz
  1  'x, y, z'
loop_
 _atom_site_type_symbol
 _atom_site_label
 _atom_site_symmetry_multiplicity
 _atom_site_fract_x
 _atom_site_fract_y
 _atom_site_fract_z
 _atom_site_occupancy
 _atom_site_pbe_bader_charge
 _atom_site_pbe_bader_spin_density
 _atom_site_pbe_cm5_charge
 _atom_site_pbe_ddec_charge
 _atom_site_pbe_ddec_spin_density
 _atom_site_pbe_ddec_sum_bond_order
 _atom_site_pbe_magmom
Zn  Zn0  1  0.05764340  0.95820009  0.48416757  1  1.318927  0  0.67299  0.969468  0  2.377944  0
Zn  Zn1  1  0.05764438  0.09945195  0.45819360  1  1.319013  0  0.672928  0.969127  0  2.37806  0
Zn  Zn2  1  0.94234903  0.98416574  0.45819206  1  1.318861  0  0.672944  0.969231  0  2.377845  0
Zn  Zn3  1  0.94237006  0.95819605  0.59945141  1  1.319225  0  0.672941  0.969202  0  2.378227  0
Zn  Zn4  1  0.94235816  0.54180509  0.01583270  1  1.319087  0  0.672971  0.969337  0  2.378033  0
Zn  Zn5  1  0.05765294  0.51583517  0.04180894  1  1.318817  0  0.67289  0.969168  0  2.37816  0
Zn  Zn6  1  0.94235402  0.40055253  0.04180922  1  1.318871  0  0.673045  0.969341  0  2.377886  0
Zn  Zn7  1  0.05763077  0.54179979  0.90055309  1  1.319143  0  0.672921  0.969224  0  2.378197  0
H  H8  1  0.92405448  0.65196993  0.11240532  1  0.097859  0  0.106391  0.11864  0  0.997836  0
H  H9  1  0.07594808  0.61239915  0.15201288  1  0.0968  0  0.106387  0.118741  0  0.997585  0
H  H10  1  0.92409903  0.88766041  0.34793160  1  0.098169  0  0.106338  0.118626  0  0.997785  0
H  H11  1  0.07585592  0.84791707  0.38770816  1  0.09866  0  0.106331  0.118517  0  0.99796  0
H  H12  1  0.07596542  0.46352056  0.77208569  1  0.075645  0  0.106358  0.118582  0  0.997716  0
H  H13  1  0.92406397  0.27205028  0.96355595  1  0.074981  0  0.106318  0.118572  0  0.997719  0
H  H14  1  0.07586360  0.22795852  0.53643969  1  0.074555  0  0.106331  0.118608  0  0.99787  0
H  H15  1  0.92410214  0.03645081  0.72794231  1  0.075115  0  0.106293  0.118464  0  0.997839  0
H  H16  1  0.73561071  0.46355423  0.11232268  1  0.110724  0  0.106321  0.118606  0  0.997874  0
H  H17  1  0.73560637  0.27204928  0.15206850  1  0.091871  0  0.106381  0.118636  0  0.99792  0
H  H18  1  0.26439840  0.22794599  0.34798715  1  0.09162  0  0.106343  0.118665  0  0.997712  0
H  H19  1  0.26439121  0.03647455  0.38756100  1  0.10891  0  0.106371  0.118592  0  0.997808  0
H  H20  1  0.26440066  0.61230565  0.96355259  1  0.111002  0  0.106268  0.118507  0  0.997788  0
H  H21  1  0.26438909  0.65206442  0.77203665  1  0.091566  0  0.106354  0.118599  0  0.997902  0
H  H22  1  0.73561347  0.84799661  0.72795120  1  0.091689  0  0.106275  0.118532  0  0.99773  0
H  H23  1  0.73560025  0.88757372  0.53647236  1  0.109183  0  0.106342  0.118506  0  0.997945  0
H  H24  1  0.08025659  0.62330763  0.26065528  1  0.032765  0  0.096903  0.134278  0  0.98329  0
H  H25  1  0.08670544  0.70378474  0.24852507  1  0.021481  0  0.086998  0.121289  0  1.062124  0
H  H26  1  0.14312094  0.70218436  0.18148849  1  0.055189  0  0.096458  0.133393  0  0.984577  0
H  H27  1  0.91973371  0.76059218  0.12331357  1  0.034256  0  0.09675  0.134218  0  0.983404  0
H  H28  1  0.91327465  0.74847059  0.20379658  1  0.025696  0  0.087079  0.121343  0  1.061955  0
H  H29  1  0.85686104  0.68142970  0.20219157  1  0.054987  0  0.096452  0.13343  0  0.984874  0
H  H30  1  0.14306628  0.81845849  0.29755735  1  0.057182  0  0.096494  0.13315  0  0.984534  0
H  H31  1  0.08628754  0.75097210  0.29675525  1  0.025727  0  0.086735  0.120544  0  1.062833  0
H  H32  1  0.08041393  0.73959661  0.37684601  1  0.033362  0  0.096819  0.13388  0  0.984537  0
H  H33  1  0.85688022  0.79747492  0.31848563  1  0.056692  0  0.096263  0.132829  0  0.984653  0
H  H34  1  0.91367393  0.79669590  0.25099759  1  0.020806  0  0.086922  0.12078  0  1.062692  0
H  H35  1  0.91953542  0.87677272  0.23963373  1  0.034603  0  0.096825  0.133811  0  0.984421  0
H  H36  1  0.91974596  0.15909993  0.95695765  1  0.025752  0  0.096876  0.134283  0  0.98339  0
H  H37  1  0.91329164  0.16478089  0.88292684  1  0.021161  0  0.087051  0.121415  0  1.062078  0
H  H38  1  0.85687915  0.17540344  0.94094334  1  0.053541  0  0.096504  0.133471  0  0.984682  0
H  H39  1  0.08027812  0.45692730  0.65914247  1  0.028767  0  0.096785  0.134193  0  0.983496  0
H  H40  1  0.08672566  0.38290191  0.66481121  1  0.023669  0  0.086969  0.121245  0  1.06207  0
H  H41  1  0.14314587  0.44091048  0.67544324  1  0.055046  0  0.096425  0.133369  0  0.984859  0
H  H42  1  0.85688127  0.05941124  0.82460514  1  0.05409  0  0.096352  0.132901  0  0.984688  0
H  H43  1  0.91367596  0.11697951  0.83531218  1  0.025934  0  0.086881  0.120826  0  1.062684  0
H  H44  1  0.91953342  0.04276201  0.84081426  1  0.064686  0  0.096811  0.133832  0  0.984238  0
H  H45  1  0.14307028  0.32461433  0.55940446  1  0.054002  0  0.096345  0.132948  0  0.984619  0
H  H46  1  0.08628806  0.33531863  0.61697979  1  0.023285  0  0.086853  0.120766  0  1.06255  0
H  H47  1  0.08041961  0.34082834  0.54275615  1  0.064069  0  0.096721  0.133722  0  0.984391  0
H  H48  1  0.61597830  0.17538530  0.18151177  1  0.041867  0  0.096305  0.132846  0  0.984665  0
H  H49  1  0.54770599  0.16468712  0.24900034  1  0.075647  0  0.086833  0.120774  0  1.062636  0
H  H50  1  0.61642230  0.15918499  0.26037120  1  0.028964  0  0.096821  0.133859  0  0.984411  0
H  H51  1  0.61599334  0.44059415  0.20249172  1  0.043503  0  0.096355  0.13288  0  0.984563  0
H  H52  1  0.54771112  0.38302201  0.20327580  1  0.03207  0  0.086854  0.120721  0  1.062697  0
H  H53  1  0.61642354  0.45723978  0.12319453  1  0.030781  0  0.096774  0.133767  0  0.984385  0
H  H54  1  0.38392560  0.04306804  0.37664271  1  0.033877  0  0.096822  0.134188  0  0.983537  0
H  H55  1  0.45228418  0.11709469  0.29616715  1  0.035162  0  0.087005  0.121276  0  1.062055  0
H  H56  1  0.38364120  0.05908715  0.29775636  1  0.044776  0  0.0964  0.133348  0  0.985102  0
H  H57  1  0.38394885  0.34089869  0.23933684  1  0.025821  0  0.09687  0.134243  0  0.983442  0
H  H58  1  0.45229791  0.33521844  0.25147344  1  0.019991  0  0.087041  0.121409  0  1.062143  0
H  H59  1  0.38365861  0.32459695  0.31850861  1  0.040535  0  0.096549  0.133476  0  0.98443  0
H  H60  1  0.38401464  0.68151304  0.67537055  1  0.04197  0  0.096303  0.1328  0  0.984709  0
H  H61  1  0.45228741  0.74900147  0.66467820  1  0.076037  0  0.086818  0.120781  0  1.062744  0
H  H62  1  0.38357014  0.76036402  0.65917630  1  0.02861  0  0.096792  0.133817  0  0.984349  0
H  H63  1  0.38402121  0.70246613  0.94060035  1  0.044996  0  0.096371  0.132999  0  0.984709  0
H  H64  1  0.45230100  0.70326165  0.88302448  1  0.031552  0  0.086889  0.12071  0  1.062727  0
H  H65  1  0.38359057  0.62317566  0.95724208  1  0.030188  0  0.096726  0.133689  0  0.984294  0
H  H66  1  0.61606383  0.87666428  0.54306490  1  0.033582  0  0.096801  0.134284  0  0.98346  0
H  H67  1  0.54770766  0.79618582  0.61708710  1  0.034612  0  0.086962  0.12124  0  1.062094  0
H  H68  1  0.61634486  0.79778504  0.55907345  1  0.044368  0  0.096542  0.133516  0  0.984678  0
H  H69  1  0.61606902  0.73935810  0.84089952  1  0.028261  0  0.096827  0.134296  0  0.983443  0
H  H70  1  0.54771724  0.75148672  0.83522275  1  0.020049  0  0.087016  0.121363  0  1.062058  0
H  H71  1  0.61636313  0.81852412  0.82459874  1  0.039919  0  0.09654  0.133612  0  0.98462  0
C  C72  1  0.18244479  0.09123558  0.40876572  1  1.542717  0  0.226761  0.605876  0  4.163251  0
C  C73  1  0.99998634  0.13661451  0.36337895  1  1.610814  0  0.228306  0.629588  0  4.137927  0
C  C74  1  0.99998250  0.90877317  0.40878628  1  1.521432  0  0.226768  0.605766  0  4.163155  0
C  C75  1  0.81755648  0.90875843  0.59123694  1  1.542081  0  0.226563  0.605414  0  4.163142  0
C  C76  1  0.00001871  0.86338744  0.63661651  1  1.6098  0  0.228418  0.629795  0  4.137748  0
C  C77  1  0.99999567  0.09123174  0.59121615  1  1.552888  0  0.22662  0.605875  0  4.163028  0
C  C78  1  0.99999784  0.59120006  0.09124184  1  1.521415  0  0.22663  0.605526  0  4.163031  0
C  C79  1  0.99999246  0.36337662  0.13662922  1  1.60973  0  0.228463  0.629864  0  4.137561  0
C  C80  1  0.81755539  0.40877537  0.09121140  1  1.542322  0  0.226724  0.605956  0  4.162797  0
C  C81  1  0.00001006  0.40875792  0.90879651  1  1.554736  0  0.226489  0.605408  0  4.16324  0
C  C82  1  0.99999112  0.63661791  0.86338194  1  1.609471  0  0.228391  0.629736  0  4.138025  0
C  C83  1  0.18244480  0.59121703  0.90876626  1  1.541926  0  0.226642  0.605614  0  4.163114  0
C  C84  1  0.00001100  0.80527124  0.69472877  1  0.066219  0  -0.015453  -0.123797  0  3.852943  0
C  C85  1  0.99999979  0.69473299  0.80526773  1  0.06584  0  -0.01559  -0.124138  0  3.853311  0
C  C86  1  0.95708958  0.77698860  0.76591334  1  0.125763  0  0.016173  0.076836  0  3.980545  0
C  C87  1  0.04291965  0.72301459  0.73408362  1  0.126623  0  0.01625  0.076944  0  3.980524  0
C  C88  1  0.95708630  0.72300410  0.81990063  1  0.120183  0  0.016242  0.077015  0  3.980576  0
C  C89  1  0.04292269  0.77699937  0.68009671  1  0.119658  0  0.016322  0.076959  0  3.980318  0
C  C90  1  0.99998635  0.19472822  0.30527041  1  0.065955  0  -0.015427  -0.123747  0  3.852899  0
C  C91  1  0.99999611  0.30527040  0.19473999  1  0.066172  0  -0.015581  -0.124342  0  3.853149  0
C  C92  1  0.95708382  0.18010017  0.27698046  1  0.120068  0  0.016238  0.076735  0  3.980581  0
C  C93  1  0.04289740  0.31989859  0.22303066  1  0.121531  0  0.016361  0.07727  0  3.980301  0
C  C94  1  0.95708741  0.23408810  0.22299717  1  0.126246  0  0.016295  0.077236  0  3.980365  0
C  C95  1  0.04289385  0.26590966  0.27701309  1  0.125235  0  0.016215  0.076837  0  3.980397  0
C  C96  1  0.99999631  0.62855750  0.12860246  1  -0.033715  0  -0.021764  -0.030696  0  4.034263  0
C  C97  1  0.95715565  0.65736949  0.13513948  1  0.000973  0  -0.088767  -0.168811  0  3.964195  0
C  C98  1  0.95625023  0.69253585  0.16979643  1  -0.035398  0  0.000162  0.137029  0  3.937239  0
C  C99  1  0.99998042  0.69901434  0.19907342  1  0.13827  0  0.002221  0.019126  0  4.020091  0
C  C100  1  0.04372700  0.66976207  0.19259269  1  -0.036789  0  0.00019  0.137107  0  3.936915  0
C  C101  1  0.04283396  0.63510986  0.15742141  1  0.002674  0  -0.088741  -0.169018  0  3.964122  0
C  C102  1  0.99996889  0.73460092  0.23467801  1  -0.332172  0  -0.037307  -0.092183  0  4.123541  0
C  C103  1  0.99996373  0.76532043  0.26540137  1  -0.123446  0  -0.037102  -0.091757  0  4.12332  0
C  C104  1  0.99996722  0.80091996  0.30099254  1  0.105555  0  0.002122  0.0191  0  4.019843  0
C  C105  1  0.95627571  0.83024271  0.30740446  1  -0.035655  0  0.000186  0.136591  0  3.937253  0
C  C106  1  0.95717080  0.86489541  0.34257576  1  0.000739  0  -0.088592  -0.168641  0  3.964226  0
C  C107  1  0.99997243  0.87139789  0.37144208  1  -0.034247  0  -0.021706  -0.030899  0  4.034387  0
C  C108  1  0.04277121  0.84253449  0.36495519  1  -0.001342  0  -0.08893  -0.168766  0  3.964135  0
C  C109  1  0.04366445  0.80735283  0.33031383  1  -0.001363  0  0.000244  0.13678  0  3.937109  0
C  C110  1  0.00002037  0.37139886  0.87143932  1  -0.036829  0  -0.021695  -0.030929  0  4.034324  0
C  C111  1  0.04286134  0.40769202  0.79978916  1  0.026694  0  -0.088794  -0.168643  0  3.964214  0
C  C112  1  0.04375762  0.37393908  0.76371946  1  -0.040305  0  0.000191  0.136935  0  3.937356  0
C  C113  1  0.00001225  0.30094038  0.80097250  1  0.130372  0  0.002253  0.01892  0  4.020172  0
C  C114  1  0.95627439  0.26368178  0.87397402  1  -0.039843  0  0.000206  0.137174  0  3.936947  0
C  C115  1  0.95717710  0.29974750  0.90773101  1  0.028068  0  -0.088707  -0.168628  0  3.963852  0
C  C116  1  0.99999766  0.26535022  0.76537221  1  -0.117811  0  -0.037329  -0.092002  0  4.122818  0
C  C117  1  0.99998229  0.23463829  0.73464159  1  -0.32739  0  -0.03711  -0.091738  0  4.122653  0
C  C118  1  0.99997443  0.19904948  0.69904123  1  0.129818  0  0.002044  0.019006  0  4.019819  0
C  C119  1  0.04366841  0.23631988  0.62602821  1  -0.039906  0  0.000228  0.136586  0  3.936981  0
C  C120  1  0.04277746  0.20025290  0.59227276  1  0.028522  0  -0.088738  -0.168544  0  3.964  0
C  C121  1  0.99997942  0.12859006  0.62857500  1  -0.036959  0  -0.021778  -0.031317  0  4.034552  0
C  C122  1  0.95717650  0.09228710  0.70023596  1  0.027339  0  -0.088542  -0.168252  0  3.96406  0
C  C123  1  0.95628007  0.12603832  0.73630765  1  -0.039411  0  0.000237  0.136678  0  3.937341  0
C  C124  1  0.74283819  0.37141714  0.12857655  1  -0.051166  0  -0.021668  -0.031063  0  4.034527  0
C  C125  1  0.70747944  0.40771789  0.13507672  1  -0.003944  0  -0.088694  -0.168635  0  3.964269  0
C  C126  1  0.63765594  0.37396677  0.16971666  1  -0.044964  0  5.9e-05  0.136167  0  3.936935  0
C  C127  1  0.60191107  0.30095611  0.19902723  1  0.135995  0  0.002132  0.020256  0  4.018095  0
C  C128  1  0.63765421  0.26368696  0.19260919  1  -0.03795  0  0.000207  0.136291  0  3.937061  0
C  C129  1  0.70747770  0.29975537  0.15743687  1  0.006526  0  -0.08881  -0.168648  0  3.96429  0
C  C130  1  0.53072180  0.26536501  0.23460568  1  -0.069572  0  -0.037293  -0.092432  0  4.123132  0
C  C131  1  0.46927952  0.23465122  0.26531413  1  -0.382414  0  -0.037142  -0.092252  0  4.123127  0
C  C132  1  0.39809074  0.19905956  0.30090857  1  0.134914  0  0.002252  0.020411  0  4.01823  0
C  C133  1  0.36234881  0.23631694  0.30739373  1  -0.037608  0  0.000124  0.136706  0  3.936807  0
C  C134  1  0.29252620  0.20024940  0.34256963  1  0.006543  0  -0.088733  -0.16879  0  3.964087  0
C  C135  1  0.25716255  0.12859695  0.37138367  1  -0.051144  0  -0.02169  -0.031081  0  4.034502  0
C  C136  1  0.29251929  0.09230510  0.36483157  1  0.043632  0  -0.08882  -0.16863  0  3.964497  0
C  C137  1  0.36234238  0.12606049  0.33017248  1  -0.08869  0  0.000175  0.13637  0  3.937254  0
C  C138  1  0.25716330  0.62856147  0.87141161  1  -0.051187  0  -0.021761  -0.031073  0  4.034426  0
C  C139  1  0.29252608  0.63505360  0.90771803  1  -0.003339  0  -0.088683  -0.168447  0  3.963994  0
C  C140  1  0.36234869  0.66969648  0.87396753  1  -0.000934  0  0.000227  0.136102  0  3.936911  0
C  C141  1  0.39808988  0.69901364  0.80095495  1  0.092337  0  0.002143  0.020414  0  4.018281  0
C  C142  1  0.36234452  0.69259803  0.76368050  1  -0.037852  0  6.1e-05  0.136089  0  3.937153  0
C  C143  1  0.29252045  0.65742481  0.79974836  1  0.006472  0  -0.088639  -0.168584  0  3.964378  0
C  C144  1  0.46928008  0.73460462  0.76536203  1  -0.387569  0  -0.037297  -0.092494  0  4.123242  0
C  C145  1  0.53072229  0.76532511  0.73464844  1  -0.064596  0  -0.037134  -0.092129  0  4.123012  0
C  C146  1  0.60191433  0.80092626  0.69905597  1  0.13506  0  0.002207  0.020241  0  4.018485  0
C  C147  1  0.63765891  0.80741184  0.73631683  1  -0.037166  0  0.000108  0.136639  0  3.936925  0
C  C148  1  0.70748263  0.84258263  0.70024920  1  0.006908  0  -0.088504  -0.16862  0  3.963987  0
C  C149  1  0.74284041  0.87139509  0.62859706  1  -0.051968  0  -0.021882  -0.030892  0  4.03441  0
C  C150  1  0.70747867  0.86484782  0.59230123  1  0.044165  0  -0.088652  -0.168464  0  3.964376  0
C  C151  1  0.63765639  0.83019226  0.62605496  1  -0.089416  0  0.000265  0.136489  0  3.937216  0
C  C152  1  0.09081016  0.67524551  0.22254425  1  -0.037581  0  -0.236178  -0.407694  0  3.971575  0
C  C153  1  0.90917173  0.72248496  0.17525998  1  -0.039032  0  -0.235945  -0.407626  0  3.972066  0
C  C154  1  0.09070859  0.77736104  0.32489053  1  -0.042894  0  -0.235674  -0.405958  0  3.973111  0
C  C155  1  0.90923930  0.82481796  0.27739546  1  -0.042605  0  -0.235733  -0.405789  0  3.972656  0
C  C156  1  0.90919010  0.18665673  0.91557173  1  -0.027522  0  -0.236238  -0.40797  0  3.971956  0
C  C157  1  0.09083410  0.41554090  0.68669260  1  -0.032136  0  -0.235785  -0.407322  0  3.972214  0
C  C158  1  0.90924241  0.08442486  0.81334496  1  -0.067731  0  -0.235764  -0.406012  0  3.972838  0
C  C159  1  0.09071232  0.31335553  0.58441925  1  -0.066433  0  -0.235591  -0.405786  0  3.972643  0
C  C160  1  0.60222834  0.18665036  0.22260695  1  -0.076618  0  -0.235631  -0.405867  0  3.972924  0
C  C161  1  0.60223324  0.41557860  0.17514787  1  -0.029918  0  -0.235578  -0.405655  0  3.972748  0
C  C162  1  0.39776157  0.08445553  0.32469982  1  -0.037362  0  -0.235848  -0.40732  0  3.972598  0
C  C163  1  0.39777700  0.31334235  0.27745079  1  -0.015831  0  -0.236164  -0.407837  0  3.97193  0
C  C164  1  0.39776772  0.72260518  0.68663906  1  -0.076505  0  -0.23558  -0.405743  0  3.972698  0
C  C165  1  0.39777759  0.67512802  0.91558264  1  -0.03098  0  -0.235634  -0.405692  0  3.972808  0
C  C166  1  0.60222789  0.82472054  0.58444849  1  -0.036112  0  -0.236045  -0.407679  0  3.972049  0
C  C167  1  0.60223873  0.77746650  0.81334592  1  -0.017626  0  -0.236154  -0.408039  0  3.97203  0
Cl  Cl168  1  0.90223079  0.80557650  0.79215630  1  -0.139097  0  0.00163  -0.039043  0  1.660566  0
Cl  Cl169  1  0.09777815  0.69442796  0.70784234  1  -0.136758  0  0.001655  -0.038983  0  1.660687  0
Cl  Cl170  1  0.90223050  0.69439622  0.90334649  1  -0.14223  0  0.001625  -0.039051  0  1.66063  0
Cl  Cl171  1  0.09777469  0.80560500  0.59665163  1  -0.144988  0  0.001579  -0.039079  0  1.66065  0
Cl  Cl172  1  0.90224673  0.09666110  0.30555821  1  -0.146643  0  0.001558  -0.039039  0  1.660548  0
Cl  Cl173  1  0.09773183  0.40334072  0.19445628  1  -0.146627  0  0.001529  -0.039176  0  1.660565  0
Cl  Cl174  1  0.90225272  0.20785280  0.19437477  1  -0.134908  0  0.001622  -0.039126  0  1.66052  0
Cl  Cl175  1  0.09773230  0.29214819  0.30563390  1  -0.134961  0  0.001575  -0.039092  0  1.660594  0
O  O176  1  0.99999916  0.00000335  0.49999953  1  -1.232221  0  -0.572331  -1.029582  0  2.539482  0
O  O177  1  0.15328603  0.02598989  0.43288147  1  -1.167407  0  -0.317622  -0.549779  0  2.340258  0
O  O178  1  0.03990535  0.15415920  0.38568074  1  -1.168824  0  -0.313013  -0.541587  0  2.451622  0
O  O179  1  0.95885396  0.93288802  0.41382214  1  -1.166339  0  -0.317695  -0.549733  0  2.340178  0
O  O180  1  0.15329174  0.12731829  0.41383099  1  -1.166014  0  -0.317695  -0.549687  0  2.340508  0
O  O181  1  0.04112607  0.91383113  0.43289021  1  -1.165461  0  -0.317665  -0.549761  0  2.34043  0
O  O182  1  0.96006508  0.07440076  0.38574268  1  -1.169615  0  -0.313063  -0.541716  0  2.451747  0
O  O183  1  0.84670818  0.93287122  0.52599439  1  -1.167276  0  -0.317556  -0.549529  0  2.340316  0
O  O184  1  0.96017540  0.88575865  0.65416501  1  -1.16834  0  -0.312982  -0.541672  0  2.451549  0
O  O185  1  0.84671906  0.91380954  0.62732543  1  -1.16597  0  -0.317609  -0.549549  0  2.340221  0
O  O186  1  0.03986909  0.88569011  0.57440205  1  -1.168971  0  -0.313249  -0.541888  0  2.451767  0
O  O187  1  0.04112500  0.12731902  0.52597249  1  -1.1813  0  -0.317534  -0.549572  0  2.340181  0
O  O188  1  0.95887796  0.02598182  0.62730916  1  -1.180902  0  -0.317585  -0.549739  0  2.340259  0
O  O189  1  0.00000089  0.50000019  0.00000276  1  -1.232266  0  -0.572333  -1.029679  0  2.539664  0
O  O190  1  0.95885686  0.58614348  0.06713699  1  -1.165461  0  -0.317626  -0.549657  0  2.340362  0
O  O191  1  0.03993778  0.42560142  0.11425050  1  -1.169219  0  -0.313117  -0.541779  0  2.450881  0
O  O192  1  0.84670765  0.37268979  0.08617054  1  -1.165985  0  -0.317561  -0.549638  0  2.340501  0
O  O193  1  0.04114168  0.56710033  0.08619034  1  -1.166378  0  -0.317542  -0.549545  0  2.340148  0
O  O194  1  0.84671305  0.47402515  0.06709018  1  -1.166915  0  -0.31765  -0.549885  0  2.339886  0
O  O195  1  0.96006990  0.34583983  0.11434214  1  -1.168679  0  -0.313027  -0.541524  0  2.452351  0
O  O196  1  0.95888018  0.37267789  0.97403579  1  -1.182885  0  -0.317462  -0.549462  0  2.340454  0
O  O197  1  0.03981796  0.61422971  0.84583633  1  -1.16834  0  -0.313044  -0.541687  0  2.45155  0
O  O198  1  0.04113651  0.47400722  0.87270319  1  -1.181142  0  -0.317614  -0.549673  0  2.340279  0
O  O199  1  0.96015646  0.61433305  0.92559633  1  -1.168808  0  -0.313068  -0.541625  0  2.451954  0
O  O200  1  0.15329281  0.56710552  0.97401300  1  -1.166433  0  -0.317497  -0.549503  0  2.340181  0
O  O201  1  0.15328305  0.58618861  0.87267525  1  -1.166262  0  -0.317669  -0.549643  0  2.340253  0
