# generated using pymatgen
data_CdH19C19(NO)5
_symmetry_space_group_name_H-M   'P 1'
_cell_length_a   8.90743381
_cell_length_b   10.49918209
_cell_length_c   13.04923849
_cell_angle_alpha   101.63000023
_cell_angle_beta   104.35780153
_cell_angle_gamma   101.34846922
_symmetry_Int_Tables_number   1
_chemical_formula_structural   CdH19C19(NO)5
_chemical_formula_sum   'Cd2 H38 C38 N10 O10'
_cell_volume   1118.14218146
_cell_formula_units_Z   2
loop_
 _symmetry_equiv_pos_site_id
 _symmetry_equiv_pos_as_xyz
  1  'x, y, z'
loop_
 _atom_site_type_symbol
 _atom_site_label
 _atom_site_symmetry_multiplicity
 _atom_site_fract_x
 _atom_site_fract_y
 _atom_site_fract_z
 _atom_site_occupancy
 _atom_site_hle17_bader_spin_density
 _atom_site_hle17_ddec_charge
 _atom_site_hle17_ddec_spin_density
 _atom_site_hle17_ddec_sum_bond_order
 _atom_site_hle17_magmom
 _atom_site_hse06_10hf_bader_spin_density
 _atom_site_hse06_10hf_ddec_charge
 _atom_site_hse06_10hf_ddec_spin_density
 _atom_site_hse06_10hf_ddec_sum_bond_order
 _atom_site_hse06_10hf_magmom
 _atom_site_hse06_bader_spin_density
 _atom_site_hse06_ddec_charge
 _atom_site_hse06_ddec_spin_density
 _atom_site_hse06_ddec_sum_bond_order
 _atom_site_hse06_magmom
 _atom_site_pbe_bader_spin_density
 _atom_site_pbe_cm5_charge
 _atom_site_pbe_ddec_charge
 _atom_site_pbe_ddec_spin_density
 _atom_site_pbe_ddec_sum_bond_order
 _atom_site_pbe_magmom
Cd  Cd0  1  0.63863520  0.15353277  0.44297569  1  0  1.138213  0  1.703534  0  0  0.952151  0  2.156062  0  0  1.007533  0  2.103428  0  0  0.77403  0.909731  0  2.193998  0
Cd  Cd1  1  0.36137036  0.84647042  0.55702327  1  0  1.138186  0  1.703579  0  0  0.952128  0  2.156117  0  0  1.00751  0  2.103479  0  0  0.774022  0.90971  0  2.194054  0
H  H2  1  0.50925955  0.35098984  0.14851370  1  0  0.126454  0  0.925577  0  0  0.133895  0  0.98634  0  0  0.138618  0  0.982079  0  0  0.117643  0.130521  0  0.989356  0
H  H3  1  0.49074662  0.64901546  0.85149489  1  0  0.126409  0  0.92558  0  0  0.133845  0  0.986353  0  0  0.138568  0  0.982092  0  0  0.117629  0.130475  0  0.989377  0
H  H4  1  0.98309004  0.42948783  0.17870191  1  0  0.069339  0  0.938694  0  0  0.087134  0  1.000458  0  0  0.087811  0  1.001197  0  0  0.090187  0.086588  0  0.999985  0
H  H5  1  0.01690780  0.57050937  0.82129556  1  0  0.069295  0  0.938768  0  0  0.087124  0  1.000498  0  0  0.087801  0  1.001237  0  0  0.090195  0.086583  0  1.000028  0
H  H6  1  0.17986776  0.49050431  0.17500647  1  0  0.072437  0  0.936131  0  0  0.091994  0  0.995731  0  0  0.091662  0  0.998185  0  0  0.090716  0.092068  0  0.994238  0
H  H7  1  0.82012520  0.50948479  0.82498354  1  0  0.072485  0  0.936001  0  0  0.092016  0  0.99564  0  0  0.091683  0  0.998095  0  0  0.090734  0.092096  0  0.994142  0
H  H8  1  0.48655622  0.76201238  0.16162034  1  0  0.130572  0  0.924681  0  0  0.137549  0  0.986017  0  0  0.14271  0  0.981008  0  0  0.116964  0.133851  0  0.989566  0
H  H9  1  0.51344490  0.23798780  0.83837663  1  0  0.130523  0  0.92478  0  0  0.137505  0  0.986126  0  0  0.142668  0  0.981116  0  0  0.116966  0.133826  0  0.989645  0
H  H10  1  0.18166474  0.35591835  0.79227451  1  0  0.106948  0  0.992362  0  0  0.111507  0  1.06314  0  0  0.113416  0  1.063608  0  0  0.113182  0.110075  0  1.062941  0
H  H11  1  0.81833725  0.64407385  0.20773133  1  0  0.106973  0  0.992391  0  0  0.111552  0  1.063142  0  0  0.113462  0  1.063608  0  0  0.113222  0.110117  0  1.062941  0
H  H12  1  0.87570817  0.37820778  0.34566250  1  0  0.090985  0  0.951364  0  0  0.101216  0  1.01556  0  0  0.103332  0  1.013047  0  0  0.131888  0.099542  0  1.017526  0
H  H13  1  0.12428466  0.62177732  0.65432993  1  0  0.090904  0  0.951457  0  0  0.101163  0  1.015631  0  0  0.103278  0  1.013121  0  0  0.131895  0.099488  0  1.017599  0
H  H14  1  0.12219290  0.15711474  0.89955480  1  0  0.070365  0  0.905143  0  0  0.089071  0  0.962213  0  0  0.089571  0  0.962096  0  0  0.11107  0.088457  0  0.962672  0
H  H15  1  0.87779182  0.84287046  0.10044162  1  0  0.070357  0  0.905205  0  0  0.089076  0  0.962258  0  0  0.08958  0  0.962134  0  0  0.111054  0.088457  0  0.962721  0
H  H16  1  0.91589584  0.09372794  0.88319661  1  0  0.073355  0  0.908347  0  0  0.093384  0  0.96415  0  0  0.093813  0  0.964202  0  0  0.115774  0.092824  0  0.964514  0
H  H17  1  0.08408587  0.90626230  0.11679625  1  0  0.073432  0  0.908267  0  0  0.093406  0  0.964145  0  0  0.093833  0  0.964198  0  0  0.115808  0.09285  0  0.964506  0
H  H18  1  0.72213774  0.08517040  0.70608437  1  0  0.105359  0  0.949587  0  0  0.115692  0  1.010664  0  0  0.118103  0  1.007743  0  0  0.137135  0.113849  0  1.012939  0
H  H19  1  0.27785376  0.91483589  0.29391036  1  0  0.105513  0  0.949405  0  0  0.115834  0  1.010486  0  0  0.118249  0  1.007559  0  0  0.137192  0.11399  0  1.012763  0
H  H20  1  0.99184695  0.19213820  0.09988015  1  0  0.058746  0  0.929796  0  0  0.079301  0  0.984534  0  0  0.080027  0  0.98531  0  0  0.08747  0.078596  0  0.984347  0
H  H21  1  0.00813719  0.80785613  0.90012065  1  0  0.058761  0  0.929771  0  0  0.079286  0  0.984532  0  0  0.080006  0  0.985317  0  0  0.087485  0.078606  0  0.984322  0
H  H22  1  0.19177597  0.25294753  0.10105354  1  0  0.054239  0  0.93583  0  0  0.07379  0  0.996813  0  0  0.074201  0  0.997189  0  0  0.084112  0.073396  0  0.996681  0
H  H23  1  0.80820695  0.74703569  0.89894380  1  0  0.054162  0  0.935976  0  0  0.073744  0  0.996925  0  0  0.074159  0  0.9973  0  0  0.084071  0.07335  0  0.996798  0
H  H24  1  0.19901949  0.13486121  0.33251172  1  0  0.123997  0  0.961389  0  0  0.132147  0  1.026659  0  0  0.135126  0  1.024573  0  0  0.122029  0.12987  0  1.028408  0
H  H25  1  0.80100231  0.86515302  0.66749711  1  0  0.123896  0  0.961392  0  0  0.132104  0  1.026612  0  0  0.135082  0  1.024529  0  0  0.122033  0.129827  0  1.028356  0
H  H26  1  0.00823385  0.34499755  0.57990263  1  0  0.107325  0  0.952083  0  0  0.117487  0  1.010744  0  0  0.119692  0  1.010178  0  0  0.118836  0.115793  0  1.011401  0
H  H27  1  0.99177792  0.65501072  0.42010585  1  0  0.107306  0  0.952138  0  0  0.117501  0  1.010758  0  0  0.119705  0  1.010195  0  0  0.11878  0.115805  0  1.011415  0
H  H28  1  0.28006399  0.35375431  0.30197084  1  0  0.076167  0  0.968403  0  0  0.091476  0  1.033001  0  0  0.091622  0  1.033877  0  0  0.106065  0.091219  0  1.032534  0
H  H29  1  0.71993610  0.64624991  0.69802581  1  0  0.076145  0  0.968317  0  0  0.091439  0  1.032987  0  0  0.091577  0  1.033857  0  0  0.106063  0.09119  0  1.032525  0
H  H30  1  0.20006380  0.48109227  0.36212802  1  0  0.095343  0  0.947622  0  0  0.108397  0  1.013048  0  0  0.109591  0  1.012435  0  0  0.108024  0.107422  0  1.013605  0
H  H31  1  0.79993565  0.51890993  0.63786744  1  0  0.095329  0  0.947631  0  0  0.108408  0  1.013061  0  0  0.109597  0  1.012435  0  0  0.108002  0.107437  0  1.013618  0
H  H32  1  0.93433258  0.99974635  0.38312474  1  0  0.101754  0  0.952696  0  0  0.111928  0  1.012315  0  0  0.113998  0  1.01232  0  0  0.112875  0.110279  0  1.012574  0
H  H33  1  0.06570597  0.00025874  0.61689244  1  0  0.101871  0  0.95263  0  0  0.111941  0  1.012345  0  0  0.114005  0  1.012357  0  0  0.112834  0.110292  0  1.012605  0
H  H34  1  0.89733120  0.32391664  0.96737106  1  0  0.080034  0  0.929852  0  0  0.099495  0  0.98714  0  0  0.100821  0  0.9869  0  0  0.093171  0.098437  0  0.987495  0
H  H35  1  0.10266041  0.67607556  0.03262533  1  0  0.080151  0  0.929786  0  0  0.099532  0  0.98715  0  0  0.100853  0  0.986913  0  0  0.093188  0.098474  0  0.987511  0
H  H36  1  0.09816209  0.39344000  0.97368171  1  0  0.077251  0  0.954589  0  0  0.092002  0  1.021654  0  0  0.093306  0  1.021848  0  0  0.089684  0.090947  0  1.021825  0
H  H37  1  0.90183368  0.60654715  0.02631690  1  0  0.077285  0  0.95457  0  0  0.092012  0  1.021645  0  0  0.093315  0  1.021838  0  0  0.089683  0.090961  0  1.021807  0
H  H38  1  0.60898435  0.63731139  0.45926602  1  0  0.121655  0  0.933332  0  0  0.128741  0  0.997465  0  0  0.132949  0  0.99385  0  0  0.113685  0.125704  0  1.000091  0
H  H39  1  0.39101170  0.36270200  0.54073672  1  0  0.121699  0  0.933287  0  0  0.128729  0  0.99748  0  0  0.132948  0  0.993836  0  0  0.113659  0.125695  0  1.000106  0
C  C40  1  0.52072636  0.45258403  0.19516305  1  0  -0.109509  0  3.692707  0  0  -0.148619  0  3.948102  0  0  -0.144422  0  3.961647  0  0  -0.072472  -0.150989  0  3.93886  0
C  C41  1  0.47927520  0.54742124  0.80483938  1  0  -0.109505  0  3.692703  0  0  -0.148558  0  3.948105  0  0  -0.144361  0  3.961653  0  0  -0.072462  -0.150932  0  3.938865  0
C  C42  1  0.09807472  0.40314822  0.18442681  1  0  -0.126915  0  3.692862  0  0  -0.16836  0  3.958233  0  0  -0.170225  0  3.973697  0  0  -0.165685  -0.16683  0  3.947411  0
C  C43  1  0.90192067  0.59684495  0.81556885  1  0  -0.126884  0  3.69275  0  0  -0.168331  0  3.958132  0  0  -0.170214  0  3.973597  0  0  -0.165662  -0.166802  0  3.947323  0
C  C44  1  0.49798719  0.55478474  0.14401147  1  0  0.091921  0  3.7911  0  0  0.0914  0  4.053272  0  0  0.090796  0  4.072292  0  0  0.08247  0.091398  0  4.040539  0
C  C45  1  0.50201701  0.44522151  0.85599003  1  0  0.092078  0  3.791031  0  0  0.091466  0  4.053318  0  0  0.090859  0  4.072342  0  0  0.082492  0.091471  0  4.040576  0
C  C46  1  0.50781927  0.68402933  0.20293042  1  0  -0.112666  0  3.697765  0  0  -0.153592  0  3.955897  0  0  -0.1491  0  3.968917  0  0  -0.073016  -0.155914  0  3.946805  0
C  C47  1  0.49218018  0.31597291  0.79706888  1  0  -0.112654  0  3.697683  0  0  -0.153566  0  3.95584  0  0  -0.149075  0  3.968867  0  0  -0.072989  -0.155909  0  3.946729  0
C  C48  1  0.06212506  0.29798925  0.74182107  1  0  -0.068472  0  3.68189  0  0  -0.105523  0  3.939218  0  0  -0.104646  0  3.959284  0  0  -0.000377  -0.106182  0  3.926032  0
C  C49  1  0.93787739  0.70200796  0.25818179  1  0  -0.068615  0  3.681885  0  0  -0.105685  0  3.939241  0  0  -0.104808  0  3.959308  0  0  -0.000495  -0.106342  0  3.926047  0
C  C50  1  0.92306830  0.29084223  0.34670680  1  0  0.150797  0  3.681469  0  0  0.092291  0  3.94207  0  0  0.105522  0  3.955484  0  0  0.13204  0.083485  0  3.933041  0
C  C51  1  0.07693833  0.70914987  0.65329292  1  0  0.150917  0  3.681143  0  0  0.092392  0  3.94176  0  0  0.105622  0  3.955171  0  0  0.132014  0.083589  0  3.932734  0
C  C52  1  0.55989649  0.48266292  0.30941927  1  0  -0.040185  0  3.738359  0  0  -0.011176  0  3.969592  0  0  -0.019599  0  3.990345  0  0  -0.006947  -0.006184  0  3.956354  0
C  C53  1  0.44010804  0.51734434  0.69058244  1  0  -0.040126  0  3.738144  0  0  -0.011149  0  3.969405  0  0  -0.019572  0  3.990152  0  0  -0.006912  -0.006157  0  3.956172  0
C  C54  1  0.00651393  0.18358829  0.88674789  1  0  0.011206  0  3.648154  0  0  -0.057666  0  3.920755  0  0  -0.052972  0  3.932358  0  0  -0.047903  -0.060602  0  3.912742  0
C  C55  1  0.99347177  0.81639991  0.11324610  1  0  0.011041  0  3.648241  0  0  -0.057818  0  3.920844  0  0  -0.053122  0  3.932442  0  0  -0.048043  -0.060755  0  3.91284  0
C  C56  1  0.82254401  0.15638460  0.69871581  1  0  0.159461  0  3.664832  0  0  0.099113  0  3.928681  0  0  0.112428  0  3.943393  0  0  0.14064  0.090507  0  3.918076  0
C  C57  1  0.17745030  0.84361968  0.30128139  1  0  0.159334  0  3.6645  0  0  0.099018  0  3.928307  0  0  0.112332  0  3.94302  0  0  0.140571  0.090413  0  3.917708  0
C  C58  1  0.07594551  0.27936601  0.09188370  1  0  -0.095538  0  3.699819  0  0  -0.135311  0  3.964413  0  0  -0.136277  0  3.979761  0  0  -0.165092  -0.134395  0  3.953596  0
C  C59  1  0.92404050  0.72062324  0.90811511  1  0  -0.09547  0  3.699956  0  0  -0.135197  0  3.964447  0  0  -0.136163  0  3.97979  0  0  -0.165076  -0.134296  0  3.953644  0
C  C60  1  0.58266203  0.37341274  0.36605343  1  0  0.613195  0  3.969811  0  0  0.566766  0  4.260473  0  0  0.599929  0  4.25587  0  0  0.187403  0.544287  0  4.262458  0
C  C61  1  0.41734165  0.62659559  0.63395367  1  0  0.612855  0  3.969895  0  0  0.566424  0  4.26058  0  0  0.599586  0  4.25598  0  0  0.187139  0.543946  0  4.262568  0
C  C62  1  0.08943778  0.16092119  0.33925962  1  0  -0.072455  0  3.679104  0  0  -0.115057  0  3.941813  0  0  -0.113742  0  3.961021  0  0  -0.003565  -0.115858  0  3.928938  0
C  C63  1  0.91058145  0.83908500  0.66074904  1  0  -0.072267  0  3.678979  0  0  -0.114901  0  3.941611  0  0  -0.113587  0  3.960821  0  0  -0.003433  -0.115699  0  3.92873  0
C  C64  1  0.97423673  0.29289976  0.63778648  1  0  -0.000397  0  3.76292  0  0  -0.034289  0  4.029088  0  0  -0.032348  0  4.050555  0  0  -0.006192  -0.035616  0  4.014503  0
C  C65  1  0.02577061  0.70710549  0.36221847  1  0  -0.000462  0  3.76278  0  0  -0.034388  0  4.028964  0  0  -0.032447  0  4.050431  0  0  -0.006186  -0.035715  0  4.014375  0
C  C66  1  0.16991936  0.38647062  0.29833006  1  0  -0.018015  0  3.623295  0  0  -0.081804  0  3.880815  0  0  -0.078116  0  3.892647  0  0  -0.060269  -0.08417  0  3.872823  0
C  C67  1  0.83007978  0.61353057  0.70166519  1  0  -0.018016  0  3.62311  0  0  -0.081896  0  3.880773  0  0  -0.078163  0  3.89254  0  0  -0.060295  -0.084285  0  3.872813  0
C  C68  1  0.95947718  0.09737806  0.36602522  1  0  -0.008233  0  3.774159  0  0  -0.04297  0  4.045407  0  0  -0.041422  0  4.06644  0  0  -0.013993  -0.043902  0  4.030954  0
C  C69  1  0.04054802  0.90262505  0.63398322  1  0  -0.008419  0  3.773925  0  0  -0.043056  0  4.045169  0  0  -0.041503  0  4.066203  0  0  -0.014024  -0.043985  0  4.030714  0
C  C70  1  0.01610494  0.30324173  0.97890167  1  0  -0.138838  0  3.683922  0  0  -0.178638  0  3.948195  0  0  -0.18078  0  3.96211  0  0  -0.168271  -0.176929  0  3.93847  0
C  C71  1  0.98388569  0.69674747  0.02109639  1  0  -0.138989  0  3.684146  0  0  -0.178711  0  3.948375  0  0  -0.180848  0  3.962281  0  0  -0.16823  -0.176999  0  3.938646  0
C  C72  1  0.54775549  0.71330601  0.31736109  1  0  -0.055142  0  3.752691  0  0  -0.028078  0  3.988773  0  0  -0.038284  0  4.012439  0  0  -0.013459  -0.021594  0  3.973053  0
C  C73  1  0.45224312  0.28669725  0.68263899  1  0  -0.055106  0  3.752759  0  0  -0.02801  0  3.988808  0  0  -0.038218  0  4.012476  0  0  -0.01344  -0.021527  0  3.973092  0
C  C74  1  0.57607959  0.61329941  0.37019423  1  0  -0.04181  0  3.64163  0  0  -0.080228  0  3.886619  0  0  -0.074985  0  3.902388  0  0  -0.061802  -0.083511  0  3.876454  0
C  C75  1  0.42391754  0.38670287  0.62980698  1  0  -0.041857  0  3.641485  0  0  -0.080213  0  3.886459  0  0  -0.074969  0  3.902237  0  0  -0.061773  -0.083498  0  3.876292  0
C  C76  1  0.56338302  0.85312262  0.38312727  1  0  0.644109  0  3.932798  0  0  0.592495  0  4.22504  0  0  0.627256  0  4.218874  0  0  0.201985  0.568827  0  4.228171  0
C  C77  1  0.43660995  0.14688465  0.61686557  1  0  0.644268  0  3.932664  0  0  0.592603  0  4.224967  0  0  0.627365  0  4.218797  0  0  0.201993  0.568934  0  4.228099  0
N  N78  1  0.96437159  0.21070357  0.77917611  1  0  -0.066271  0  3.582868  0  0  0.029394  0  3.80282  0  0  0.014662  0  3.829553  0  0  -0.244468  0.039077  0  3.784664  0
N  N79  1  0.03562245  0.78929265  0.22082209  1  0  -0.066095  0  3.582628  0  0  0.029572  0  3.802547  0  0  0.014836  0  3.829286  0  0  -0.244373  0.039253  0  3.784392  0
N  N80  1  0.06388966  0.28318009  0.32695965  1  0  -0.053926  0  3.576091  0  0  0.042593  0  3.791299  0  0  0.028249  0  3.817383  0  0  -0.244551  0.052011  0  3.773698  0
N  N81  1  0.93611557  0.71682210  0.67303987  1  0  -0.05389  0  3.575889  0  0  0.042648  0  3.79112  0  0  0.028295  0  3.817192  0  0  -0.244533  0.052068  0  3.773525  0
N  N82  1  0.82486234  0.20445330  0.61194073  1  0  -0.39482  0  3.26842  0  0  -0.318357  0  3.553199  0  0  -0.340551  0  3.571646  0  0  -0.358016  -0.302643  0  3.539445  0
N  N83  1  0.17514083  0.79555700  0.38806122  1  0  -0.39475  0  3.268273  0  0  -0.318286  0  3.55304  0  0  -0.340481  0  3.57149  0  0  -0.357939  -0.302574  0  3.539289  0
N  N84  1  0.45302809  0.52759678  0.02573816  1  0  0.237738  0  3.616881  0  0  0.269766  0  3.900155  0  0  0.279148  0  3.915324  0  0  0.007856  0.263372  0  3.890195  0
N  N85  1  0.54696608  0.47240348  0.97425992  1  0  0.237531  0  3.616604  0  0  0.269504  0  3.899906  0  0  0.278877  0  3.915078  0  0  0.007726  0.26311  0  3.889937  0
N  N86  1  0.85661805  0.17958893  0.37036014  1  0  -0.394368  0  3.263818  0  0  -0.322328  0  3.54367  0  0  -0.342778  0  3.561596  0  0  -0.358631  -0.308179  0  3.530979  0
N  N87  1  0.14339648  0.82040618  0.62964600  1  0  -0.394434  0  3.263432  0  0  -0.322415  0  3.54329  0  0  -0.342864  0  3.56121  0  0  -0.358648  -0.308266  0  3.530599  0
O  O88  1  0.68317293  0.40571040  0.46075323  1  0  -0.633771  0  1.933162  0  0  -0.583369  0  2.169895  0  0  -0.610073  0  2.16207  0  0  -0.328697  -0.563765  0  2.173985  0
O  O89  1  0.31683358  0.59429581  0.53924713  1  0  -0.633728  0  1.932995  0  0  -0.583322  0  2.169731  0  0  -0.610025  0  2.161905  0  0  -0.328723  -0.563716  0  2.173824  0
O  O90  1  0.50015676  0.25311945  0.31414949  1  0  -0.635789  0  1.911801  0  0  -0.577915  0  2.142035  0  0  -0.604846  0  2.131091  0  0  -0.341579  -0.557911  0  2.14945  0
O  O91  1  0.49985188  0.74688979  0.68585247  1  0  -0.635526  0  1.91188  0  0  -0.577636  0  2.142102  0  0  -0.604566  0  2.131164  0  0  -0.341306  -0.557631  0  2.149513  0
O  O92  1  0.32920534  0.55806983  0.97407227  1  0  -0.429994  0  1.725375  0  0  -0.419994  0  1.94451  0  0  -0.437443  0  1.944602  0  0  -0.187954  -0.407642  0  1.944258  0
O  O93  1  0.67079974  0.44192838  0.02593197  1  0  -0.429914  0  1.725024  0  0  -0.420012  0  1.944133  0  0  -0.437469  0  1.944227  0  0  -0.187995  -0.407652  0  1.943872  0
O  O94  1  0.58431838  0.87451270  0.48560425  1  0  -0.663875  0  2.011458  0  0  -0.605416  0  2.271791  0  0  -0.631872  0  2.259031  0  0  -0.33547  -0.586159  0  2.27992  0
O  O95  1  0.41568263  0.12550158  0.51439106  1  0  -0.663876  0  2.011741  0  0  -0.605373  0  2.272036  0  0  -0.631832  0  2.259275  0  0  -0.335331  -0.586114  0  2.280166  0
O  O96  1  0.55561513  0.94228047  0.32968448  1  0  -0.627972  0  1.995025  0  0  -0.563387  0  2.238519  0  0  -0.591307  0  2.225929  0  0  -0.328485  -0.543077  0  2.247061  0
O  O97  1  0.44437174  0.05772582  0.67030639  1  0  -0.628122  0  1.994699  0  0  -0.563548  0  2.238265  0  0  -0.591468  0  2.225676  0  0  -0.328624  -0.54324  0  2.246809  0
