# generated using pymatgen
data_Sm2H10C16N2O15
_symmetry_space_group_name_H-M   'P 1'
_cell_length_a   9.42007138
_cell_length_b   11.97922257
_cell_length_c   22.33558862
_cell_angle_alpha   101.25979622
_cell_angle_beta   90.03265572
_cell_angle_gamma   113.11559025
_symmetry_Int_Tables_number   1
_chemical_formula_structural   Sm2H10C16N2O15
_chemical_formula_sum   'Sm8 H40 C64 N8 O60'
_cell_volume   2265.13967565
_cell_formula_units_Z   4
loop_
 _symmetry_equiv_pos_site_id
 _symmetry_equiv_pos_as_xyz
  1  'x, y, z'
loop_
 _atom_site_type_symbol
 _atom_site_label
 _atom_site_symmetry_multiplicity
 _atom_site_fract_x
 _atom_site_fract_y
 _atom_site_fract_z
 _atom_site_occupancy
 _atom_site_pbe_bader_charge
 _atom_site_pbe_bader_spin_density
 _atom_site_pbe_cm5_charge
 _atom_site_pbe_ddec_charge
 _atom_site_pbe_ddec_spin_density
 _atom_site_pbe_ddec_sum_bond_order
 _atom_site_pbe_magmom
Sm  Sm0  1  0.68857396  0.90908606  0.56285195  1  2.226657  0  1.494421  2.080656  0  2.071488  0
Sm  Sm1  1  0.77907426  0.09110169  0.93719622  1  2.225663  0  1.494569  2.080161  0  2.072969  0
Sm  Sm2  1  0.31142739  0.09091351  0.43714812  1  2.226638  0  1.49443  2.080675  0  2.071506  0
Sm  Sm3  1  0.22092237  0.90889694  0.06280419  1  2.225643  0  1.49458  2.080188  0  2.072899  0
Sm  Sm4  1  0.49546690  0.69443538  0.81940080  1  2.24882  0  1.568115  2.13053  0  2.219532  0
Sm  Sm5  1  0.80143325  0.30592053  0.68058500  1  2.248291  0  1.568469  2.130083  0  2.218508  0
Sm  Sm6  1  0.50452468  0.30555950  0.18060189  1  2.248847  0  1.568147  2.130458  0  2.21953  0
Sm  Sm7  1  0.19856811  0.69407907  0.31941328  1  2.248283  0  1.568539  2.130091  0  2.218661  0
H  H8  1  0.68750778  0.07266626  0.47214656  1  0.66448  0  0.302714  0.40749  0  0.926032  0
H  H9  1  0.61510297  0.92743582  0.02788159  1  0.656607  0  0.302601  0.407353  0  0.926274  0
H  H10  1  0.31249403  0.92733423  0.52785449  1  0.664439  0  0.302673  0.407456  0  0.926072  0
H  H11  1  0.38488968  0.07255911  0.97211797  1  0.656638  0  0.302582  0.407312  0  0.926355  0
H  H12  1  0.84495852  0.15839840  0.51359600  1  0.638845  0  0.300071  0.393117  0  0.941767  0
H  H13  1  0.68708444  0.84192598  0.98645820  1  0.645916  0  0.299903  0.392892  0  0.942455  0
H  H14  1  0.15504660  0.84160024  0.48640441  1  0.638798  0  0.300068  0.393158  0  0.941714  0
H  H15  1  0.31291689  0.15807355  0.01354454  1  0.645878  0  0.299852  0.392803  0  0.942571  0
H  H16  1  0.79992459  0.73837147  0.61579263  1  0.612158  0  0.340254  0.429834  0  0.849481  0
H  H17  1  0.06085228  0.26125320  0.88411758  1  0.651195  0  0.34023  0.429263  0  0.85039  0
H  H18  1  0.20007358  0.26162814  0.38420565  1  0.612526  0  0.340212  0.429746  0  0.849613  0
H  H19  1  0.93914722  0.73874267  0.11588118  1  0.651212  0  0.340227  0.429275  0  0.850382  0
H  H20  1  0.86282888  0.72221644  0.54924944  1  0.635226  0  0.299703  0.39699  0  0.935057  0
H  H21  1  0.14034279  0.27754620  0.95061279  1  0.634187  0  0.299798  0.396913  0  0.935001  0
H  H22  1  0.13717414  0.27778222  0.45074918  1  0.635242  0  0.299684  0.396969  0  0.935094  0
H  H23  1  0.85965551  0.72245152  0.04938663  1  0.634167  0  0.299776  0.396892  0  0.935038  0
H  H24  1  0.91441953  0.93271083  0.45516170  1  0.64912  0  0.309603  0.401123  0  0.927447  0
H  H25  1  0.98153602  0.06750806  0.04488540  1  0.64699  0  0.309778  0.401096  0  0.92734  0
H  H26  1  0.08558779  0.06729432  0.54483897  1  0.649075  0  0.309634  0.401217  0  0.927334  0
H  H27  1  0.01846745  0.93249151  0.95511511  1  0.646822  0  0.309788  0.401058  0  0.927393  0
H  H28  1  0.91264090  0.82285990  0.48358201  1  0.640789  0  0.303426  0.388385  0  0.952853  0
H  H29  1  0.08946967  0.17711417  0.01636418  1  0.642367  0  0.303341  0.38713  0  0.954319  0
H  H30  1  0.08736854  0.17714524  0.51641911  1  0.640827  0  0.303409  0.388371  0  0.952896  0
H  H31  1  0.91053122  0.82288448  0.98363533  1  0.642354  0  0.303334  0.387097  0  0.954373  0
H  H32  1  0.25853270  0.53047087  0.65975190  1  0.149101  0  0.127188  0.141225  0  1.003962  0
H  H33  1  0.72817316  0.47029448  0.84037697  1  0.138686  0  0.12677  0.141054  0  1.004357  0
H  H34  1  0.74146846  0.46952407  0.34024677  1  0.149097  0  0.127163  0.141169  0  1.004013  0
H  H35  1  0.27182088  0.52970322  0.15962378  1  0.138647  0  0.126788  0.1411  0  1.004287  0
H  H36  1  0.15889642  0.48841572  0.46528667  1  0.130684  0  0.117999  0.125104  0  1.000651  0
H  H37  1  0.67001992  0.51185105  0.03475812  1  0.138292  0  0.118059  0.125501  0  1.000396  0
H  H38  1  0.84110798  0.51158572  0.53471270  1  0.130679  0  0.118008  0.125121  0  1.000646  0
H  H39  1  0.32998140  0.48814848  0.96524463  1  0.138381  0  0.118081  0.125499  0  1.000461  0
H  H40  1  0.23972607  0.34814928  0.72162088  1  0.189782  0  0.124256  0.143863  0  1.017245  0
H  H41  1  0.89105653  0.65204297  0.77855947  1  0.195102  0  0.124058  0.143489  0  1.017429  0
H  H42  1  0.76026759  0.65185402  0.27837914  1  0.189806  0  0.124245  0.143859  0  1.01722  0
H  H43  1  0.10894454  0.34796880  0.22143386  1  0.195141  0  0.124053  0.143542  0  1.017422  0
H  H44  1  0.18052830  0.98302451  0.62045710  1  0.129389  0  0.120333  0.129701  0  0.989671  0
H  H45  1  0.19699568  0.01730414  0.87951949  1  0.120927  0  0.120391  0.129302  0  0.989919  0
H  H46  1  0.81947785  0.01697406  0.37954733  1  0.129489  0  0.120365  0.129755  0  0.989703  0
H  H47  1  0.80300574  0.98270194  0.12048038  1  0.120999  0  0.120397  0.129341  0  0.989925  0
C  C48  1  0.41467338  0.66921590  0.61461124  1  0.515482  0  0.127724  0.123026  0  3.951349  0
C  C49  1  0.74514877  0.33115815  0.88541728  1  0.540025  0  0.128303  0.124413  0  3.949627  0
C  C50  1  0.58532991  0.33077905  0.38538653  1  0.515296  0  0.127623  0.122847  0  3.951317  0
C  C51  1  0.25484666  0.66884234  0.11458423  1  0.540059  0  0.128313  0.124571  0  3.949501  0
C  C52  1  0.28628405  0.56027796  0.61660168  1  -0.02581  0  -0.05175  -0.116623  0  3.826565  0
C  C53  1  0.72581252  0.44023934  0.88348141  1  -0.005566  0  -0.051662  -0.116717  0  3.825768  0
C  C54  1  0.71371711  0.43971699  0.38339654  1  -0.025679  0  -0.05169  -0.116541  0  3.826651  0
C  C55  1  0.27418338  0.55976206  0.11652064  1  -0.005225  0  -0.051683  -0.116791  0  3.825626  0
C  C56  1  0.19525173  0.49053058  0.56183424  1  -0.012224  0  0.006486  0.004197  0  3.92692  0
C  C57  1  0.70441242  0.50992270  0.93824176  1  -0.033077  0  0.006685  0.004115  0  3.927237  0
C  C58  1  0.80474705  0.50946809  0.43816394  1  -0.012032  0  0.006521  0.004322  0  3.927065  0
C  C59  1  0.29558574  0.49007685  0.06175965  1  -0.033445  0  0.006662  0.004057  0  3.927244  0
C  C60  1  0.23032656  0.53615309  0.50825836  1  -0.036634  0  -0.061534  -0.128513  0  3.891158  0
C  C61  1  0.69369257  0.46413785  0.99178148  1  -0.035865  0  -0.061263  -0.128384  0  3.891484  0
C  C62  1  0.76967479  0.46384650  0.49174081  1  -0.036581  0  -0.061551  -0.128602  0  3.891179  0
C  C63  1  0.30630253  0.53585983  0.00822062  1  -0.036325  0  -0.06126  -0.128357  0  3.891447  0
C  C64  1  0.35879634  0.64710087  0.51075553  1  0.53674  0  0.12663  0.127923  0  3.964015  0
C  C65  1  0.71109887  0.35306752  0.98924116  1  0.529143  0  0.125963  0.127341  0  3.963342  0
C  C66  1  0.64120469  0.35289594  0.48924244  1  0.538724  0  0.126572  0.127877  0  3.964114  0
C  C67  1  0.28889304  0.64693017  0.01076048  1  0.529504  0  0.125956  0.127363  0  3.963408  0
C  C68  1  0.51965697  0.75671880  0.67043723  1  1.641097  0  0.243954  0.626208  0  4.166224  0
C  C69  1  0.76296887  0.24375499  0.82960037  1  1.620551  0  0.243276  0.625997  0  4.167721  0
C  C70  1  0.48035189  0.24327245  0.32955969  1  1.641138  0  0.243934  0.626119  0  4.166227  0
C  C71  1  0.23702809  0.75624642  0.17040123  1  1.620801  0  0.243304  0.62582  0  4.167805  0
C  C72  1  0.06006194  0.36933014  0.56098371  1  1.607538  0  0.238401  0.621719  0  4.159783  0
C  C73  1  0.69084920  0.63134963  0.93913606  1  1.602128  0  0.238455  0.62256  0  4.160321  0
C  C74  1  0.93993649  0.63066572  0.43901550  1  1.607344  0  0.238399  0.621695  0  4.159581  0
C  C75  1  0.30915258  0.36865080  0.06086858  1  1.602105  0  0.238465  0.622604  0  4.160549  0
C  C76  1  0.39880836  0.71279666  0.45797950  1  1.632888  0  0.233803  0.609927  0  4.178891  0
C  C77  1  0.68521038  0.28720945  0.04197334  1  1.629932  0  0.233272  0.609827  0  4.177108  0
C  C78  1  0.60119738  0.28720110  0.54201768  1  1.633618  0  0.233905  0.610068  0  4.178787  0
C  C79  1  0.31478153  0.71278823  0.95802876  1  1.629869  0  0.233272  0.609868  0  4.177137  0
C  C80  1  0.44540232  0.31157127  0.70544663  1  0.471945  0  0.129301  0.125726  0  3.942714  0
C  C81  1  0.13330637  0.68859434  0.79476133  1  0.493427  0  0.129982  0.126663  0  3.945061  0
C  C82  1  0.55459722  0.68843104  0.29455642  1  0.471961  0  0.12921  0.125633  0  3.942849  0
C  C83  1  0.86669298  0.31141187  0.20523139  1  0.493946  0  0.12998  0.126681  0  3.945118  0
C  C84  1  0.28557522  0.27949370  0.70206801  1  -0.033892  0  -0.051843  -0.116478  0  3.817796  0
C  C85  1  0.00552078  0.72066944  0.79810942  1  -0.052986  0  -0.051781  -0.115223  0  3.818144  0
C  C86  1  0.71442254  0.72051145  0.29793266  1  -0.0338  0  -0.051858  -0.11652  0  3.817949  0
C  C87  1  0.99448148  0.27934048  0.20188415  1  -0.053161  0  -0.051753  -0.115304  0  3.818152  0
C  C88  1  0.18798186  0.15975395  0.67085790  1  0.026451  0  0.01017  0.012896  0  3.891515  0
C  C89  1  0.02769109  0.84046651  0.82927456  1  0.036876  0  0.010638  0.012553  0  3.893114  0
C  C90  1  0.81202089  0.84024842  0.32914157  1  0.026884  0  0.010238  0.013077  0  3.89155  0
C  C91  1  0.97230544  0.15953405  0.17072203  1  0.036251  0  0.010646  0.012641  0  3.893175  0
C  C92  1  0.25309837  0.07572839  0.64624423  1  -0.049749  0  -0.055627  -0.120529  0  3.862535  0
C  C93  1  0.17682139  0.92450915  0.85383849  1  -0.07799  0  -0.05604  -0.121236  0  3.864094  0
C  C94  1  0.74690435  0.92427394  0.35375792  1  -0.050386  0  -0.055689  -0.120687  0  3.862613  0
C  C95  1  0.82317533  0.07549603  0.14615994  1  -0.077548  0  -0.055944  -0.12122  0  3.864001  0
C  C96  1  0.41372235  0.11546504  0.65272031  1  0.549134  0  0.128233  0.133913  0  3.972528  0
C  C97  1  0.29773996  0.88476625  0.84738723  1  0.596187  0  0.128692  0.135229  0  3.971239  0
C  C98  1  0.58627978  0.88453821  0.34728239  1  0.549311  0  0.12834  0.13413  0  3.972273  0
C  C99  1  0.70225630  0.11523802  0.15261021  1  0.595863  0  0.128589  0.135145  0  3.971239  0
C  C100  1  0.56406820  0.44196067  0.73081132  1  1.641507  0  0.23701  0.613935  0  4.202318  0
C  C101  1  0.12190045  0.55833818  0.76928256  1  1.651927  0  0.236213  0.612986  0  4.202648  0
C  C102  1  0.43593466  0.55803979  0.26919153  1  1.641654  0  0.236828  0.613652  0  4.202382  0
C  C103  1  0.87809431  0.44166522  0.23071120  1  1.651576  0  0.236342  0.613192  0  4.202406  0
C  C104  1  0.01676273  0.12756002  0.65869158  1  1.61819  0  0.241787  0.648008  0  4.148568  0
C  C105  1  0.88876131  0.87275101  0.84140775  1  1.619306  0  0.241565  0.647623  0  4.149737  0
C  C106  1  0.98323968  0.87243955  0.34130848  1  1.618225  0  0.241692  0.647781  0  4.148778  0
C  C107  1  0.11123353  0.12725041  0.15859341  1  1.619244  0  0.241574  0.647637  0  4.149653  0
C  C108  1  0.49992414  0.04116876  0.62255448  1  1.551839  0  0.22944  0.590818  0  4.177984  0
C  C109  1  0.45835184  0.95913960  0.87746899  1  1.568152  0  0.228788  0.589413  0  4.178878  0
C  C110  1  0.50008010  0.95883447  0.37744956  1  1.551719  0  0.229395  0.590809  0  4.178011  0
C  C111  1  0.54164288  0.04086370  0.12253058  1  1.568087  0  0.228808  0.589421  0  4.178712  0
N  N112  1  0.45130388  0.70830198  0.56224177  1  -1.249709  0  -0.381501  -0.368546  0  3.582123  0
N  N113  1  0.74250372  0.29192024  0.93776766  1  -1.244041  0  -0.381145  -0.368955  0  3.58204  0
N  N114  1  0.54869821  0.29169483  0.43775665  1  -1.249724  0  -0.381421  -0.368379  0  3.582018  0
N  N115  1  0.25749278  0.70808025  0.06223340  1  -1.24435  0  -0.381147  -0.369012  0  3.582105  0
N  N116  1  0.50647938  0.23056536  0.68182496  1  -1.218592  0  -0.373265  -0.35381  0  3.550646  0
N  N117  1  0.27539918  0.76961616  0.81833538  1  -1.240739  0  -0.373147  -0.354918  0  3.550057  0
N  N118  1  0.49352154  0.76943974  0.31817883  1  -1.218918  0  -0.373219  -0.353787  0  3.550354  0
N  N119  1  0.72459663  0.23038720  0.18166062  1  -1.240519  0  -0.373208  -0.354971  0  3.550277  0
O  O120  1  0.75394686  0.07773192  0.50812986  1  -1.303874  0  -0.648391  -0.856819  0  2.053707  0
O  O121  1  0.67656839  0.92259067  0.99194009  1  -1.303193  0  -0.648851  -0.857124  0  2.054218  0
O  O122  1  0.24605707  0.92226857  0.49187120  1  -1.303827  0  -0.648356  -0.856833  0  2.053707  0
O  O123  1  0.32342884  0.07740702  0.00806111  1  -1.303194  0  -0.648775  -0.856992  0  2.05438  0
O  O124  1  0.78583839  0.74453877  0.57363563  1  -1.230864  0  -0.619554  -0.838146  0  2.045503  0
O  O125  1  0.04094757  0.25551994  0.92633593  1  -1.269368  0  -0.619523  -0.837387  0  2.045482  0
O  O126  1  0.21416311  0.25545899  0.42636155  1  -1.231239  0  -0.619483  -0.838031  0  2.045618  0
O  O127  1  0.95905193  0.74447593  0.07366284  1  -1.269395  0  -0.619508  -0.837392  0  2.045452  0
O  O128  1  0.85987328  0.87954544  0.48335714  1  -1.284135  0  -0.644358  -0.846307  0  2.118046  0
O  O129  1  0.98000976  0.12085244  0.01678589  1  -1.283685  0  -0.644323  -0.844719  0  2.119325  0
O  O130  1  0.14013814  0.12046155  0.51664462  1  -1.284051  0  -0.644368  -0.846392  0  2.117977  0
O  O131  1  0.01999186  0.87914343  0.98321287  1  -1.283491  0  -0.644336  -0.844682  0  2.119362  0
O  O132  1  0.63731749  0.84774602  0.66052512  1  -1.176786  0  -0.373361  -0.615031  0  2.200276  0
O  O133  1  0.78944322  0.15259611  0.83954112  1  -1.167195  0  -0.373246  -0.615566  0  2.201168  0
O  O134  1  0.36268651  0.15224612  0.33947414  1  -1.17679  0  -0.373358  -0.615015  0  2.200156  0
O  O135  1  0.21055176  0.84740345  0.16045983  1  -1.167207  0  -0.373248  -0.615542  0  2.201256  0
O  O136  1  0.47959345  0.73394767  0.72208519  1  -1.191911  0  -0.402154  -0.651473  0  2.329133  0
O  O137  1  0.74620966  0.26675895  0.77795157  1  -1.195902  0  -0.40169  -0.651285  0  2.331781  0
O  O138  1  0.52041386  0.26604259  0.27791476  1  -1.191987  0  -0.402139  -0.651349  0  2.329248  0
O  O139  1  0.25379506  0.73324524  0.22205079  1  -1.195942  0  -0.401753  -0.651214  0  2.331786  0
O  O140  1  0.99894546  0.35265837  0.61013826  1  -1.194735  0  -0.374628  -0.639466  0  2.335382  0
O  O141  1  0.64697632  0.64844285  0.88995979  1  -1.193371  0  -0.374423  -0.639995  0  2.337115  0
O  O142  1  0.00105418  0.64733567  0.38985851  1  -1.194776  0  -0.374673  -0.639543  0  2.335238  0
O  O143  1  0.35301937  0.35155389  0.11004265  1  -1.19329  0  -0.374499  -0.640093  0  2.337325  0
O  O144  1  0.01712422  0.28871485  0.50992592  1  -1.201338  0  -0.30451  -0.571529  0  2.192064  0
O  O145  1  0.72839126  0.71176139  0.99025529  1  -1.203814  0  -0.304709  -0.57125  0  2.192448  0
O  O146  1  0.98288046  0.71128290  0.49007171  1  -1.201275  0  -0.304507  -0.571526  0  2.191943  0
O  O147  1  0.27161205  0.28823998  0.00974855  1  -1.203642  0  -0.30469  -0.571252  0  2.1925  0
O  O148  1  0.30468655  0.66589023  0.41063092  1  -1.193097  0  -0.381424  -0.646471  0  2.309881  0
O  O149  1  0.63810349  0.33416169  0.08932372  1  -1.194722  0  -0.381304  -0.646465  0  2.310384  0
O  O150  1  0.69531755  0.33410849  0.58936413  1  -1.196137  0  -0.381397  -0.646446  0  2.309883  0
O  O151  1  0.36188598  0.66583323  0.91067629  1  -1.194613  0  -0.38128  -0.64653  0  2.310419  0
O  O152  1  0.52119334  0.81238104  0.46703537  1  -1.18021  0  -0.367627  -0.627022  0  2.254155  0
O  O153  1  0.70780246  0.18748575  0.03288897  1  -1.173797  0  -0.36731  -0.626935  0  2.254255  0
O  O154  1  0.47880842  0.18761300  0.53296141  1  -1.179808  0  -0.367712  -0.627155  0  2.254165  0
O  O155  1  0.29219171  0.81251008  0.96711203  1  -1.173776  0  -0.367321  -0.626929  0  2.254344  0
O  O156  1  0.70288328  0.46460494  0.71891944  1  -1.171403  0  -0.369907  -0.632347  0  2.278168  0
O  O157  1  0.23843450  0.53583596  0.78091847  1  -1.174735  0  -0.369845  -0.632511  0  2.276029  0
O  O158  1  0.29711214  0.53540401  0.28107627  1  -1.171443  0  -0.3699  -0.632221  0  2.278072  0
O  O159  1  0.76156509  0.46416647  0.21907743  1  -1.174329  0  -0.369852  -0.632579  0  2.276024  0
O  O160  1  0.51669021  0.51888769  0.76122562  1  -1.207279  0  -0.411292  -0.661827  0  2.354612  0
O  O161  1  0.99756745  0.48137727  0.73896147  1  -1.212907  0  -0.4111  -0.66105  0  2.357232  0
O  O162  1  0.48330779  0.48110518  0.23878626  1  -1.207307  0  -0.411166  -0.66168  0  2.354716  0
O  O163  1  0.00243165  0.51862420  0.26103656  1  -1.213227  0  -0.411185  -0.661192  0  2.357128  0
O  O164  1  0.95908933  0.19230027  0.69276733  1  -1.177951  0  -0.365281  -0.624645  0  2.271839  0
O  O165  1  0.76644988  0.80827028  0.80723754  1  -1.183412  0  -0.365458  -0.624676  0  2.272206  0
O  O166  1  0.04091639  0.80769743  0.30723342  1  -1.178005  0  -0.365253  -0.624553  0  2.271904  0
O  O167  1  0.23354191  0.19172927  0.19276431  1  -1.183371  0  -0.365421  -0.624652  0  2.272285  0
O  O168  1  0.94704998  0.03956095  0.61221103  1  -1.210783  0  -0.387581  -0.685888  0  2.271154  0
O  O169  1  0.90705691  0.96063470  0.88795495  1  -1.205825  0  -0.387423  -0.684996  0  2.27269  0
O  O170  1  0.05295350  0.96043862  0.38778903  1  -1.210766  0  -0.387549  -0.685804  0  2.271234  0
O  O171  1  0.09294112  0.03936673  0.11204531  1  -1.205747  0  -0.387502  -0.685076  0  2.272415  0
O  O172  1  0.43087602  0.93721140  0.58590768  1  -1.187553  0  -0.329102  -0.592758  0  2.263284  0
O  O173  1  0.49327099  0.06318901  0.91403480  1  -1.197145  0  -0.328623  -0.5915  0  2.263197  0
O  O174  1  0.56912504  0.06279184  0.41409592  1  -1.187468  0  -0.329197  -0.59288  0  2.263357  0
O  O175  1  0.50672717  0.93681055  0.08596616  1  -1.197077  0  -0.328674  -0.591615  0  2.263038  0
O  O176  1  0.64740888  0.08739823  0.63362417  1  -1.167496  0  -0.406632  -0.712085  0  2.412011  0
O  O177  1  0.55961934  0.91287049  0.86642773  1  -1.184436  0  -0.406607  -0.711974  0  2.413294  0
O  O178  1  0.35259418  0.91260687  0.36637918  1  -1.167349  0  -0.406545  -0.71206  0  2.412064  0
O  O179  1  0.44037260  0.08712725  0.13357124  1  -1.184535  0  -0.406561  -0.711857  0  2.413471  0
