# generated using pymatgen
data_Zr3H10C26O17F5
_symmetry_space_group_name_H-M   'P 1'
_cell_length_a   14.80123978
_cell_length_b   14.78202002
_cell_length_c   14.80444399
_cell_angle_alpha   59.96651023
_cell_angle_beta   59.92278477
_cell_angle_gamma   60.06027812
_symmetry_Int_Tables_number   1
_chemical_formula_structural   Zr3H10C26O17F5
_chemical_formula_sum   'Zr6 H20 C52 O34 F10'
_cell_volume   2289.50774847
_cell_formula_units_Z   2
loop_
 _symmetry_equiv_pos_site_id
 _symmetry_equiv_pos_as_xyz
  1  'x, y, z'
loop_
 _atom_site_type_symbol
 _atom_site_label
 _atom_site_symmetry_multiplicity
 _atom_site_fract_x
 _atom_site_fract_y
 _atom_site_fract_z
 _atom_site_occupancy
 _atom_site_pbe_bader_charge
 _atom_site_pbe_bader_spin_density
 _atom_site_pbe_cm5_charge
 _atom_site_pbe_ddec_charge
 _atom_site_pbe_ddec_spin_density
 _atom_site_pbe_ddec_sum_bond_order
 _atom_site_pbe_magmom
Zr  Zr0  1  0.87658070  0.88299250  0.62084094  1  2.638895  0  1.631939  2.376841  0  2.744337  0
Zr  Zr1  1  0.11633753  0.12271154  0.38382856  1  2.637246  0  1.630724  2.377928  0  2.745229  0
Zr  Zr2  1  0.11496121  0.88180717  0.62309407  1  2.635587  0  1.627689  2.375772  0  2.750689  0
Zr  Zr3  1  0.87823963  0.12321376  0.38210162  1  2.63128  0  1.625647  2.373985  0  2.74406  0
Zr  Zr4  1  0.11704340  0.88363667  0.38273705  1  2.635767  0  1.634075  2.378605  0  2.761626  0
Zr  Zr5  1  0.87667155  0.12172030  0.62283171  1  2.635153  0  1.625473  2.375864  0  2.735567  0
H  H6  1  0.09091938  0.72026744  0.59384846  1  0.623804  0  0.331272  0.421703  0  0.862233  0
H  H7  1  0.09393903  0.09639626  0.22006729  1  0.62137  0  0.330035  0.420542  0  0.863648  0
H  H8  1  0.08935155  0.09626080  0.59912432  1  0.616055  0  0.330683  0.423439  0  0.858548  0
H  H9  1  0.71423128  0.09745604  0.59585413  1  0.604383  0  0.331401  0.423545  0  0.857951  0
H  H10  1  0.15615060  0.56659860  0.39250398  1  0.143147  0  0.122918  0.153028  0  0.972156  0
H  H11  1  0.81367709  0.46956374  0.57576463  1  0.116509  0  0.120258  0.149416  0  0.980625  0
H  H12  1  0.60571701  0.12490778  0.93079248  1  0.140412  0  0.123041  0.156648  0  0.976677  0
H  H13  1  0.40804579  0.85978088  0.09463811  1  0.153205  0  0.124473  0.156814  0  0.973177  0
H  H14  1  0.81487346  0.07318124  0.14798853  1  0.126968  0  0.125113  0.160823  0  0.971944  0
H  H15  1  0.15402367  0.89017350  0.88993011  1  0.130524  0  0.127062  0.15801  0  0.965725  0
H  H16  1  0.59007770  0.41658903  0.35741010  1  0.15877  0  0.125766  0.158067  0  0.968408  0
H  H17  1  0.42505312  0.61013306  0.62580624  1  0.151536  0  0.125075  0.157064  0  0.971332  0
H  H18  1  0.97590409  0.57610397  0.73932057  1  0.108079  0  0.105093  0.131607  0  1.031866  0
H  H19  1  0.96808389  0.24219508  0.07992720  1  0.078377  0  0.099203  0.122087  0  1.059404  0
H  H20  1  0.03946006  0.48231306  0.14991100  1  0.076623  0  0.108763  0.116332  0  0.988566  0
H  H21  1  0.03876911  0.65194526  0.98032684  1  0.078474  0  0.10722  0.113583  0  0.989331  0
H  H22  1  0.59454839  0.85373867  0.63594049  1  0.168269  0  0.125353  0.158779  0  0.971013  0
H  H23  1  0.41971609  0.13014880  0.34802020  1  0.159008  0  0.125268  0.158221  0  0.972632  0
H  H24  1  0.95742713  0.34114100  0.74909604  1  0.626374  0  0.330968  0.368661  0  0.888863  0
H  H25  1  0.94849387  0.17447663  0.97655806  1  0.620963  0  0.307332  0.343241  0  0.957998  0
C  C26  1  0.98677652  0.70939111  0.49227516  1  1.583322  0  0.240188  0.659104  0  4.092343  0
C  C27  1  0.30657899  0.99955625  0.20617113  1  1.58266  0  0.238702  0.657581  0  4.094914  0
C  C28  1  0.99251187  0.31220743  0.49532193  1  1.568439  0  0.237314  0.656577  0  4.098106  0
C  C29  1  0.69826458  0.99459031  0.81022472  1  1.57321  0  0.239274  0.656924  0  4.092179  0
C  C30  1  0.99665636  0.69769131  0.80539402  1  1.533125  0  0.239192  0.651806  0  4.083995  0
C  C31  1  0.69957853  0.00087832  0.49202481  1  1.592821  0  0.237898  0.655814  0  4.096605  0
C  C32  1  0.99639793  0.30707910  0.19825871  1  1.548545  0  0.239014  0.651178  0  4.078364  0
C  C33  1  0.30409015  0.99392663  0.50227660  1  1.575732  0  0.237885  0.655467  0  4.096821  0
C  C34  1  0.30506428  0.70424914  0.49488676  1  1.582268  0  0.237561  0.655011  0  4.099  0
C  C35  1  0.98461463  0.99290816  0.81660846  1  1.592505  0  0.240417  0.658557  0  4.098692  0
C  C36  1  0.70088948  0.31288447  0.49809656  1  1.562194  0  0.239029  0.658029  0  4.094528  0
C  C37  1  0.99503989  0.99289787  0.20443766  1  1.603517  0  0.235124  0.650175  0  4.115311  0
C  C38  1  0.98912787  0.41921029  0.48598652  1  0.065521  0  -0.015562  -0.11773  0  3.95854  0
C  C39  1  0.98152143  0.61556498  0.48397576  1  0.054893  0  -0.01427  -0.114749  0  3.955771  0
C  C40  1  0.08401048  0.45030367  0.43292020  1  0.422529  0  0.104115  0.267692  0  4.046176  0
C  C41  1  0.88570452  0.58737564  0.53227553  1  0.473744  0  0.108885  0.276961  0  4.037932  0
C  C42  1  0.08076218  0.54610721  0.43165031  1  0.058066  0  -0.085336  -0.197724  0  3.9699  0
C  C43  1  0.88880843  0.49112389  0.53422993  1  0.055424  0  -0.085452  -0.198523  0  3.966334  0
C  C44  1  0.41120729  0.99602987  0.10893164  1  0.034083  0  -0.015185  -0.118318  0  3.955923  0
C  C45  1  0.60135847  0.98998361  0.91515632  1  0.079122  0  -0.014052  -0.115027  0  3.948959  0
C  C46  1  0.47015000  0.06889973  0.06149187  1  0.464086  0  0.108198  0.273526  0  4.036965  0
C  C47  1  0.54445812  0.91480861  0.96465332  1  0.460913  0  0.106574  0.269842  0  4.043786  0
C  C48  1  0.56252864  0.06657088  0.96664559  1  0.020439  0  -0.086495  -0.204168  0  3.967378  0
C  C49  1  0.45154173  0.91782576  0.05892383  1  0.015194  0  -0.085383  -0.200601  0  3.969326  0
C  C50  1  0.98016818  0.98380956  0.92421073  1  0.105559  0  -0.011694  -0.109705  0  3.942877  0
C  C51  1  0.99048411  0.98307050  0.11099385  1  0.065004  0  -0.016865  -0.124783  0  3.96595  0
C  C52  1  0.88494756  0.03177051  0.00057716  1  0.426891  0  0.109022  0.272592  0  4.040617  0
C  C53  1  0.08406146  0.92925788  0.03821238  1  0.411997  0  0.107549  0.269753  0  4.046302  0
C  C54  1  0.88945257  0.03272057  0.09162024  1  0.025714  0  -0.090677  -0.23124  0  3.985204  0
C  C55  1  0.07935640  0.92969968  0.94678862  1  0.02321  0  -0.080379  -0.192464  0  3.95514  0
C  C56  1  0.41008914  0.60760865  0.48979255  1  0.023499  0  -0.014246  -0.116655  0  3.952592  0
C  C57  1  0.60391001  0.41769928  0.49479165  1  0.013021  0  -0.014669  -0.11776  0  3.956259  0
C  C58  1  0.46002835  0.55189072  0.41368837  1  0.427688  0  0.107662  0.270817  0  4.04229  0
C  C59  1  0.55621554  0.47573078  0.56839658  1  0.470937  0  0.106701  0.268843  0  4.038071  0
C  C60  1  0.55428046  0.45913555  0.41616603  1  0.071393  0  -0.08503  -0.19988  0  3.968283  0
C  C61  1  0.46134735  0.56789764  0.56664986  1  0.047651  0  -0.084061  -0.197645  0  3.961379  0
C  C62  1  0.00119257  0.59267469  0.90175744  1  -0.024151  0  -0.01222  -0.077652  0  3.933588  0
C  C63  1  0.98567317  0.50274073  0.90545523  1  0.035031  0  -0.002731  0.068847  0  3.981488  0
C  C64  1  0.02285009  0.58376068  0.98746132  1  -0.006543  0  -0.087838  -0.100478  0  4.009657  0
C  C65  1  0.97805933  0.50327134  0.81333795  1  0.01161  0  -0.111921  -0.255696  0  3.965767  0
C  C66  1  0.97150884  0.41225299  0.81635490  1  0.493415  0  0.073733  0.227539  0  4.100439  0
C  C67  1  0.00062122  0.40292750  0.09273508  1  -0.030378  0  -0.012833  -0.078382  0  3.930587  0
C  C68  1  0.02300988  0.48904173  0.08240245  1  -0.036614  0  -0.087789  -0.103472  0  4.011851  0
C  C69  1  0.98417537  0.40601805  0.00378594  1  0.00209  0  -0.003732  0.074067  0  3.975346  0
C  C70  1  0.97333179  0.31478555  0.00553777  1  0.074106  0  -0.121195  -0.278954  0  4.010948  0
C  C71  1  0.96844799  0.31755700  0.91389195  1  0.385465  0  0.065267  0.203231  0  4.129545  0
C  C72  1  0.40965868  0.98906629  0.49783959  1  -0.056146  0  -0.01498  -0.118339  0  3.95403  0
C  C73  1  0.60297388  0.99654302  0.48772898  1  -0.026232  0  -0.015028  -0.118683  0  3.952261  0
C  C74  1  0.46256952  0.91073214  0.57691244  1  0.497122  0  0.105899  0.268806  0  4.041368  0
C  C75  1  0.55273632  0.07206641  0.40611044  1  0.447604  0  0.105193  0.267999  0  4.039735  0
C  C76  1  0.55641970  0.91443570  0.57256066  1  0.117821  0  -0.083973  -0.197308  0  3.964188  0
C  C77  1  0.45812584  0.06919893  0.41115073  1  0.059334  0  -0.084309  -0.197935  0  3.96331  0
O  O78  1  0.91332137  0.74438778  0.57278956  1  -1.172977  0  -0.351016  -0.61376  0  2.29381  0
O  O79  1  0.26404240  0.07806459  0.24398417  1  -1.170803  0  -0.354589  -0.613661  0  2.306294  0
O  O80  1  0.07070353  0.26892146  0.42194181  1  -1.167814  0  -0.357567  -0.616024  0  2.318394  0
O  O81  1  0.73666477  0.92069771  0.76763229  1  -1.16516  0  -0.354774  -0.6123  0  2.307554  0
O  O82  1  0.07127694  0.73961130  0.76843065  1  -1.175094  0  -0.360332  -0.625029  0  2.268586  0
O  O83  1  0.73757528  0.07961040  0.41814644  1  -1.17258  0  -0.357419  -0.619431  0  2.301548  0
O  O84  1  0.91919640  0.26687846  0.23941656  1  -1.183278  0  -0.362444  -0.623087  0  2.290013  0
O  O85  1  0.26092944  0.92040537  0.58126037  1  -1.167393  0  -0.357046  -0.61853  0  2.304802  0
O  O86  1  0.26241628  0.74214375  0.42124446  1  -1.16687  0  -0.356814  -0.616045  0  2.312876  0
O  O87  1  0.91210874  0.07444895  0.77450470  1  -1.167401  0  -0.348126  -0.610824  0  2.271488  0
O  O88  1  0.73773291  0.26967536  0.57736930  1  -1.166474  0  -0.356085  -0.616225  0  2.309072  0
O  O89  1  0.07435738  0.92124973  0.24100404  1  -1.168643  0  -0.351324  -0.606198  0  2.316856  0
O  O90  1  0.06495802  0.91989760  0.77405141  1  -1.178688  0  -0.3481  -0.607966  0  2.27518  0
O  O91  1  0.73752655  0.27294470  0.42247668  1  -1.172117  0  -0.347943  -0.607899  0  2.262081  0
O  O92  1  0.91959641  0.07365418  0.23813562  1  -1.185928  0  -0.342177  -0.609201  0  2.262814  0
O  O93  1  0.26494348  0.74057090  0.57403319  1  -1.176577  0  -0.346961  -0.607185  0  2.26492  0
O  O94  1  0.91938046  0.73910478  0.76606229  1  -1.168546  0  -0.349961  -0.611636  0  2.282521  0
O  O95  1  0.26402845  0.07337640  0.42710220  1  -1.177982  0  -0.346266  -0.60417  0  2.268565  0
O  O96  1  0.06962149  0.27107160  0.24087626  1  -1.171153  0  -0.348639  -0.612093  0  2.254259  0
O  O97  1  0.73499599  0.92619402  0.57181379  1  -1.17709  0  -0.346557  -0.605115  0  2.27839  0
O  O98  1  0.73431195  0.07424445  0.76998838  1  -1.175152  0  -0.350233  -0.608846  0  2.272464  0
O  O99  1  0.06830486  0.74368152  0.42056740  1  -1.178958  0  -0.350838  -0.611366  0  2.275078  0
O  O100  1  0.26589276  0.92445997  0.24228652  1  -1.174456  0  -0.350628  -0.610571  0  2.274216  0
O  O101  1  0.91775181  0.27188415  0.57642257  1  -1.179235  0  -0.346912  -0.609945  0  2.236704  0
O  O102  1  0.79446051  0.07082134  0.56892274  1  -1.229951  0  -0.691645  -1.069448  0  2.358511  0
O  O103  1  0.06253578  0.06949866  0.57244367  1  -1.244558  0  -0.691552  -1.071311  0  2.35239  0
O  O104  1  0.06516132  0.07007417  0.30029506  1  -1.249021  0  -0.694495  -1.072037  0  2.369128  0
O  O105  1  0.06364357  0.80053198  0.56848717  1  -1.253443  0  -0.695954  -1.073099  0  2.372841  0
O  O106  1  0.14509080  0.95324095  0.45388884  1  -1.198963  0  -0.791481  -1.153704  0  2.130173  0
O  O107  1  0.94742324  0.95401119  0.45168072  1  -1.201882  0  -0.790701  -1.151261  0  2.125546  0
O  O108  1  0.94733135  0.15115819  0.45364268  1  -1.197407  0  -0.790821  -1.14906  0  2.131982  0
O  O109  1  0.94627975  0.95282810  0.65084515  1  -1.199233  0  -0.790397  -1.149521  0  2.12892  0
O  O110  1  0.96747315  0.41085609  0.72715240  1  -1.131867  0  -0.345079  -0.429474  0  2.315617  0
O  O111  1  0.96108589  0.23371307  0.90512456  1  -1.160876  0  -0.36152  -0.461025  0  2.349726  0
F  F112  1  0.18398350  0.38443580  0.38503403  1  -0.630592  0  -0.099444  -0.135073  0  1.345912  0
F  F113  1  0.78629276  0.65409775  0.57966583  1  -0.628798  0  -0.095601  -0.132275  0  1.344574  0
F  F114  1  0.43855554  0.14457265  0.10684479  1  -0.623139  0  -0.094944  -0.12909  0  1.345913  0
F  F115  1  0.57715534  0.83755434  0.92088555  1  -0.621683  0  -0.094143  -0.127072  0  1.347685  0
F  F116  1  0.78528334  0.07972654  0.98686493  1  -0.620088  0  -0.088325  -0.123161  0  1.352912  0
F  F117  1  0.18389366  0.87907155  0.05192697  1  -0.61915  0  -0.09156  -0.124424  0  1.350143  0
F  F118  1  0.41686705  0.58565880  0.33564833  1  -0.624249  0  -0.095713  -0.130306  0  1.34829  0
F  F119  1  0.60134250  0.44338985  0.64447114  1  -0.623523  0  -0.093927  -0.129984  0  1.349733  0
F  F120  1  0.42279035  0.82884921  0.66188969  1  -0.628923  0  -0.097203  -0.131965  0  1.346638  0
F  F121  1  0.59491830  0.15158762  0.31906090  1  -0.62751  0  -0.097083  -0.133074  0  1.346957  0
