# generated using pymatgen
data_ZnH6C11NO4
_symmetry_space_group_name_H-M   'P 1'
_cell_length_a   10.63350133
_cell_length_b   11.91083275
_cell_length_c   16.03239301
_cell_angle_alpha   89.99993663
_cell_angle_beta   90.00027690
_cell_angle_gamma   89.99665307
_symmetry_Int_Tables_number   1
_chemical_formula_structural   ZnH6C11NO4
_chemical_formula_sum   'Zn2 H12 C22 N2 O8'
_cell_volume   2030.56439218
_cell_formula_units_Z   2
loop_
 _symmetry_equiv_pos_site_id
 _symmetry_equiv_pos_as_xyz
  1  'x, y, z'
loop_
 _atom_site_type_symbol
 _atom_site_label
 _atom_site_symmetry_multiplicity
 _atom_site_fract_x
 _atom_site_fract_y
 _atom_site_fract_z
 _atom_site_occupancy
 _atom_site_pbe_bader_charge
 _atom_site_pbe_bader_spin_density
 _atom_site_pbe_cm5_charge
 _atom_site_pbe_ddec_charge
 _atom_site_pbe_ddec_spin_density
 _atom_site_pbe_ddec_sum_bond_order
 _atom_site_pbe_magmom
Zn  Zn0  1  0.62807729  0.50004445  0.50000040  1  1.314932  0  0.681464  0.867158  0  2.435377  0
Zn  Zn1  1  0.37188040  0.50004927  0.50000186  1  1.336269  0  0.681497  0.867409  0  2.435115  0
H  H2  1  0.61201507  0.65170564  0.92708939  1  0.060382  0  0.094706  0.09355  0  0.976096  0
H  H3  1  0.70141380  0.52690753  0.07310790  1  0.042322  0  0.094048  0.092525  0  0.978216  0
H  H4  1  0.29686112  0.51158237  0.92691866  1  0.058077  0  0.093995  0.092371  0  0.97847  0
H  H5  1  0.70141597  0.52690773  0.92689560  1  0.042309  0  0.094051  0.092507  0  0.978233  0
H  H6  1  0.37401945  0.64272238  0.92704972  1  0.048811  0  0.094304  0.092654  0  0.977287  0
H  H7  1  0.61201478  0.65170627  0.07291247  1  0.060356  0  0.094691  0.093514  0  0.976141  0
H  H8  1  0.37401727  0.64272302  0.07294890  1  0.048792  0  0.094306  0.092648  0  0.977299  0
H  H9  1  0.59076047  0.33740637  0.07294438  1  0.037199  0  0.0952  0.093809  0  0.976083  0
H  H10  1  0.42492913  0.33119103  0.07292540  1  0.032784  0  0.095213  0.093663  0  0.976797  0
H  H11  1  0.59076171  0.33740573  0.92705892  1  0.03721  0  0.09522  0.093817  0  0.976051  0
H  H12  1  0.42493036  0.33119123  0.92707737  1  0.032831  0  0.095175  0.093611  0  0.976807  0
H  H13  1  0.29685989  0.51158301  0.07308044  1  0.058075  0  0.093981  0.092358  0  0.978511  0
C  C14  1  0.49998041  0.71939928  0.50000010  1  1.727714  0  0.222136  0.663528  0  4.238489  0
C  C15  1  0.50000131  0.49945760  0.33798383  1  1.635817  0  0.221765  0.686551  0  4.209789  0
C  C16  1  0.50000250  0.49945064  0.66201842  1  1.636329  0  0.221818  0.686723  0  4.209348  0
C  C17  1  0.49997570  0.94335087  0.49999814  1  -0.348745  0  -0.015828  0.020242  0  4.252017  0
C  C18  1  0.49995470  0.84062842  0.49999818  1  0.098735  0  -0.013098  -0.139248  0  3.860536  0
C  C19  1  0.06428369  0.50003860  0.50000324  1  0.944158  0  0.305236  0.295165  0  3.906586  0
C  C20  1  0.93567776  0.50003077  0.50000214  1  1.108498  0  0.305056  0.294617  0  3.907509  0
C  C21  1  0.49996600  0.28065666  0.49999966  1  1.725272  0  0.221768  0.662678  0  4.239265  0
C  C22  1  0.61545671  0.56567444  0.04826429  1  0.009161  0  -0.152978  -0.186222  0  3.850459  0
C  C23  1  0.37882188  0.55676503  0.04826704  1  -0.138457  0  -0.152915  -0.185524  0  3.851252  0
C  C24  1  0.61545624  0.56567376  0.95173641  1  -0.132809  0  -0.15297  -0.18616  0  3.850535  0
C  C25  1  0.50004704  0.49886623  0.75192391  1  0.144246  0  -0.063668  -0.223314  0  3.996888  0
C  C26  1  0.37882329  0.55676435  0.95173229  1  0.003428  0  -0.152924  -0.185538  0  3.851184  0
C  C27  1  0.49994907  0.05670422  0.49999912  1  -0.170854  0  -0.015812  0.019254  0  4.252068  0
C  C28  1  0.49994750  0.15944011  0.49999846  1  0.097791  0  -0.013304  -0.138535  0  3.860309  0
C  C29  1  0.50004332  0.49887332  0.24807835  1  0.144198  0  -0.063693  -0.223159  0  3.99673  0
C  C30  1  0.50001352  0.50022852  0.08174198  1  0.14564  0  0.000246  0.168094  0  3.900168  0
C  C31  1  0.50001563  0.50022621  0.91826027  1  0.145841  0  0.00025  0.168021  0  3.900369  0
C  C32  1  0.50579406  0.37810611  0.95171073  1  -0.093631  0  -0.151313  -0.183159  0  3.84151  0
C  C33  1  0.50579264  0.37810679  0.04829288  1  0.048286  0  -0.151339  -0.183273  0  3.841586  0
C  C34  1  0.50010185  0.49937075  0.82775725  1  -0.428718  0  -0.019714  -0.031806  0  4.032755  0
C  C35  1  0.50009758  0.49937376  0.17224500  1  -0.428679  0  -0.019658  -0.03187  0  4.032541  0
N  N36  1  0.17349607  0.50004506  0.50000092  1  -0.978065  0  -0.166548  -0.130059  0  2.940207  0
N  N37  1  0.82646162  0.50002766  0.50000196  1  -0.979209  0  -0.166379  -0.129738  0  2.941115  0
O  O38  1  0.60738877  0.67190533  0.50000154  1  -1.132366  0  -0.311846  -0.539563  0  2.245334  0
O  O39  1  0.39257336  0.67189903  0.50000120  1  -1.13329  0  -0.311842  -0.539656  0  2.244687  0
O  O40  1  0.60723610  0.49977977  0.37388132  1  -1.14919  0  -0.319111  -0.550098  0  2.253165  0
O  O41  1  0.39275360  0.49977177  0.37386227  1  -1.148309  0  -0.319286  -0.550237  0  2.252769  0
O  O42  1  0.60723796  0.49977622  0.62611940  1  -1.149205  0  -0.319132  -0.550177  0  2.252906  0
O  O43  1  0.39275452  0.49976571  0.62614026  1  -1.148786  0  -0.319312  -0.550249  0  2.252758  0
O  O44  1  0.60736835  0.32813928  0.50000043  1  -1.132907  0  -0.311699  -0.539372  0  2.245446  0
O  O45  1  0.39255293  0.32815564  0.50000009  1  -1.132243  0  -0.311759  -0.539507  0  2.245142  0
