# generated using pymatgen
data_ZnH5C9NO5
_symmetry_space_group_name_H-M   'P 1'
_cell_length_a   7.39730988
_cell_length_b   9.10399744
_cell_length_c   13.07162484
_cell_angle_alpha   104.00693571
_cell_angle_beta   95.56954372
_cell_angle_gamma   75.22867520
_symmetry_Int_Tables_number   1
_chemical_formula_structural   ZnH5C9NO5
_chemical_formula_sum   'Zn2 H10 C18 N2 O10'
_cell_volume   825.32055839
_cell_formula_units_Z   2
loop_
 _symmetry_equiv_pos_site_id
 _symmetry_equiv_pos_as_xyz
  1  'x, y, z'
loop_
 _atom_site_type_symbol
 _atom_site_label
 _atom_site_symmetry_multiplicity
 _atom_site_fract_x
 _atom_site_fract_y
 _atom_site_fract_z
 _atom_site_occupancy
 _atom_site_pbe_bader_charge
 _atom_site_pbe_bader_spin_density
 _atom_site_pbe_cm5_charge
 _atom_site_pbe_ddec_charge
 _atom_site_pbe_ddec_spin_density
 _atom_site_pbe_ddec_sum_bond_order
 _atom_site_pbe_magmom
Zn  Zn0  1  0.30083135  0.57530506  0.51264899  1  1.30772  0  0.686581  0.848853  0  2.35074  0
Zn  Zn1  1  0.69917527  0.42469934  0.48735375  1  1.307244  0  0.686473  0.848775  0  2.351087  0
H  H2  1  0.74065178  0.43780821  0.17062144  1  0.097294  0  0.107753  0.116864  0  0.997029  0
H  H3  1  0.29453933  0.88815396  0.36717288  1  0.098697  0  0.114439  0.059349  0  0.963171  0
H  H4  1  0.25933017  0.56218585  0.82938651  1  0.097387  0  0.107738  0.116812  0  0.997296  0
H  H5  1  0.14154199  0.55877993  0.18444172  1  0.101042  0  0.104598  0.111789  0  0.999892  0
H  H6  1  0.85845582  0.44122799  0.81555562  1  0.101178  0  0.104602  0.111757  0  0.999752  0
H  H7  1  0.89002634  0.41931655  0.00347418  1  0.041842  0  0.1029  0.103719  0  1.008092  0
H  H8  1  0.10996759  0.58069028  0.99652679  1  0.041839  0  0.102884  0.103608  0  1.008091  0
H  H9  1  0.08895889  0.34148415  0.46587877  1  0.499984  0  0.309508  0.265188  0  0.98498  0
H  H10  1  0.91104028  0.65851007  0.53411129  1  0.500028  0  0.309579  0.265205  0  0.985018  0
H  H11  1  0.70545256  0.11182545  0.63283494  1  0.098793  0  0.114367  0.059296  0  0.963425  0
C  C12  1  0.50672283  0.79693614  0.52460216  1  1.6157  0  0.218351  0.597536  0  4.200154  0
C  C13  1  0.26450542  0.53704896  0.13834678  1  -0.085003  0  -0.0881  -0.101824  0  4.00063  0
C  C14  1  0.39623207  0.53166119  0.86856771  1  -0.033482  0  -0.074867  -0.131671  0  3.922497  0
C  C15  1  0.60375089  0.46833319  0.13143028  1  -0.033376  0  -0.074924  -0.131674  0  3.92243  0
C  C16  1  0.40906779  0.52045243  0.97514813  1  -0.002323  0  -0.002969  0.079958  0  4.001358  0
C  C17  1  0.59091600  0.47952252  0.02484748  1  -0.047451  0  -0.002971  0.079845  0  4.00124  0
C  C18  1  0.55300923  0.94964039  0.52822215  1  0.032427  0  0.009817  -0.085796  0  3.829959  0
C  C19  1  0.44701408  0.05034854  0.47177446  1  -0.082527  0  0.009685  -0.086102  0  3.82999  0
C  C20  1  0.71862788  0.98656845  0.59508125  1  0.973728  0  0.116853  0.311771  0  3.905951  0
C  C21  1  0.28139486  0.01342744  0.40492287  1  0.973499  0  0.11677  0.31171  0  3.90575  0
C  C22  1  0.49325199  0.20307959  0.47539119  1  1.6156  0  0.218406  0.597646  0  4.199791  0
C  C23  1  0.53723424  0.51128681  0.69879308  1  1.555691  0  0.215751  0.595122  0  4.162752  0
C  C24  1  0.46272758  0.48873616  0.30120661  1  1.555743  0  0.215842  0.595258  0  4.162382  0
C  C25  1  0.44433594  0.49668953  0.18765503  1  -0.011599  0  -0.019509  -0.032993  0  3.987414  0
C  C26  1  0.55566673  0.50331269  0.81234508  1  -0.011977  0  -0.019424  -0.0328  0  3.987078  0
C  C27  1  0.75223777  0.45157986  0.96540987  1  0.025479  0  -0.087905  -0.132926  0  3.991866  0
C  C28  1  0.24775318  0.54840422  0.03458599  1  0.021833  0  -0.087879  -0.132791  0  3.991382  0
C  C29  1  0.73548188  0.46294751  0.86166619  1  -0.088116  0  -0.088132  -0.101818  0  4.001091  0
N  N30  1  0.97504388  0.43788276  0.48734694  1  -0.43231  0  -0.231401  -0.097481  0  3.173042  0
N  N31  1  0.02495667  0.56212426  0.51264734  1  -0.381814  0  -0.231433  -0.0974  0  3.17311  0
O  O32  1  0.33668824  0.79901253  0.53376455  1  -1.133277  0  -0.29989  -0.511087  0  2.264914  0
O  O33  1  0.14093116  0.11176600  0.38857715  1  -1.071191  0  -0.241829  -0.332665  0  2.140499  0
O  O34  1  0.66334092  0.20098987  0.46624959  1  -1.133055  0  -0.299988  -0.511276  0  2.264259  0
O  O35  1  0.64313783  0.67817553  0.51066221  1  -1.185917  0  -0.302272  -0.568546  0  2.380077  0
O  O36  1  0.35687990  0.32181382  0.48933270  1  -1.186046  0  -0.302196  -0.568414  0  2.380499  0
O  O37  1  0.37599891  0.57274233  0.66380763  1  -1.166614  0  -0.31682  -0.538127  0  2.343528  0
O  O38  1  0.62401039  0.42726328  0.33619762  1  -1.166211  0  -0.316946  -0.538279  0  2.342602  0
O  O39  1  0.68433449  0.45367395  0.64487352  1  -1.169242  0  -0.320849  -0.556907  0  2.335581  0
O  O40  1  0.31566961  0.54635179  0.35512863  1  -1.169634  0  -0.320761  -0.55682  0  2.336115  0
O  O41  1  0.85910779  0.88822945  0.61141748  1  -1.071586  0  -0.241835  -0.332666  0  2.140365  0
