# generated using pymatgen
data_MnH12C10(N3O4)2
_symmetry_space_group_name_H-M   'P 1'
_cell_length_a   7.32647750
_cell_length_b   11.85101428
_cell_length_c   13.32860090
_cell_angle_alpha   116.05983268
_cell_angle_beta   86.94184560
_cell_angle_gamma   90.01648059
_symmetry_Int_Tables_number   1
_chemical_formula_structural   MnH12C10(N3O4)2
_chemical_formula_sum   'Mn2 H24 C20 N12 O16'
_cell_volume   1037.79225738
_cell_formula_units_Z   2
loop_
 _symmetry_equiv_pos_site_id
 _symmetry_equiv_pos_as_xyz
  1  'x, y, z'
loop_
 _atom_site_type_symbol
 _atom_site_label
 _atom_site_symmetry_multiplicity
 _atom_site_fract_x
 _atom_site_fract_y
 _atom_site_fract_z
 _atom_site_occupancy
 _atom_site_pbe_cm5_charge
 _atom_site_pbe_ddec_charge
 _atom_site_pbe_ddec_spin_density
 _atom_site_pbe_ddec_sum_bond_order
 _atom_site_pbe_magmom
Mn  Mn0  1  0.49985854  0.50007798  0.50003478  1  0.670494  1.003591  4.435155  2.431673  4.26
Mn  Mn1  1  0.99639609  0.99970584  0.50003996  1  0.649791  0.986512  -4.615565  2.384644  -4.347
H  H2  1  0.44995523  0.29047873  0.57938684  1  0.120347  0.091391  0.000279  1.018123  0.0
H  H3  1  0.05368158  0.70999031  0.42014980  1  0.120394  0.091497  -0.000358  1.017072  0.0
H  H4  1  0.54988324  0.70953785  0.42065269  1  0.120157  0.091295  0.000281  1.018651  0.0
H  H5  1  0.95117158  0.28986611  0.57931847  1  0.120596  0.091654  -0.000291  1.016438  0.0
H  H6  1  0.45298218  0.26874697  0.75698015  1  0.111591  0.130252  0.000213  1.019507  0.0
H  H7  1  0.04400933  0.51127687  0.24350611  1  0.112873  0.13109  -0.000274  1.019597  0.0
H  H8  1  0.54693995  0.73126556  0.24303306  1  0.111473  0.130332  0.000214  1.019883  0.0
H  H9  1  0.95358382  0.48845003  0.75653789  1  0.112767  0.130586  -0.000291  1.02021  0.0
H  H10  1  0.53803328  0.66804796  0.93031387  1  0.112991  0.122457  7.9e-05  1.004895  0.0
H  H11  1  0.95885520  0.73686329  0.06812282  1  0.114748  0.12398  -0.000131  1.002705  0.0
H  H12  1  0.46193720  0.33196030  0.06971005  1  0.112988  0.122464  6e-05  1.005135  0.0
H  H13  1  0.04022286  0.26320602  0.93206673  1  0.114647  0.123943  -0.00017  1.002797  0.0
H  H14  1  0.53100034  0.67429598  0.74452120  1  0.120942  0.093757  0.0001  0.989082  0.0
H  H15  1  0.97202009  0.92798022  0.25306554  1  0.120908  0.09415  -0.0  0.988373  0.0
H  H16  1  0.46896190  0.32571708  0.25550464  1  0.120922  0.093795  9.8e-05  0.989064  0.0
H  H17  1  0.03259151  0.07205057  0.74663950  1  0.121461  0.093968  -8.8e-05  0.988098  0.0
H  H18  1  0.39436593  0.75193623  0.59423898  1  0.294937  0.378116  0.001336  0.966407  0.003
H  H19  1  0.10595057  0.15777473  0.40444509  1  0.294084  0.376972  -0.001358  0.967681  -0.003
H  H20  1  0.60561282  0.24822093  0.40579800  1  0.295309  0.378467  0.001342  0.965235  0.003
H  H21  1  0.89341343  0.84253736  0.59551354  1  0.294763  0.37819  -0.001311  0.965723  -0.003
H  H22  1  0.21168182  0.67921098  0.59770838  1  0.296697  0.386211  0.001605  0.952334  0.003
H  H23  1  0.28736629  0.08106111  0.40081466  1  0.295814  0.384333  -0.001586  0.954324  -0.003
H  H24  1  0.78824320  0.32107355  0.40236468  1  0.296871  0.386528  0.001597  0.952057  0.003
H  H25  1  0.70977026  0.91798862  0.59955922  1  0.295765  0.384566  -0.001623  0.95516  -0.003
C  C26  1  0.46980490  0.37203566  0.65835179  1  0.053147  0.111158  0.004342  3.919314  0.006
C  C27  1  0.03184537  0.71253328  0.34095052  1  0.056659  0.11393  -0.007616  3.913485  -0.005
C  C28  1  0.53013029  0.62798522  0.34167204  1  0.052982  0.110681  0.004212  3.919566  0.006
C  C29  1  0.97073601  0.28728186  0.65874515  1  0.05719  0.115509  -0.00625  3.911931  -0.004
C  C30  1  0.47085340  0.36010248  0.75736111  1  -0.073956  -0.182618  -0.013768  3.901308  -0.009
C  C31  1  0.02698138  0.60199855  0.24256191  1  -0.071875  -0.178661  -0.005728  3.895122  -0.003
C  C32  1  0.52910900  0.63991901  0.24266423  1  -0.074094  -0.182635  -0.013912  3.901667  -0.009
C  C33  1  0.97124809  0.39777300  0.75749083  1  -0.071411  -0.178175  -0.006668  3.89506  -0.004
C  C34  1  0.49444096  0.46725668  0.85785602  1  0.102146  0.203943  -0.002774  4.045908  0.001
C  C35  1  0.00275660  0.60926211  0.14209235  1  0.103889  0.202551  -0.0094  4.038929  -0.006
C  C36  1  0.50555917  0.53276065  0.14217564  1  0.102124  0.203909  -0.002755  4.045619  0.001
C  C37  1  0.99538385  0.39055264  0.85795454  1  0.103459  0.202764  -0.007493  4.037489  -0.004
C  C38  1  0.51842568  0.58328795  0.85388420  1  -0.079264  -0.189058  -0.017308  3.925035  -0.012
C  C39  1  0.97952743  0.72843680  0.14481721  1  -0.076185  -0.185775  -0.007931  3.923235  -0.006
C  C40  1  0.48154902  0.41671931  0.14613780  1  -0.079361  -0.189208  -0.017545  3.925086  -0.013
C  C41  1  0.01954119  0.27148876  0.85529821  1  -0.075902  -0.185855  -0.009082  3.921903  -0.007
C  C42  1  0.51558249  0.58658447  0.75162057  1  0.046906  0.10064  0.005918  3.957884  0.007
C  C43  1  0.98580737  0.83343348  0.24656022  1  0.05007  0.10276  -0.005807  3.954148  -0.004
C  C44  1  0.48438513  0.41342572  0.24840562  1  0.046697  0.100459  0.006014  3.957682  0.007
C  C45  1  0.01694819  0.16652467  0.75325593  1  0.049133  0.102304  -0.004689  3.95641  -0.003
N  N46  1  0.49127938  0.48321059  0.65459091  1  -0.329063  -0.25969  -0.004619  3.524141  -0.022
N  N47  1  0.01356898  0.82685751  0.34348621  1  -0.322385  -0.254965  -0.035644  3.509361  -0.017
N  N48  1  0.50867059  0.51680451  0.34543507  1  -0.329039  -0.259529  -0.004956  3.524015  -0.022
N  N49  1  0.99382757  0.17319556  0.65593012  1  -0.32175  -0.254957  -0.035742  3.514043  -0.018
N  N50  1  0.49141848  0.44939072  0.95518640  1  -0.158353  -0.149906  -0.043648  3.25346  -0.038
N  N51  1  0.00303403  0.49411649  0.04509440  1  -0.145132  -0.131651  -0.026957  3.244815  -0.023
N  N52  1  0.50859344  0.55063496  0.04485439  1  -0.158305  -0.149706  -0.043777  3.253675  -0.038
N  N53  1  0.99473895  0.50577788  0.95497361  1  -0.144783  -0.132011  -0.030509  3.242501  -0.027
N  N54  1  0.87479013  0.62976057  0.59236675  1  0.113143  0.721237  0.004171  4.417847  0.004
N  N55  1  0.62540220  0.03785379  0.40711175  1  0.113058  0.720049  -0.004967  4.417932  -0.005
N  N56  1  0.12517947  0.37070372  0.40765514  1  0.112121  0.706185  0.004147  4.437224  0.004
N  N57  1  0.37399219  0.96201088  0.59291806  1  0.111753  0.718905  -0.004356  4.418884  -0.005
O  O58  1  0.72506417  0.63770618  0.55036062  1  -0.17683  -0.450068  0.040078  2.101684  0.028
O  O59  1  0.77451363  0.08804011  0.44981275  1  -0.177826  -0.44875  -0.040205  2.103839  -0.026
O  O60  1  0.27482007  0.36243951  0.44961869  1  -0.17614  -0.444833  0.040097  2.1074  0.028
O  O61  1  0.22386673  0.91304051  0.55164010  1  -0.175387  -0.447648  -0.040064  2.099485  -0.027
O  O62  1  0.91220188  0.53939828  0.61156831  1  -0.150551  -0.402658  0.002185  2.000612  0.002
O  O63  1  0.58928891  0.92817188  0.38746698  1  -0.151046  -0.403414  -0.003041  1.994581  -0.003
O  O64  1  0.08820264  0.46121035  0.38855505  1  -0.150229  -0.398044  0.002223  2.007084  0.003
O  O65  1  0.41240103  0.07117909  0.61194246  1  -0.151186  -0.402346  -0.002233  1.994961  -0.002
O  O66  1  0.98549896  0.72052440  0.61420023  1  -0.17715  -0.446219  0.005864  2.031642  0.006
O  O67  1  0.51450199  0.10664997  0.38509868  1  -0.177008  -0.444357  -0.006383  2.028507  -0.007
O  O68  1  0.01416603  0.28013802  0.38577006  1  -0.177109  -0.440822  0.005862  2.037159  0.006
O  O69  1  0.48472230  0.89245494  0.61451115  1  -0.179293  -0.447832  -0.005867  2.032046  -0.006
O  O70  1  0.34727155  0.67005256  0.58757557  1  -0.57386  -0.773979  0.046611  2.19694  0.03
O  O71  1  0.15184524  0.08194134  0.41031859  1  -0.575769  -0.774896  -0.047687  2.190166  -0.031
O  O72  1  0.65259519  0.33003751  0.41244701  1  -0.573397  -0.773885  0.046423  2.197029  0.03
O  O73  1  0.84544013  0.91801959  0.58970796  1  -0.575168  -0.772932  -0.047721  2.193498  -0.029
