# generated using pymatgen
data_CdH2C2SIN3
_symmetry_space_group_name_H-M   'P 1'
_cell_length_a   8.28468233
_cell_length_b   11.08951845
_cell_length_c   14.33181518
_cell_angle_alpha   90.00012360
_cell_angle_beta   90.00002804
_cell_angle_gamma   89.99980766
_symmetry_Int_Tables_number   1
_chemical_formula_structural   CdH2C2SIN3
_chemical_formula_sum   'Cd8 H16 C16 S8 I8 N24'
_cell_volume   1316.70882874
_cell_formula_units_Z   8
loop_
 _symmetry_equiv_pos_site_id
 _symmetry_equiv_pos_as_xyz
  1  'x, y, z'
loop_
 _atom_site_type_symbol
 _atom_site_label
 _atom_site_symmetry_multiplicity
 _atom_site_fract_x
 _atom_site_fract_y
 _atom_site_fract_z
 _atom_site_occupancy
 _atom_site_hle17_bader_spin_density
 _atom_site_hle17_ddec_charge
 _atom_site_hle17_ddec_spin_density
 _atom_site_hle17_ddec_sum_bond_order
 _atom_site_hle17_magmom
 _atom_site_hse06_10hf_bader_spin_density
 _atom_site_hse06_10hf_ddec_charge
 _atom_site_hse06_10hf_ddec_spin_density
 _atom_site_hse06_10hf_ddec_sum_bond_order
 _atom_site_hse06_10hf_magmom
 _atom_site_hse06_bader_spin_density
 _atom_site_hse06_ddec_charge
 _atom_site_hse06_ddec_spin_density
 _atom_site_hse06_ddec_sum_bond_order
 _atom_site_hse06_magmom
 _atom_site_pbe_bader_spin_density
 _atom_site_pbe_cm5_charge
 _atom_site_pbe_ddec_charge
 _atom_site_pbe_ddec_spin_density
 _atom_site_pbe_ddec_sum_bond_order
 _atom_site_pbe_magmom
Cd  Cd0  1  0.80494926  0.18162278  0.67013241  1  0  0.777393  0  2.082211  0  0  0.6082  0  2.549517  0  0  0.654689  0  2.514656  0  0  0.533332  0.575659  0  2.572483  0
Cd  Cd1  1  0.69504954  0.31837659  0.17013025  1  0  0.777423  0  2.082191  0  0  0.60821  0  2.549535  0  0  0.654696  0  2.514671  0  0  0.533336  0.575664  0  2.572502  0
Cd  Cd2  1  0.80495030  0.81837473  0.82986637  1  0  0.777387  0  2.082183  0  0  0.608184  0  2.549511  0  0  0.65467  0  2.514653  0  0  0.53332  0.575638  0  2.572471  0
Cd  Cd3  1  0.69504999  0.68162522  0.32986887  1  0  0.777445  0  2.082197  0  0  0.608233  0  2.549535  0  0  0.654719  0  2.514675  0  0  0.53334  0.57569  0  2.572496  0
Cd  Cd4  1  0.19504861  0.81837570  0.32986891  1  0  0.777439  0  2.082181  0  0  0.608213  0  2.549552  0  0  0.6547  0  2.51469  0  0  0.533349  0.57567  0  2.572522  0
Cd  Cd5  1  0.30495075  0.68162279  0.82986688  1  0  0.777385  0  2.082199  0  0  0.608193  0  2.549501  0  0  0.654681  0  2.514641  0  0  0.533327  0.575648  0  2.57247  0
Cd  Cd6  1  0.19504878  0.18162375  0.17013285  1  0  0.77741  0  2.082129  0  0  0.608187  0  2.549483  0  0  0.654675  0  2.514622  0  0  0.533323  0.575642  0  2.572453  0
Cd  Cd7  1  0.30494789  0.31837686  0.67013175  1  0  0.777384  0  2.082181  0  0  0.608175  0  2.549504  0  0  0.654666  0  2.514642  0  0  0.533326  0.575635  0  2.572472  0
H  H8  1  0.16924046  0.98311447  0.54720648  1  0  0.299139  0  0.919831  0  0  0.274646  0  0.99733  0  0  0.283503  0  0.990432  0  0  0.286912  0.268313  0  1.002429  0
H  H9  1  0.33075866  0.51688774  0.04720664  1  0  0.299095  0  0.919892  0  0  0.274635  0  0.997326  0  0  0.28349  0  0.990437  0  0  0.286916  0.268302  0  1.002424  0
H  H10  1  0.16924041  0.01688462  0.95279351  1  0  0.299149  0  0.91983  0  0  0.27465  0  0.997332  0  0  0.283507  0  0.990433  0  0  0.286902  0.268316  0  1.00243  0
H  H11  1  0.33076133  0.48311407  0.45279376  1  0  0.299133  0  0.919852  0  0  0.274633  0  0.997367  0  0  0.28349  0  0.990468  0  0  0.286905  0.2683  0  1.002467  0
H  H12  1  0.83075741  0.01688761  0.45279484  1  0  0.299086  0  0.919874  0  0  0.274623  0  0.997315  0  0  0.283479  0  0.990424  0  0  0.286906  0.268289  0  1.002415  0
H  H13  1  0.66923921  0.48311344  0.95279328  1  0  0.299158  0  0.919838  0  0  0.274642  0  0.997349  0  0  0.2835  0  0.990449  0  0  0.286916  0.268308  0  1.002447  0
H  H14  1  0.83075988  0.98311386  0.04720501  1  0  0.299148  0  0.919803  0  0  0.274655  0  0.997305  0  0  0.28351  0  0.99041  0  0  0.286909  0.26832  0  1.002403  0
H  H15  1  0.66924258  0.51688260  0.54720546  1  0  0.299097  0  0.919877  0  0  0.274608  0  0.997368  0  0  0.283463  0  0.990475  0  0  0.286872  0.268276  0  1.002467  0
H  H16  1  0.38973562  0.87512588  0.64591897  1  0  0.105596  0  0.937782  0  0  0.113416  0  1.004424  0  0  0.116359  0  1.000521  0  0  0.130469  0.111179  0  1.007216  0
H  H17  1  0.11026479  0.62487842  0.14591995  1  0  0.105598  0  0.937748  0  0  0.113417  0  1.004382  0  0  0.11635  0  1.000508  0  0  0.130464  0.111167  0  1.007181  0
H  H18  1  0.38973500  0.12487627  0.85408248  1  0  0.105667  0  0.93769  0  0  0.113446  0  1.004381  0  0  0.116407  0  1.000462  0  0  0.13047  0.111198  0  1.007179  0
H  H19  1  0.11026545  0.37512575  0.35408179  1  0  0.10566  0  0.93771  0  0  0.113457  0  1.004387  0  0  0.116409  0  1.000473  0  0  0.130476  0.111207  0  1.00719  0
H  H20  1  0.61026467  0.12487982  0.35408095  1  0  0.105628  0  0.937763  0  0  0.113449  0  1.004385  0  0  0.116378  0  1.000522  0  0  0.130497  0.111202  0  1.007184  0
H  H21  1  0.88973429  0.37512547  0.85408137  1  0  0.105688  0  0.937675  0  0  0.113459  0  1.004379  0  0  0.116422  0  1.000454  0  0  0.130484  0.111211  0  1.007176  0
H  H22  1  0.61026529  0.87512491  0.14591883  1  0  0.105685  0  0.937672  0  0  0.113446  0  1.004385  0  0  0.11642  0  1.000446  0  0  0.130478  0.111195  0  1.007188  0
H  H23  1  0.88974208  0.62486642  0.64591813  1  0  0.105629  0  0.937766  0  0  0.113447  0  1.004406  0  0  0.116382  0  1.000526  0  0  0.130481  0.111197  0  1.007206  0
C  C24  1  0.00158064  0.91244448  0.64734305  1  0  0.365873  0  3.799427  0  0  0.329248  0  4.089752  0  0  0.348625  0  4.102269  0  0  0.203843  0.316205  0  4.081197  0
C  C25  1  0.49841736  0.58755440  0.14734408  1  0  0.365843  0  3.799273  0  0  0.329203  0  4.089637  0  0  0.348578  0  4.102153  0  0  0.203819  0.31616  0  4.081083  0
C  C26  1  0.00158019  0.08755322  0.85265550  1  0  0.365929  0  3.799422  0  0  0.329258  0  4.089814  0  0  0.348635  0  4.10233  0  0  0.203849  0.316213  0  4.081262  0
C  C27  1  0.49841905  0.41244699  0.35265568  1  0  0.365933  0  3.799357  0  0  0.329264  0  4.08975  0  0  0.348641  0  4.102263  0  0  0.203855  0.316217  0  4.081198  0
C  C28  1  0.99841723  0.08755670  0.35265687  1  0  0.365887  0  3.799443  0  0  0.329262  0  4.089773  0  0  0.34864  0  4.10229  0  0  0.203868  0.316219  0  4.081224  0
C  C29  1  0.50157931  0.41244588  0.85265654  1  0  0.365866  0  3.799474  0  0  0.329208  0  4.089801  0  0  0.348584  0  4.102318  0  0  0.203829  0.316164  0  4.081248  0
C  C30  1  0.99842010  0.91244435  0.14734372  1  0  0.365885  0  3.799375  0  0  0.329224  0  4.089763  0  0  0.348601  0  4.102278  0  0  0.203826  0.31618  0  4.081211  0
C  C31  1  0.50158365  0.58755239  0.64734285  1  0  0.365952  0  3.799353  0  0  0.329235  0  4.089839  0  0  0.348614  0  4.102353  0  0  0.203814  0.31619  0  4.081284  0
C  C32  1  0.26110909  0.87597010  0.65995346  1  0  0.235609  0  3.643533  0  0  0.169802  0  3.918146  0  0  0.185643  0  3.928021  0  0  0.155595  0.159487  0  3.911361  0
C  C33  1  0.23888892  0.62403153  0.15995378  1  0  0.23564  0  3.643472  0  0  0.169851  0  3.918096  0  0  0.185691  0  3.927959  0  0  0.155568  0.159546  0  3.911321  0
C  C34  1  0.26110846  0.12403057  0.84004795  1  0  0.235565  0  3.643545  0  0  0.169785  0  3.918144  0  0  0.185608  0  3.928008  0  0  0.155592  0.159484  0  3.911366  0
C  C35  1  0.23889198  0.37597051  0.34004730  1  0  0.235551  0  3.643543  0  0  0.169753  0  3.918161  0  0  0.185586  0  3.928031  0  0  0.155593  0.159451  0  3.911384  0
C  C36  1  0.73888878  0.12403289  0.34004646  1  0  0.235582  0  3.643502  0  0  0.169785  0  3.918127  0  0  0.185624  0  3.927988  0  0  0.155543  0.15948  0  3.911351  0
C  C37  1  0.76110774  0.37596965  0.84004754  1  0  0.235591  0  3.643451  0  0  0.16979  0  3.918041  0  0  0.185614  0  3.927906  0  0  0.155612  0.15949  0  3.911262  0
C  C38  1  0.73889063  0.87596971  0.15995197  1  0  0.235605  0  3.643418  0  0  0.169839  0  3.918022  0  0  0.185656  0  3.927881  0  0  0.155634  0.159536  0  3.911245  0
C  C39  1  0.76111435  0.62402526  0.65994983  1  0  0.235684  0  3.643471  0  0  0.16989  0  3.918087  0  0  0.18573  0  3.927956  0  0  0.15559  0.159585  0  3.91131  0
S  S40  1  0.81570105  0.96202718  0.61104774  1  0  -0.470943  0  2.205115  0  0  -0.432811  0  2.575188  0  0  -0.451752  0  2.566732  0  0  -0.219239  -0.41952  0  2.58117  0
S  S41  1  0.68429785  0.53797217  0.11104789  1  0  -0.470972  0  2.205103  0  0  -0.432817  0  2.575201  0  0  -0.451757  0  2.566742  0  0  -0.219234  -0.419527  0  2.581181  0
S  S42  1  0.81570205  0.03797031  0.88895174  1  0  -0.47098  0  2.205165  0  0  -0.432823  0  2.575268  0  0  -0.451764  0  2.566813  0  0  -0.219227  -0.419531  0  2.581251  0
S  S43  1  0.68429814  0.46202787  0.38895191  1  0  -0.470988  0  2.205092  0  0  -0.432826  0  2.575186  0  0  -0.451767  0  2.566728  0  0  -0.219233  -0.419533  0  2.58117  0
S  S44  1  0.18429803  0.03797220  0.38895358  1  0  -0.470993  0  2.205107  0  0  -0.432849  0  2.57521  0  0  -0.451792  0  2.566753  0  0  -0.219247  -0.419557  0  2.581197  0
S  S45  1  0.31570123  0.46202992  0.88895273  1  0  -0.470937  0  2.205151  0  0  -0.432808  0  2.575245  0  0  -0.451749  0  2.566789  0  0  -0.219233  -0.419516  0  2.581229  0
S  S46  1  0.18429944  0.96202817  0.11104748  1  0  -0.470981  0  2.20508  0  0  -0.432818  0  2.575174  0  0  -0.45176  0  2.566717  0  0  -0.219245  -0.419527  0  2.581159  0
S  S47  1  0.31570698  0.53797332  0.61104801  1  0  -0.471011  0  2.205154  0  0  -0.432823  0  2.575273  0  0  -0.451767  0  2.566816  0  0  -0.219228  -0.419528  0  2.581257  0
I  I48  1  0.99998110  0.32825364  0.55549739  1  0  -0.416628  0  1.260292  0  0  -0.361665  0  1.634783  0  0  -0.382505  0  1.61154  0  0  -0.214579  -0.346327  0  1.651126  0
I  I49  1  0.50001277  0.17174812  0.05549563  1  0  -0.416651  0  1.260299  0  0  -0.361688  0  1.634813  0  0  -0.382529  0  1.611577  0  0  -0.214584  -0.346352  0  1.651161  0
I  I50  1  0.99998170  0.67174519  0.94450284  1  0  -0.416628  0  1.260281  0  0  -0.361669  0  1.634778  0  0  -0.382508  0  1.611539  0  0  -0.214592  -0.346337  0  1.651118  0
I  I51  1  0.50001145  0.82825237  0.44450482  1  0  -0.416637  0  1.260286  0  0  -0.361682  0  1.634813  0  0  -0.382522  0  1.611569  0  0  -0.214588  -0.346352  0  1.651169  0
I  I52  1  0.00001074  0.67175025  0.44450602  1  0  -0.416653  0  1.260288  0  0  -0.361692  0  1.634803  0  0  -0.382528  0  1.61156  0  0  -0.21459  -0.346361  0  1.651156  0
I  I53  1  0.49998148  0.82825487  0.94450150  1  0  -0.416627  0  1.260285  0  0  -0.36166  0  1.634777  0  0  -0.382502  0  1.611538  0  0  -0.214583  -0.346323  0  1.651117  0
I  I54  1  0.00001739  0.32825419  0.05549569  1  0  -0.416645  0  1.260274  0  0  -0.36168  0  1.634791  0  0  -0.382517  0  1.611546  0  0  -0.214593  -0.346345  0  1.651132  0
I  I55  1  0.49998160  0.17174521  0.55549719  1  0  -0.416619  0  1.260282  0  0  -0.361668  0  1.634788  0  0  -0.382506  0  1.611547  0  0  -0.21458  -0.346327  0  1.651132  0
N  N56  1  0.02487926  0.84029534  0.72094637  1  0  -0.313187  0  3.099024  0  0  -0.252998  0  3.371745  0  0  -0.27104  0  3.390905  0  0  -0.255441  -0.241004  0  3.358593  0
N  N57  1  0.47512001  0.65970465  0.22094751  1  0  -0.31311  0  3.098828  0  0  -0.252915  0  3.371543  0  0  -0.270958  0  3.390704  0  0  -0.255371  -0.240921  0  3.358389  0
N  N58  1  0.02487962  0.15970230  0.77905289  1  0  -0.31315  0  3.098966  0  0  -0.252964  0  3.371707  0  0  -0.271006  0  3.390868  0  0  -0.255451  -0.240984  0  3.358596  0
N  N59  1  0.47512076  0.34029681  0.27905293  1  0  -0.313174  0  3.098932  0  0  -0.252969  0  3.371664  0  0  -0.27101  0  3.390819  0  0  -0.255457  -0.240987  0  3.358549  0
N  N60  1  0.97512103  0.15970494  0.27905285  1  0  -0.31318  0  3.098988  0  0  -0.252992  0  3.371714  0  0  -0.271037  0  3.390875  0  0  -0.255428  -0.240993  0  3.358554  0
N  N61  1  0.52487786  0.34029744  0.77905381  1  0  -0.313139  0  3.098951  0  0  -0.252954  0  3.37168  0  0  -0.270998  0  3.390841  0  0  -0.255447  -0.240971  0  3.358561  0
N  N62  1  0.97512067  0.84029618  0.22094704  1  0  -0.313113  0  3.09894  0  0  -0.252918  0  3.371669  0  0  -0.270959  0  3.390828  0  0  -0.2554  -0.240929  0  3.358533  0
N  N63  1  0.52488435  0.65970167  0.72094490  1  0  -0.313106  0  3.098941  0  0  -0.252909  0  3.371714  0  0  -0.27095  0  3.390873  0  0  -0.255421  -0.240927  0  3.358598  0
N  N64  1  0.18757354  0.81781356  0.72827413  1  0  -0.24266  0  3.209045  0  0  -0.177507  0  3.492856  0  0  -0.19443  0  3.512378  0  0  -0.253396  -0.166087  0  3.479289  0
N  N65  1  0.31242815  0.68218825  0.22827666  1  0  -0.242712  0  3.208991  0  0  -0.177553  0  3.492796  0  0  -0.194475  0  3.512316  0  0  -0.253437  -0.166135  0  3.47923  0
N  N66  1  0.18757138  0.18218729  0.77172587  1  0  -0.242678  0  3.209055  0  0  -0.17752  0  3.492864  0  0  -0.194445  0  3.512393  0  0  -0.253423  -0.166104  0  3.479295  0
N  N67  1  0.31242900  0.31781451  0.27172584  1  0  -0.242632  0  3.209029  0  0  -0.177482  0  3.492838  0  0  -0.194405  0  3.512361  0  0  -0.253389  -0.166064  0  3.479264  0
N  N68  1  0.81242796  0.18218942  0.27172440  1  0  -0.242673  0  3.208946  0  0  -0.177524  0  3.492764  0  0  -0.194444  0  3.512283  0  0  -0.253438  -0.166103  0  3.479194  0
N  N69  1  0.68757093  0.31781383  0.77172536  1  0  -0.242699  0  3.208973  0  0  -0.177552  0  3.492797  0  0  -0.194476  0  3.512326  0  0  -0.253435  -0.166135  0  3.479228  0
N  N70  1  0.81242891  0.81781209  0.22827545  1  0  -0.24278  0  3.208997  0  0  -0.177612  0  3.492795  0  0  -0.194535  0  3.512324  0  0  -0.253473  -0.166194  0  3.479226  0
N  N71  1  0.68757733  0.68218307  0.72827409  1  0  -0.24278  0  3.208952  0  0  -0.177641  0  3.492793  0  0  -0.194561  0  3.512313  0  0  -0.253446  -0.166221  0  3.479217  0
N  N72  1  0.14984939  0.93607647  0.60851340  1  0  -0.340175  0  3.401375  0  0  -0.270302  0  3.633324  0  0  -0.289058  0  3.6427  0  0  -0.367486  -0.257864  0  3.626968  0
N  N73  1  0.35014859  0.56392591  0.10851504  1  0  -0.340185  0  3.401583  0  0  -0.270349  0  3.633573  0  0  -0.289106  0  3.642954  0  0  -0.367468  -0.25791  0  3.627211  0
N  N74  1  0.14985027  0.06392177  0.89148659  1  0  -0.34027  0  3.401451  0  0  -0.270357  0  3.633378  0  0  -0.289113  0  3.642761  0  0  -0.367462  -0.257916  0  3.627015  0
N  N75  1  0.35015020  0.43607765  0.39148746  1  0  -0.340228  0  3.401411  0  0  -0.270334  0  3.63336  0  0  -0.289089  0  3.64274  0  0  -0.367476  -0.257893  0  3.627001  0
N  N76  1  0.85014970  0.06392562  0.39148583  1  0  -0.340149  0  3.401513  0  0  -0.270298  0  3.633468  0  0  -0.289053  0  3.642842  0  0  -0.367446  -0.257858  0  3.627109  0
N  N77  1  0.64984808  0.43607707  0.89148698  1  0  -0.340274  0  3.401477  0  0  -0.270304  0  3.633327  0  0  -0.289062  0  3.642709  0  0  -0.367471  -0.257862  0  3.626962  0
N  N78  1  0.85015002  0.93607581  0.10851333  1  0  -0.340221  0  3.401409  0  0  -0.270337  0  3.633353  0  0  -0.289094  0  3.642739  0  0  -0.367479  -0.257898  0  3.626991  0
N  N79  1  0.64985250  0.56391902  0.60851106  1  0  -0.340251  0  3.401498  0  0  -0.27035  0  3.633456  0  0  -0.289106  0  3.642837  0  0  -0.367419  -0.257909  0  3.627093  0
