# generated using pymatgen
data_CdH24C33(N4O3)2
_symmetry_space_group_name_H-M   'P 1'
_cell_length_a   9.96194290
_cell_length_b   9.96068801
_cell_length_c   16.53218225
_cell_angle_alpha   101.66808159
_cell_angle_beta   107.34930886
_cell_angle_gamma   93.17199382
_symmetry_Int_Tables_number   1
_chemical_formula_structural   CdH24C33(N4O3)2
_chemical_formula_sum   'Cd2 H48 C66 N16 O12'
_cell_volume   1521.68301016
_cell_formula_units_Z   2
loop_
 _symmetry_equiv_pos_site_id
 _symmetry_equiv_pos_as_xyz
  1  'x, y, z'
loop_
 _atom_site_type_symbol
 _atom_site_label
 _atom_site_symmetry_multiplicity
 _atom_site_fract_x
 _atom_site_fract_y
 _atom_site_fract_z
 _atom_site_occupancy
 _atom_site_pbe_bader_spin_density
 _atom_site_pbe_cm5_charge
 _atom_site_pbe_ddec_charge
 _atom_site_pbe_ddec_spin_density
 _atom_site_pbe_ddec_sum_bond_order
 _atom_site_pbe_magmom
Cd  Cd0  1  0.58421156  0.36464775  0.08046487  1  0  0.778699  0.798487  0  2.186532  0
Cd  Cd1  1  0.41578892  0.63535201  0.91953581  1  0  0.77871  0.798523  0  2.186487  0
H  H2  1  0.48519873  0.07624695  0.10495608  1  0  0.113323  0.087785  0  1.064769  0
H  H3  1  0.51480013  0.92374867  0.89504623  1  0  0.113333  0.087781  0  1.064761  0
H  H4  1  0.44965377  0.95607304  0.21610675  1  0  0.108037  0.120879  0  1.012991  0
H  H5  1  0.55035049  0.04392356  0.78389664  1  0  0.108046  0.120859  0  1.013037  0
H  H6  1  0.54101231  0.08202131  0.37449142  1  0  0.102269  0.097597  0  1.058692  0
H  H7  1  0.45899791  0.91798039  0.62551306  1  0  0.102251  0.097533  0  1.058729  0
H  H8  1  0.69023020  0.43011998  0.29437570  1  0  0.114004  0.076567  0  1.042434  0
H  H9  1  0.30977027  0.56987981  0.70562075  1  0  0.114003  0.07656  0  1.042447  0
H  H10  1  0.67100158  0.28816625  0.48661420  1  0  0.106873  0.064496  0  1.029106  0
H  H11  1  0.32900429  0.71183450  0.51338515  1  0  0.106854  0.064418  0  1.029194  0
H  H12  1  0.59039579  0.44298832  0.57340895  1  0  0.099196  0.105443  0  1.033385  0
H  H13  1  0.40960091  0.55701461  0.42658722  1  0  0.099189  0.105478  0  1.033335  0
H  H14  1  0.64723272  0.58891600  0.72218354  1  0  0.09468  0.096536  0  1.029747  0
H  H15  1  0.35276685  0.41108483  0.27781349  1  0  0.094707  0.096596  0  1.029822  0
H  H16  1  0.83304963  0.79382591  0.77307433  1  0  0.101623  0.106369  0  1.025185  0
H  H17  1  0.16694182  0.20617708  0.22692151  1  0  0.101628  0.106389  0  1.02511  0
H  H18  1  0.13748515  0.99851058  0.64353737  1  0  0.096435  0.099386  0  1.029044  0
H  H19  1  0.86251986  0.00148397  0.35646105  1  0  0.096426  0.099355  0  1.029071  0
H  H20  1  0.09383233  0.84051197  0.49874065  1  0  0.093736  0.086609  0  1.048397  0
H  H21  1  0.90617120  0.15947949  0.50125774  1  0  0.093762  0.086653  0  1.048276  0
H  H22  1  0.91846002  0.62927681  0.45164454  1  0  0.098112  0.096724  0  1.034928  0
H  H23  1  0.08154050  0.37071571  0.54835465  1  0  0.098088  0.09669  0  1.034982  0
H  H24  1  0.23111171  0.00249847  0.78753274  1  0  0.101969  0.054581  0  1.029594  0
H  H25  1  0.76888429  0.99749927  0.21246690  1  0  0.101951  0.054561  0  1.029615  0
H  H26  1  0.95892410  0.07755261  0.90918621  1  0  0.113893  0.119849  0  1.017916  0
H  H27  1  0.04107580  0.92244304  0.09081084  1  0  0.113918  0.119877  0  1.017882  0
H  H28  1  0.02803399  0.23358672  0.05650876  1  0  0.10665  0.120663  0  1.031431  0
H  H29  1  0.97196501  0.76640996  0.94348886  1  0  0.106638  0.120608  0  1.031482  0
H  H30  1  0.27975092  0.35159704  0.12337752  1  0  0.111087  0.078013  0  1.019395  0
H  H31  1  0.72024975  0.64839651  0.87662243  1  0  0.111083  0.077993  0  1.019382  0
H  H32  1  0.38525392  0.17217294  0.90577161  1  0  0.114605  0.088932  0  1.025287  0
H  H33  1  0.61473944  0.82783624  0.09422353  1  0  0.114598  0.08893  0  1.025261  0
H  H34  1  0.85981694  0.47238251  0.04714712  1  0  0.11731  0.090172  0  1.003499  0
H  H35  1  0.14017825  0.52762452  0.95285715  1  0  0.117323  0.090215  0  1.003579  0
H  H36  1  0.09691846  0.61476484  0.12144929  1  0  0.111537  0.123228  0  1.007172  0
H  H37  1  0.90308069  0.38523286  0.87855151  1  0  0.111517  0.123204  0  1.007269  0
H  H38  1  0.95751502  0.75476126  0.34374832  1  0  0.11105  0.116985  0  1.019994  0
H  H39  1  0.04249324  0.24524151  0.65625352  1  0  0.111098  0.117094  0  1.01986  0
H  H40  1  0.72051334  0.61772985  0.25702644  1  0  0.113481  0.085788  0  1.026715  0
H  H41  1  0.27949465  0.38227079  0.74298478  1  0  0.113477  0.085713  0  1.026767  0
H  H42  1  0.25830499  0.76625277  0.24254831  1  0  0.112115  0.077469  0  1.044037  0
H  H43  1  0.74170270  0.23374586  0.75745473  1  0  0.112139  0.077522  0  1.044028  0
H  H44  1  0.21334403  0.02921503  0.46888019  1  0  0.099352  0.101242  0  1.048171  0
H  H45  1  0.78665899  0.97078779  0.53112375  1  0  0.099345  0.101213  0  1.048186  0
H  H46  1  0.29351739  0.22880199  0.59635086  1  0  0.097556  0.097004  0  1.021298  0
H  H47  1  0.70648248  0.77120086  0.40365313  1  0  0.097582  0.097023  0  1.021351  0
H  H48  1  0.45116574  0.70143870  0.32442661  1  0  0.101735  0.111276  0  1.047742  0
H  H49  1  0.54883308  0.29856417  0.67557658  1  0  0.101707  0.111256  0  1.047705  0
C  C50  1  0.52333296  0.12784304  0.17376825  1  0  0.044991  0.088846  0  3.922235  0
C  C51  1  0.47666604  0.87215362  0.82623300  1  0  0.044973  0.088887  0  3.92235  0
C  C52  1  0.50470156  0.06090362  0.23662753  1  0  -0.081722  -0.118184  0  3.956012  0
C  C53  1  0.49530060  0.93909300  0.76337549  1  0  -0.081733  -0.118245  0  3.956108  0
C  C54  1  0.55517921  0.13067835  0.32378840  1  0  -0.061209  -0.066646  0  3.913618  0
C  C55  1  0.44482742  0.86932030  0.67621325  1  0  -0.061187  -0.066458  0  3.913603  0
C  C56  1  0.62329799  0.26623778  0.34621208  1  0  -0.004518  0.021468  0  4.014788  0
C  C57  1  0.37670473  0.73376301  0.65378671  1  0  -0.004463  0.021465  0  4.014856  0
C  C58  1  0.63801222  0.32507608  0.27875539  1  0  0.058449  0.076166  0  3.894583  0
C  C59  1  0.36199021  0.67492264  0.72124189  1  0  0.058406  0.076114  0  3.894451  0
C  C60  1  0.67394296  0.34537618  0.43647460  1  0  0.080976  0.096212  0  3.941646  0
C  C61  1  0.32605752  0.65462359  0.56352367  1  0  0.081022  0.096343  0  3.941542  0
C  C62  1  0.75209623  0.55226433  0.54121861  1  0  0.091412  0.164076  0  4.046249  0
C  C63  1  0.24790123  0.44773653  0.45877684  1  0  0.091374  0.1641  0  4.046406  0
C  C64  1  0.67724646  0.52700878  0.59667864  1  0  -0.096316  -0.167613  0  3.968791  0
C  C65  1  0.32274619  0.47299522  0.40331875  1  0  -0.09632  -0.167726  0  3.96894  0
C  C66  1  0.70786775  0.61221781  0.68053542  1  0  -0.099063  -0.077213  0  4.048147  0
C  C67  1  0.29212475  0.38778518  0.31945941  1  0  -0.099043  -0.077218  0  4.048203  0
C  C68  1  0.81068856  0.72529595  0.70905274  1  0  -0.092541  -0.123107  0  3.971576  0
C  C69  1  0.18930709  0.27470699  0.29094446  1  0  -0.092556  -0.123087  0  3.971548  0
C  C70  1  0.88689213  0.75689243  0.65386919  1  0  -0.003686  0.01525  0  3.941585  0
C  C71  1  0.11310247  0.24311052  0.34612721  1  0  -0.00376  0.015087  0  3.941638  0
C  C72  1  0.99169311  0.87600907  0.68104059  1  0  0.093748  0.170161  0  4.038012  0
C  C73  1  0.00830436  0.12399178  0.31895667  1  0  0.093797  0.170229  0  4.03798  0
C  C74  1  0.06190306  0.90528266  0.62408864  1  0  -0.100478  -0.184736  0  3.991829  0
C  C75  1  0.93809880  0.09471192  0.37590984  1  0  -0.100453  -0.184676  0  3.991877  0
C  C76  1  0.03564510  0.81649663  0.54155629  1  0  -0.098226  -0.076006  0  4.049639  0
C  C77  1  0.96435872  0.18349688  0.45844422  1  0  -0.098302  -0.076117  0  4.049627  0
C  C78  1  0.93813036  0.69942122  0.51488049  1  0  -0.096582  -0.133681  0  3.995736  0
C  C79  1  0.06187164  0.30057439  0.48511874  1  0  -0.09651  -0.133567  0  3.995777  0
C  C80  1  0.85987655  0.66883667  0.56918485  1  0  -0.00401  0.014071  0  3.952304  0
C  C81  1  0.14011987  0.33116419  0.43081162  1  0  -0.004022  0.014046  0  3.952428  0
C  C82  1  0.13788331  0.02073653  0.80953239  1  0  0.076999  0.092196  0  3.962327  0
C  C83  1  0.86211162  0.97926125  0.19046282  1  0  0.076938  0.092133  0  3.962352  0
C  C84  1  0.16655814  0.11338868  0.89491536  1  0  -0.009493  0.011347  0  4.024607  0
C  C85  1  0.83343527  0.88661325  0.10508010  1  0  -0.0095  0.011365  0  4.024749  0
C  C86  1  0.06576486  0.13194103  0.93873996  1  0  -0.051294  -0.038022  0  3.884299  0
C  C87  1  0.93423322  0.86805671  0.06125763  1  0  -0.051264  -0.037945  0  3.884251  0
C  C88  1  0.10500621  0.21864040  0.02139007  1  0  -0.082909  -0.121512  0  3.952898  0
C  C89  1  0.89499250  0.78135420  0.97860966  1  0  -0.082931  -0.12155  0  3.953092  0
C  C90  1  0.24365695  0.28414912  0.05819012  1  0  0.044132  0.089186  0  3.935131  0
C  C91  1  0.75634114  0.71584860  0.94180868  1  0  0.044138  0.089281  0  3.935225  0
C  C92  1  0.30288098  0.18439435  0.93677695  1  0  0.049353  0.061842  0  3.900404  0
C  C93  1  0.69711572  0.81560859  0.06321923  1  0  0.049339  0.061858  0  3.900517  0
C  C94  1  0.88493768  0.53748434  0.11240066  1  0  0.049174  0.110662  0  3.933523  0
C  C95  1  0.11506128  0.46251955  0.88760390  1  0  0.049106  0.110473  0  3.933702  0
C  C96  1  0.01687576  0.61493614  0.15428377  1  0  -0.071672  -0.157277  0  3.908198  0
C  C97  1  0.98312363  0.38507086  0.84571944  1  0  -0.071637  -0.15718  0  3.908258  0
C  C98  1  0.04757063  0.69228067  0.23991189  1  0  0.014166  0.115039  0  3.989452  0
C  C99  1  0.95242938  0.30772323  0.76008983  1  0  0.01417  0.115105  0  3.989408  0
C  C100  1  0.93909304  0.69357376  0.27805791  1  0  -0.073762  -0.150251  0  3.916164  0
C  C101  1  0.06090577  0.30642910  0.72194529  1  0  -0.073805  -0.150501  0  3.91607  0
C  C102  1  0.80883412  0.61652219  0.23073028  1  0  0.039035  0.072423  0  3.963379  0
C  C103  1  0.19116723  0.38348373  0.76927556  1  0  0.039112  0.072713  0  3.96323  0
C  C104  1  0.19052812  0.76451108  0.28419145  1  0  0.083689  0.091262  0  3.902637  0
C  C105  1  0.80947580  0.23549069  0.71581192  1  0  0.083631  0.091164  0  3.902611  0
C  C106  1  0.38197465  0.86337042  0.40486244  1  0  0.090379  0.154542  0  4.054116  0
C  C107  1  0.61802598  0.13663035  0.59514142  1  0  0.090465  0.154773  0  4.053964  0
C  C108  1  0.42554151  0.98029575  0.47766339  1  0  -0.009049  -0.003205  0  3.977022  0
C  C109  1  0.57445730  0.01970711  0.52234041  1  0  -0.009075  -0.003294  0  3.976964  0
C  C110  1  0.32550143  0.05745639  0.50525831  1  0  -0.091226  -0.126843  0  3.97482  0
C  C111  1  0.67450068  0.94254747  0.49474559  1  0  -0.091222  -0.126796  0  3.974644  0
C  C112  1  0.37076081  0.16835208  0.57629859  1  0  -0.092006  -0.063441  0  4.025948  0
C  C113  1  0.62923983  0.83164869  0.42370588  1  0  -0.092038  -0.063472  0  4.026052  0
C  C114  1  0.48406563  0.79189748  0.37870385  1  0  -0.094473  -0.176276  0  3.965543  0
C  C115  1  0.51593438  0.20810641  0.62129908  1  0  -0.094492  -0.17635  0  3.965304  0
N  N116  1  0.58924901  0.25821877  0.19496398  1  0  -0.331739  -0.241143  0  3.53047  0
N  N117  1  0.41075524  0.74177785  0.80503578  1  0  -0.331743  -0.241193  0  3.530369  0
N  N118  1  0.71812643  0.47529075  0.45572011  1  0  -0.305578  -0.282828  0  3.375417  0
N  N119  1  0.28187300  0.52470904  0.54427737  1  0  -0.305596  -0.282846  0  3.375223  0
N  N120  1  0.01308070  0.96092968  0.76328033  1  0  -0.302747  -0.271659  0  3.360202  0
N  N121  1  0.98691930  0.03907424  0.23671837  1  0  -0.302675  -0.271613  0  3.360055  0
N  N122  1  0.34115576  0.26791929  0.01647921  1  0  -0.331008  -0.236861  0  3.516183  0
N  N123  1  0.65883870  0.73208264  0.98351644  1  0  -0.330973  -0.236936  0  3.516344  0
N  N124  1  0.78229735  0.53619734  0.14988470  1  0  -0.323767  -0.227908  0  3.471958  0
N  N125  1  0.21770329  0.46380340  0.85012339  1  0  -0.323785  -0.227922  0  3.471973  0
N  N126  1  0.23715115  0.81687904  0.36676467  1  0  -0.298181  -0.267458  0  3.342801  0
N  N127  1  0.76284751  0.18312281  0.63323414  1  0  -0.298142  -0.267486  0  3.342758  0
N  N128  1  0.72222930  0.14409873  0.00074095  1  0  0.091032  0.713136  0  4.435695  0
N  N129  1  0.27777237  0.85590205  0.99925947  1  0  0.090987  0.713065  0  4.435803  0
N  N130  1  0.42281621  0.61413340  0.13234547  1  0  0.100839  0.702457  0  4.429767  0
N  N131  1  0.57718174  0.38586330  0.86765256  1  0  0.100821  0.702625  0  4.429881  0
O  O132  1  0.58961486  0.13279478  0.99238059  1  0  -0.19981  -0.461003  0  2.09145  0
O  O133  1  0.41038620  0.86720910  0.00762132  1  0  -0.199815  -0.460996  0  2.091499  0
O  O134  1  0.77060503  0.05630187  0.95587446  1  0  -0.158446  -0.396582  0  1.992954  0
O  O135  1  0.22939397  0.94369480  0.04412618  1  0  -0.158427  -0.396542  0  1.992989  0
O  O136  1  0.80116566  0.24795275  0.05664975  1  0  -0.205394  -0.475998  0  2.019336  0
O  O137  1  0.19883811  0.75204803  0.94334802  1  0  -0.20537  -0.475952  0  2.019271  0
O  O138  1  0.45672035  0.57170320  0.06262629  1  0  -0.206648  -0.46119  0  2.177871  0
O  O139  1  0.54328643  0.42829649  0.93737431  1  0  -0.206672  -0.461295  0  2.17785  0
O  O140  1  0.46939870  0.55575096  0.19475809  1  0  -0.185396  -0.448878  0  1.979929  0
O  O141  1  0.53059099  0.44424685  0.80523982  1  0  -0.185455  -0.448993  0  1.979878  0
O  O142  1  0.34620526  0.70863540  0.13604456  1  0  -0.164772  -0.406926  0  2.00727  0
O  O143  1  0.65378953  0.29136136  0.86394869  1  0  -0.164668  -0.406885  0  2.007542  0
