# generated using pymatgen
data_CdH5C5N2ClO3
_symmetry_space_group_name_H-M   'P 1'
_cell_length_a   6.02407808
_cell_length_b   9.99249309
_cell_length_c   12.97544850
_cell_angle_alpha   89.99954037
_cell_angle_beta   90.00023637
_cell_angle_gamma   92.72188485
_symmetry_Int_Tables_number   1
_chemical_formula_structural   CdH5C5N2ClO3
_chemical_formula_sum   'Cd4 H20 C20 N8 Cl4 O12'
_cell_volume   780.18318004
_cell_formula_units_Z   4
loop_
 _symmetry_equiv_pos_site_id
 _symmetry_equiv_pos_as_xyz
  1  'x, y, z'
loop_
 _atom_site_type_symbol
 _atom_site_label
 _atom_site_symmetry_multiplicity
 _atom_site_fract_x
 _atom_site_fract_y
 _atom_site_fract_z
 _atom_site_occupancy
 _atom_site_hle17_bader_spin_density
 _atom_site_hle17_ddec_charge
 _atom_site_hle17_ddec_spin_density
 _atom_site_hle17_ddec_sum_bond_order
 _atom_site_hle17_magmom
 _atom_site_hse06_10hf_bader_spin_density
 _atom_site_hse06_10hf_ddec_charge
 _atom_site_hse06_10hf_ddec_spin_density
 _atom_site_hse06_10hf_ddec_sum_bond_order
 _atom_site_hse06_10hf_magmom
 _atom_site_hse06_bader_spin_density
 _atom_site_hse06_ddec_charge
 _atom_site_hse06_ddec_spin_density
 _atom_site_hse06_ddec_sum_bond_order
 _atom_site_hse06_magmom
 _atom_site_pbe_bader_spin_density
 _atom_site_pbe_cm5_charge
 _atom_site_pbe_ddec_charge
 _atom_site_pbe_ddec_spin_density
 _atom_site_pbe_ddec_sum_bond_order
 _atom_site_pbe_magmom
Cd  Cd0  1  0.60920900  0.68792101  0.49680519  1  0  1.146256  0  1.719029  0  0  0.964571  0  2.163696  0  0  1.019287  0  2.11284  0  0  0.730986  0.924386  0  2.19911  0
Cd  Cd1  1  0.39078675  0.81207577  0.99680736  1  0  1.146251  0  1.71899  0  0  0.964564  0  2.163687  0  0  1.019291  0  2.112811  0  0  0.73099  0.924379  0  2.199104  0
Cd  Cd2  1  0.39079053  0.31207796  0.50319436  1  0  1.146198  0  1.719081  0  0  0.96449  0  2.163785  0  0  1.019205  0  2.112925  0  0  0.730958  0.924301  0  2.199203  0
Cd  Cd3  1  0.60920268  0.18792117  0.00319142  1  0  1.14623  0  1.71901  0  0  0.964552  0  2.163669  0  0  1.019272  0  2.112806  0  0  0.731003  0.924365  0  2.199088  0
H  H4  1  0.01990681  0.15024905  0.34899173  1  0  0.098334  0  0.938963  0  0  0.103727  0  1.004825  0  0  0.106802  0  1.001215  0  0  0.11671  0.101375  0  1.007535  0
H  H5  1  0.98009211  0.34976458  0.84897938  1  0  0.098229  0  0.939097  0  0  0.103713  0  1.004899  0  0  0.106813  0  1.001261  0  0  0.11667  0.101362  0  1.007606  0
H  H6  1  0.98007079  0.84974485  0.65101475  1  0  0.098252  0  0.939187  0  0  0.103696  0  1.005031  0  0  0.106849  0  1.001325  0  0  0.116714  0.101346  0  1.007737  0
H  H7  1  0.01992819  0.65024648  0.15101785  1  0  0.098289  0  0.939109  0  0  0.103768  0  1.004934  0  0  0.106917  0  1.001232  0  0  0.116721  0.101418  0  1.007642  0
H  H8  1  0.94216882  0.91951366  0.27270773  1  0  0.125762  0  0.949671  0  0  0.130988  0  1.013119  0  0  0.13461  0  1.012559  0  0  0.107829  0.128251  0  1.013915  0
H  H9  1  0.05782991  0.58050647  0.77270682  1  0  0.125767  0  0.949768  0  0  0.131005  0  1.01321  0  0  0.134628  0  1.012642  0  0  0.107843  0.12826  0  1.014028  0
H  H10  1  0.05780553  0.08048123  0.72729182  1  0  0.125801  0  0.949876  0  0  0.131  0  1.013347  0  0  0.134627  0  1.012769  0  0  0.107826  0.128261  0  1.014145  0
H  H11  1  0.94219717  0.41950662  0.22729504  1  0  0.125815  0  0.949856  0  0  0.131006  0  1.013314  0  0  0.134629  0  1.012748  0  0  0.10784  0.128269  0  1.014112  0
H  H12  1  0.18299720  0.73401276  0.33413281  1  0  0.088787  0  0.921954  0  0  0.095529  0  0.986148  0  0  0.097511  0  0.98359  0  0  0.121416  0.094004  0  0.988148  0
H  H13  1  0.81698652  0.76599868  0.83413376  1  0  0.088753  0  0.921818  0  0  0.09547  0  0.986058  0  0  0.097454  0  0.983493  0  0  0.121435  0.093945  0  0.988054  0
H  H14  1  0.81697658  0.26597411  0.66586366  1  0  0.088751  0  0.922046  0  0  0.095499  0  0.986213  0  0  0.09749  0  0.983644  0  0  0.121452  0.093969  0  0.988208  0
H  H15  1  0.18303558  0.23401439  0.16586270  1  0  0.088726  0  0.922003  0  0  0.09551  0  0.986148  0  0  0.097491  0  0.983597  0  0  0.121441  0.093981  0  0.988142  0
H  H16  1  0.46038661  0.56161098  0.68203988  1  0  0.40421  0  0.896896  0  0  0.37396  0  0.96604  0  0  0.384079  0  0.951572  0  0  0.262709  0.366501  0  0.97675  0
H  H17  1  0.53961967  0.93838607  0.18204375  1  0  0.4042  0  0.896887  0  0  0.373947  0  0.966051  0  0  0.384065  0  0.951583  0  0  0.262733  0.366489  0  0.976758  0
H  H18  1  0.53962197  0.43837500  0.31795735  1  0  0.404144  0  0.896945  0  0  0.373919  0  0.966081  0  0  0.384041  0  0.951612  0  0  0.2627  0.366454  0  0.976802  0
H  H19  1  0.46038159  0.06161392  0.81795734  1  0  0.404143  0  0.897031  0  0  0.373925  0  0.966104  0  0  0.384045  0  0.951636  0  0  0.262686  0.366461  0  0.97682  0
H  H20  1  0.44372742  0.71665571  0.70992359  1  0  0.398436  0  0.912978  0  0  0.366605  0  0.980773  0  0  0.377149  0  0.965545  0  0  0.255281  0.359016  0  0.991768  0
H  H21  1  0.55626082  0.78334099  0.20992305  1  0  0.398446  0  0.91295  0  0  0.366595  0  0.980785  0  0  0.377141  0  0.965551  0  0  0.255301  0.359006  0  0.991778  0
H  H22  1  0.55629997  0.28331431  0.29007133  1  0  0.398417  0  0.912923  0  0  0.366578  0  0.980742  0  0  0.37713  0  0.965503  0  0  0.255263  0.358986  0  0.991739  0
H  H23  1  0.44371104  0.21666591  0.79007110  1  0  0.398481  0  0.912864  0  0  0.366656  0  0.980647  0  0  0.377206  0  0.965408  0  0  0.255329  0.359065  0  0.991644  0
C  C24  1  0.40677256  0.98639084  0.46325071  1  0  0.315713  0  3.759772  0  0  0.292146  0  4.013704  0  0  0.3055  0  4.029011  0  0  0.25483  0.283146  0  4.003278  0
C  C25  1  0.59322631  0.51360730  0.96325125  1  0  0.315791  0  3.759634  0  0  0.292243  0  4.01355  0  0  0.305598  0  4.028852  0  0  0.254839  0.283241  0  4.003125  0
C  C26  1  0.59319776  0.01359402  0.53674575  1  0  0.315435  0  3.759618  0  0  0.291913  0  4.013503  0  0  0.305262  0  4.028808  0  0  0.254853  0.282906  0  4.003082  0
C  C27  1  0.40681031  0.48639981  0.03674445  1  0  0.315427  0  3.759559  0  0  0.291933  0  4.013435  0  0  0.305282  0  4.028738  0  0  0.25486  0.28293  0  4.00301  0
C  C28  1  0.11835787  0.06540882  0.36924804  1  0  0.198593  0  3.626808  0  0  0.162848  0  3.882498  0  0  0.173668  0  3.897625  0  0  0.072043  0.156036  0  3.871745  0
C  C29  1  0.88163955  0.43460459  0.86923806  1  0  0.198609  0  3.626808  0  0  0.162739  0  3.882633  0  0  0.173539  0  3.897751  0  0  0.072039  0.155929  0  3.871876  0
C  C30  1  0.88162297  0.93458409  0.63076076  1  0  0.198646  0  3.626788  0  0  0.162797  0  3.882529  0  0  0.173561  0  3.897638  0  0  0.071981  0.155985  0  3.871773  0
C  C31  1  0.11838442  0.56541149  0.13076303  1  0  0.19859  0  3.626497  0  0  0.162672  0  3.882342  0  0  0.173446  0  3.897443  0  0  0.071999  0.155859  0  3.871591  0
C  C32  1  0.07478324  0.93835427  0.32835270  1  0  -0.14112  0  3.639516  0  0  -0.155436  0  3.896415  0  0  -0.166763  0  3.91608  0  0  -0.068858  -0.147997  0  3.883092  0
C  C33  1  0.92521247  0.56166327  0.82834895  1  0  -0.141154  0  3.639661  0  0  -0.155483  0  3.896648  0  0  -0.166806  0  3.916322  0  0  -0.068854  -0.148048  0  3.883323  0
C  C34  1  0.92520265  0.06163965  0.67164916  1  0  -0.141125  0  3.639823  0  0  -0.155427  0  3.896714  0  0  -0.166757  0  3.916409  0  0  -0.06881  -0.147985  0  3.883381  0
C  C35  1  0.07480810  0.43835180  0.17165907  1  0  -0.141172  0  3.639488  0  0  -0.155412  0  3.896412  0  0  -0.166743  0  3.916107  0  0  -0.068875  -0.147975  0  3.883096  0
C  C36  1  0.20821032  0.83662998  0.36135778  1  0  0.232872  0  3.644161  0  0  0.194638  0  3.907478  0  0  0.207831  0  3.919231  0  0  0.083782  0.185981  0  3.899424  0
C  C37  1  0.79178005  0.66337820  0.86135932  1  0  0.233107  0  3.643997  0  0  0.194901  0  3.907322  0  0  0.208098  0  3.919072  0  0  0.083779  0.186246  0  3.899264  0
C  C38  1  0.79177356  0.16335893  0.63864023  1  0  0.232825  0  3.644198  0  0  0.194628  0  3.907453  0  0  0.207817  0  3.919216  0  0  0.083699  0.18598  0  3.899387  0
C  C39  1  0.20823194  0.33663284  0.13863869  1  0  0.232917  0  3.644068  0  0  0.194661  0  3.907355  0  0  0.207849  0  3.919118  0  0  0.083769  0.186015  0  3.899288  0
C  C40  1  0.08022527  0.56381695  0.50205729  1  0  0.546122  0  3.911888  0  0  0.498296  0  4.206712  0  0  0.528982  0  4.199975  0  0  0.1986  0.477193  0  4.210567  0
C  C41  1  0.91976539  0.93619291  0.00205420  1  0  0.546065  0  3.911702  0  0  0.498106  0  4.206738  0  0  0.52879  0  4.199999  0  0  0.198467  0.477003  0  4.210587  0
C  C42  1  0.91977539  0.43622209  0.49794765  1  0  0.545731  0  3.912426  0  0  0.497772  0  4.207379  0  0  0.528453  0  4.200665  0  0  0.198332  0.476668  0  4.211226  0
C  C43  1  0.08021953  0.06378698  0.99795305  1  0  0.545789  0  3.912246  0  0  0.497905  0  4.207166  0  0  0.528589  0  4.200438  0  0  0.198381  0.476801  0  4.211006  0
N  N44  1  0.37381353  0.86078370  0.42878444  1  0  -0.384927  0  3.187211  0  0  -0.322636  0  3.452579  0  0  -0.343211  0  3.466152  0  0  -0.309683  -0.308726  0  3.44345  0
N  N45  1  0.62618201  0.63921879  0.92878888  1  0  -0.385066  0  3.187072  0  0  -0.32276  0  3.452418  0  0  -0.343335  0  3.465987  0  0  -0.309675  -0.308848  0  3.443289  0
N  N46  1  0.62616399  0.13920920  0.57120972  1  0  -0.384674  0  3.186787  0  0  -0.32239  0  3.452121  0  0  -0.342965  0  3.465699  0  0  -0.309561  -0.308477  0  3.442988  0
N  N47  1  0.37384291  0.36078728  0.07120835  1  0  -0.384765  0  3.18693  0  0  -0.322486  0  3.452279  0  0  -0.34306  0  3.465858  0  0  -0.309613  -0.308573  0  3.443144  0
N  N48  1  0.28449259  0.08942405  0.43690898  1  0  -0.373991  0  3.171297  0  0  -0.30865  0  3.432125  0  0  -0.329759  0  3.448883  0  0  -0.310238  -0.294171  0  3.420259  0
N  N49  1  0.71551312  0.41058068  0.93690346  1  0  -0.37401  0  3.171288  0  0  -0.308679  0  3.432193  0  0  -0.329789  0  3.448964  0  0  -0.31022  -0.294198  0  3.420327  0
N  N50  1  0.71549109  0.91056185  0.56309211  1  0  -0.374063  0  3.171352  0  0  -0.308701  0  3.432192  0  0  -0.329818  0  3.448981  0  0  -0.310317  -0.29422  0  3.420329  0
N  N51  1  0.28451576  0.58943442  0.06309532  1  0  -0.374005  0  3.171165  0  0  -0.30868  0  3.432086  0  0  -0.329794  0  3.448869  0  0  -0.310343  -0.294197  0  3.420222  0
Cl  Cl52  1  0.69432465  0.63671318  0.30036983  1  0  -0.616995  0  0.859635  0  0  -0.552873  0  1.098938  0  0  -0.571261  0  1.078265  0  0  -0.289614  -0.539005  0  1.113548  0
Cl  Cl53  1  0.30566398  0.86327758  0.80037229  1  0  -0.616978  0  0.859621  0  0  -0.552894  0  1.098944  0  0  -0.571278  0  1.078274  0  0  -0.289604  -0.539026  0  1.113553  0
Cl  Cl54  1  0.30565772  0.36327772  0.69962201  1  0  -0.616993  0  0.859734  0  0  -0.552919  0  1.099079  0  0  -0.571302  0  1.078401  0  0  -0.289607  -0.539053  0  1.113689  0
Cl  Cl55  1  0.69433874  0.13671940  0.19962032  1  0  -0.617007  0  0.859778  0  0  -0.552918  0  1.099132  0  0  -0.571303  0  1.07845  0  0  -0.289607  -0.539051  0  1.113742  0
O  O56  1  0.00083243  0.67475107  0.52327695  1  0  -0.591977  0  2.068431  0  0  -0.53899  0  2.320263  0  0  -0.565402  0  2.312824  0  0  -0.315615  -0.520444  0  2.324497  0
O  O57  1  0.99918274  0.82525065  0.02327855  1  0  -0.592111  0  2.068061  0  0  -0.539032  0  2.319859  0  0  -0.565489  0  2.312501  0  0  -0.315603  -0.520471  0  2.324075  0
O  O58  1  0.99917950  0.32528301  0.47672645  1  0  -0.591829  0  2.068486  0  0  -0.538764  0  2.320317  0  0  -0.565185  0  2.3129  0  0  -0.315425  -0.520206  0  2.324526  0
O  O59  1  0.00081525  0.17472629  0.97672717  1  0  -0.591894  0  2.068458  0  0  -0.538846  0  2.320229  0  0  -0.56528  0  2.31284  0  0  -0.315463  -0.520287  0  2.324446  0
O  O60  1  0.28354197  0.54458476  0.48244898  1  0  -0.630908  0  2.168196  0  0  -0.552894  0  2.425139  0  0  -0.58419  0  2.41664  0  0  -0.322796  -0.530203  0  2.429526  0
O  O61  1  0.71646411  0.95541922  0.98245936  1  0  -0.630666  0  2.168425  0  0  -0.55266  0  2.425459  0  0  -0.583937  0  2.416957  0  0  -0.322679  -0.52999  0  2.429888  0
O  O62  1  0.71645585  0.45543725  0.51753978  1  0  -0.63064  0  2.168484  0  0  -0.552588  0  2.425504  0  0  -0.583883  0  2.417016  0  0  -0.322711  -0.529912  0  2.429921  0
O  O63  1  0.28353811  0.04457075  0.01753633  1  0  -0.630675  0  2.168482  0  0  -0.552604  0  2.425376  0  0  -0.583884  0  2.416876  0  0  -0.322715  -0.529945  0  2.429828  0
O  O64  1  0.53259055  0.65169486  0.67180419  1  0  -0.815063  0  1.947892  0  0  -0.751687  0  2.13567  0  0  -0.774702  0  2.105585  0  0  -0.58738  -0.735193  0  2.157217  0
O  O65  1  0.46740936  0.84830728  0.17180616  1  0  -0.815068  0  1.947847  0  0  -0.751667  0  2.135646  0  0  -0.774689  0  2.105575  0  0  -0.587425  -0.735173  0  2.157191  0
O  O66  1  0.46742543  0.34827812  0.32820923  1  0  -0.814976  0  1.947835  0  0  -0.751688  0  2.135686  0  0  -0.774676  0  2.105515  0  0  -0.587373  -0.735185  0  2.157239  0
O  O67  1  0.53258444  0.15170470  0.82819878  1  0  -0.815057  0  1.947935  0  0  -0.751711  0  2.13557  0  0  -0.774735  0  2.10549  0  0  -0.587424  -0.735211  0  2.157122  0
