# generated using pymatgen
data_CdPH13C15N2O5
_symmetry_space_group_name_H-M   'P 1'
_cell_length_a   8.20649976
_cell_length_b   9.33362896
_cell_length_c   21.85323124
_cell_angle_alpha   89.99806237
_cell_angle_beta   89.99985170
_cell_angle_gamma   90.99414427
_symmetry_Int_Tables_number   1
_chemical_formula_structural   CdPH13C15N2O5
_chemical_formula_sum   'Cd4 P4 H52 C60 N8 O20'
_cell_volume   1673.62739618
_cell_formula_units_Z   4
loop_
 _symmetry_equiv_pos_site_id
 _symmetry_equiv_pos_as_xyz
  1  'x, y, z'
loop_
 _atom_site_type_symbol
 _atom_site_label
 _atom_site_symmetry_multiplicity
 _atom_site_fract_x
 _atom_site_fract_y
 _atom_site_fract_z
 _atom_site_occupancy
 _atom_site_pbe_bader_charge
 _atom_site_pbe_bader_spin_density
 _atom_site_pbe_cm5_charge
 _atom_site_pbe_ddec_charge
 _atom_site_pbe_ddec_spin_density
 _atom_site_pbe_ddec_sum_bond_order
 _atom_site_pbe_magmom
Cd  Cd0  1  0.71583790  0.62661628  0.83039561  1  1.279172  0  0.784885  0.925092  0  2.17789  0
Cd  Cd1  1  0.28417800  0.87336073  0.33039356  1  1.279069  0  0.7849  0.925133  0  2.177494  0
Cd  Cd2  1  0.28419273  0.37336587  0.16960886  1  1.279056  0  0.784919  0.92515  0  2.177842  0
Cd  Cd3  1  0.71581535  0.12663097  0.66959489  1  1.278886  0  0.784983  0.925254  0  2.178202  0
P  P4  1  0.48173355  0.86909396  0.75811455  1  3.313958  0  0.346655  1.313703  0  5.292343  0
P  P5  1  0.51825496  0.63090778  0.25811246  1  3.314949  0  0.346874  1.314825  0  5.292995  0
P  P6  1  0.51824652  0.13090023  0.24188122  1  3.314037  0  0.346853  1.314481  0  5.292345  0
P  P7  1  0.48173844  0.36908499  0.74188285  1  3.313854  0  0.346782  1.314147  0  5.293102  0
H  H8  1  0.52958777  0.65890456  0.72025134  1  0.64579  0  0.30598  0.390325  0  0.949408  0
H  H9  1  0.47045132  0.84106350  0.22024728  1  0.645838  0  0.306094  0.39033  0  0.949359  0
H  H10  1  0.47040920  0.34106345  0.27974259  1  0.645984  0  0.306034  0.390428  0  0.949262  0
H  H11  1  0.52956623  0.15890183  0.77974254  1  0.645821  0  0.306106  0.390424  0  0.94921  0
H  H12  1  0.22780464  0.91883305  0.80645494  1  0.102239  0  0.105991  0.145016  0  0.988893  0
H  H13  1  0.77224213  0.58114829  0.30646350  1  0.1016  0  0.106021  0.144989  0  0.988588  0
H  H14  1  0.77224982  0.08113884  0.19354678  1  0.101921  0  0.105854  0.144818  0  0.988946  0
H  H15  1  0.22775202  0.41885840  0.69355103  1  0.10206  0  0.105938  0.144911  0  0.98889  0
H  H16  1  0.20809698  0.92474284  0.72613201  1  0.04715  0  0.099274  0.131054  0  1.020248  0
H  H17  1  0.79194569  0.57526435  0.22612552  1  0.047002  0  0.099193  0.13093  0  1.020205  0
H  H18  1  0.79190639  0.07525397  0.27387886  1  0.047001  0  0.099232  0.130935  0  1.020225  0
H  H19  1  0.20808506  0.42471995  0.77388352  1  0.046852  0  0.099249  0.130994  0  1.020164  0
H  H20  1  0.27286744  0.64429442  0.79299454  1  0.055885  0  0.100413  0.105126  0  1.027599  0
H  H21  1  0.72713247  0.85570529  0.29299790  1  0.055756  0  0.100391  0.105122  0  1.027891  0
H  H22  1  0.72712766  0.35568436  0.20699208  1  0.055807  0  0.100393  0.105151  0  1.027719  0
H  H23  1  0.27286753  0.14429696  0.70700564  1  0.055935  0  0.100402  0.105193  0  1.027645  0
H  H24  1  0.19964149  0.66391116  0.71822619  1  0.026608  0  0.097141  0.105431  0  0.997507  0
H  H25  1  0.80035719  0.83609350  0.21823184  1  0.026701  0  0.097097  0.105392  0  0.997624  0
H  H26  1  0.80032142  0.33608132  0.28176226  1  0.026886  0  0.097173  0.105507  0  0.997656  0
H  H27  1  0.19964171  0.16391093  0.78177033  1  0.026529  0  0.097109  0.105422  0  0.997608  0
H  H28  1  0.87236714  0.30105994  0.80910406  1  0.119257  0  0.123498  0.09968  0  0.999416  0
H  H29  1  0.12761719  0.19888560  0.30910282  1  0.118964  0  0.123489  0.099572  0  0.999614  0
H  H30  1  0.12763275  0.69894017  0.19089857  1  0.119119  0  0.123481  0.099605  0  0.999525  0
H  H31  1  0.87235713  0.80106905  0.69088517  1  0.119411  0  0.123553  0.0996  0  0.999873  0
H  H32  1  0.98541202  0.09984170  0.86977975  1  0.162448  0  0.116994  0.132667  0  0.987829  0
H  H33  1  0.01457886  0.40015674  0.36976571  1  0.162265  0  0.116979  0.132733  0  0.987885  0
H  H34  1  0.01459761  0.90015816  0.13022974  1  0.162428  0  0.116958  0.132709  0  0.987964  0
H  H35  1  0.98538822  0.59984530  0.63022503  1  0.162678  0  0.116819  0.132448  0  0.987866  0
H  H36  1  0.98594463  0.11951131  0.98541697  1  0.059413  0  0.108456  0.105486  0  0.99649  0
H  H37  1  0.01403114  0.38050400  0.48540825  1  0.059624  0  0.108327  0.105376  0  0.996382  0
H  H38  1  0.01406925  0.88052276  0.01458841  1  0.059177  0  0.108359  0.105284  0  0.996426  0
H  H39  1  0.98594471  0.61947957  0.51459210  1  0.059198  0  0.108296  0.105159  0  0.99639  0
H  H40  1  0.90476578  0.25786063  0.08007982  1  0.151103  0  0.106185  0.127837  0  1.032951  0
H  H41  1  0.09523652  0.24214889  0.58007443  1  0.151143  0  0.106165  0.127868  0  1.032903  0
H  H42  1  0.09525773  0.74217105  0.91993150  1  0.151123  0  0.106215  0.128016  0  1.032755  0
H  H43  1  0.90477478  0.75785951  0.41991173  1  0.150918  0  0.106228  0.128049  0  1.032793  0
H  H44  1  0.76178170  0.46194328  0.12459190  1  0.101597  0  0.106496  0.110006  0  1.017418  0
H  H45  1  0.23822329  0.03806690  0.62459267  1  0.101678  0  0.106519  0.110083  0  1.017361  0
H  H46  1  0.23820014  0.53808411  0.87542263  1  0.101801  0  0.106495  0.110023  0  1.017707  0
H  H47  1  0.76178152  0.96193416  0.37540402  1  0.101661  0  0.10647  0.110028  0  1.017433  0
H  H48  1  0.60079780  0.68841568  0.11127647  1  0.114079  0  0.111663  0.126169  0  1.006289  0
H  H49  1  0.39921033  0.81162947  0.61128596  1  0.114506  0  0.111707  0.126278  0  1.006611  0
H  H50  1  0.39918584  0.31159986  0.88872753  1  0.114515  0  0.111635  0.126187  0  1.006339  0
H  H51  1  0.60077337  0.18838715  0.38871667  1  0.114681  0  0.11173  0.126355  0  1.006378  0
H  H52  1  0.48903767  0.87078190  0.04003774  1  0.075577  0  0.110425  0.116795  0  0.991342  0
H  H53  1  0.51099450  0.62922649  0.54005423  1  0.075042  0  0.110403  0.116785  0  0.991646  0
H  H54  1  0.51094622  0.12921540  0.95996581  1  0.075366  0  0.110428  0.11681  0  0.991346  0
H  H55  1  0.48904630  0.37078650  0.45995023  1  0.07505  0  0.110437  0.116934  0  0.991441  0
H  H56  1  0.53405166  0.84047242  0.92568230  1  0.153015  0  0.118633  0.099178  0  1.001034  0
H  H57  1  0.46601060  0.65953867  0.42569424  1  0.152976  0  0.118643  0.099192  0  1.00125  0
H  H58  1  0.46591074  0.15951043  0.07431255  1  0.153169  0  0.118633  0.099196  0  1.001232  0
H  H59  1  0.53403604  0.34049240  0.57430474  1  0.153363  0  0.118668  0.099297  0  1.001176  0
C  C60  1  0.26151414  0.86414529  0.76390960  1  -0.547519  0  -0.174027  -0.442702  0  3.961423  0
C  C61  1  0.73846972  0.63585503  0.26391112  1  -0.546897  0  -0.174155  -0.442986  0  3.960258  0
C  C62  1  0.73848273  0.13586670  0.23608891  1  -0.54681  0  -0.17398  -0.44266  0  3.960819  0
C  C63  1  0.26151128  0.36413377  0.73609654  1  -0.547026  0  -0.174062  -0.442641  0  3.960968  0
C  C64  1  0.19457525  0.71103258  0.76413157  1  -0.010833  0  -0.164065  -0.244927  0  3.958604  0
C  C65  1  0.80545173  0.78899985  0.26414264  1  -0.010786  0  -0.163922  -0.244751  0  3.958391  0
C  C66  1  0.80544654  0.28898949  0.23586008  1  -0.010849  0  -0.163972  -0.244898  0  3.95896  0
C  C67  1  0.19454669  0.21101853  0.73586091  1  -0.011024  0  -0.163964  -0.245032  0  3.958629  0
C  C68  1  0.02208060  0.69437700  0.78855786  1  1.537349  0  0.185758  0.602492  0  4.181264  0
C  C69  1  0.97792083  0.80563805  0.28855992  1  1.537382  0  0.185665  0.602259  0  4.181926  0
C  C70  1  0.97791883  0.30561454  0.21144889  1  1.536621  0  0.185476  0.602284  0  4.182264  0
C  C71  1  0.02204687  0.19437576  0.71144912  1  1.536708  0  0.185552  0.602433  0  4.181937  0
C  C72  1  0.87256357  0.30563379  0.85887882  1  0.551475  0  0.067077  0.134151  0  3.908183  0
C  C73  1  0.12743732  0.19435989  0.35887581  1  0.552086  0  0.067166  0.13443  0  3.908184  0
C  C74  1  0.12741387  0.69437977  0.14112839  1  0.551189  0  0.066895  0.134089  0  3.908286  0
C  C75  1  0.87256209  0.80565417  0.64112545  1  0.55104  0  0.067045  0.134508  0  3.908142  0
C  C76  1  0.93749092  0.19286209  0.89352696  1  -0.058832  0  -0.075951  -0.120036  0  3.941386  0
C  C77  1  0.06252065  0.30713821  0.39351628  1  -0.058525  0  -0.076053  -0.120373  0  3.941273  0
C  C78  1  0.06253058  0.80715462  0.10648390  1  -0.058563  0  -0.075818  -0.119995  0  3.941616  0
C  C79  1  0.93744224  0.69287680  0.60647903  1  -0.058648  0  -0.075675  -0.11996  0  3.940809  0
C  C80  1  0.93512083  0.20327537  0.95663606  1  -0.036133  0  -0.064649  -0.080569  0  3.945447  0
C  C81  1  0.06487380  0.29673318  0.45662650  1  -0.035783  0  -0.064467  -0.080238  0  3.945303  0
C  C82  1  0.06488612  0.79674279  0.04337389  1  -0.035795  0  -0.064463  -0.080174  0  3.944996  0
C  C83  1  0.93509721  0.70327411  0.54336606  1  -0.035547  0  -0.064563  -0.080138  0  3.94527  0
C  C84  1  0.86395420  0.32313675  0.98505444  1  -0.052447  0  -0.004355  0.038796  0  4.023882  0
C  C85  1  0.13602228  0.17686785  0.48505097  1  -0.053079  0  -0.004282  0.038725  0  4.023916  0
C  C86  1  0.13604487  0.67687089  0.01495322  1  -0.052829  0  -0.00451  0.038531  0  4.023682  0
C  C87  1  0.86396288  0.82313049  0.51494754  1  -0.052783  0  -0.004378  0.038691  0  4.024068  0
C  C88  1  0.79958803  0.43031250  0.94613649  1  0.529668  0  0.116557  0.117113  0  3.995711  0
C  C89  1  0.20041111  0.06968069  0.44613512  1  0.529862  0  0.116548  0.116968  0  3.995876  0
C  C90  1  0.20040823  0.56966518  0.05387575  1  0.530459  0  0.116628  0.117116  0  3.995684  0
C  C91  1  0.79959863  0.93032131  0.55386111  1  0.53026  0  0.116632  0.117118  0  3.996009  0
C  C92  1  0.85120018  0.33792769  0.05005745  1  -0.12675  0  -0.085787  -0.123463  0  3.961009  0
C  C93  1  0.14879624  0.16208760  0.55005213  1  -0.126861  0  -0.085667  -0.123245  0  3.960912  0
C  C94  1  0.14881308  0.66209460  0.94994930  1  -0.126924  0  -0.085644  -0.123407  0  3.960803  0
C  C95  1  0.85119456  0.83790202  0.44994043  1  -0.127015  0  -0.085663  -0.123328  0  3.960528  0
C  C96  1  0.77341977  0.45213506  0.07511658  1  0.051664  0  -0.082986  -0.110153  0  3.967092  0
C  C97  1  0.22659232  0.04788318  0.57511557  1  0.051942  0  -0.082981  -0.110299  0  3.966856  0
C  C98  1  0.22657455  0.54787485  0.92488972  1  0.051661  0  -0.083026  -0.110129  0  3.967668  0
C  C99  1  0.77341731  0.95211668  0.42488157  1  0.052104  0  -0.082973  -0.110399  0  3.966853  0
C  C100  1  0.70457636  0.56124769  0.03770635  1  0.035159  0  -0.00302  0.039641  0  4.015775  0
C  C101  1  0.29541910  0.93875111  0.53770850  1  0.035019  0  -0.003077  0.039532  0  4.015298  0
C  C102  1  0.29540340  0.43876366  0.96229307  1  0.035184  0  -0.003039  0.03953  0  4.015855  0
C  C103  1  0.70457210  0.06124600  0.46229367  1  0.034907  0  -0.003102  0.039612  0  4.015232  0
C  C104  1  0.71986121  0.55237624  0.97302822  1  0.449466  0  0.11678  0.116978  0  3.983599  0
C  C105  1  0.28014903  0.94762383  0.47302631  1  0.449458  0  0.116719  0.117043  0  3.983602  0
C  C106  1  0.28011799  0.44762440  0.02697533  1  0.449  0  0.116692  0.116841  0  3.983873  0
C  C107  1  0.71986431  0.05237701  0.52697083  1  0.448454  0  0.116786  0.11702  0  3.983687  0
C  C108  1  0.61959087  0.67895664  0.06193987  1  -0.104255  0  -0.061189  -0.067064  0  3.89754  0
C  C109  1  0.38039890  0.82103072  0.56195340  1  -0.035239  0  -0.061339  -0.067288  0  3.897778  0
C  C110  1  0.38036746  0.32104132  0.93806276  1  -0.034953  0  -0.061111  -0.066971  0  3.89722  0
C  C111  1  0.61962336  0.17897740  0.43804923  1  -0.035763  0  -0.061395  -0.067353  0  3.897603  0
C  C112  1  0.55710751  0.78024684  0.02252687  1  0.035477  0  -0.08514  -0.13501  0  3.991554  0
C  C113  1  0.44289971  0.71974429  0.52255609  1  -0.032671  0  -0.084821  -0.134597  0  3.991116  0
C  C114  1  0.44288530  0.21975774  0.97747073  1  -0.033683  0  -0.085132  -0.134888  0  3.991164  0
C  C115  1  0.55712765  0.28026798  0.47744242  1  -0.032289  0  -0.08478  -0.134699  0  3.990966  0
C  C116  1  0.58027734  0.76431246  0.95912191  1  0.461673  0  0.056497  0.103883  0  3.950947  0
C  C117  1  0.41974241  0.73568740  0.45914085  1  0.460716  0  0.056202  0.103382  0  3.950476  0
C  C118  1  0.41971448  0.23569644  0.04087752  1  0.461372  0  0.056367  0.103646  0  3.951054  0
C  C119  1  0.58030239  0.26433193  0.54086087  1  0.460395  0  0.056182  0.10328  0  3.950499  0
N  N120  1  0.80703570  0.42038570  0.88442999  1  -1.243081  0  -0.318735  -0.280988  0  3.510846  0
N  N121  1  0.19294049  0.07960980  0.38443150  1  -1.24367  0  -0.318824  -0.281046  0  3.511114  0
N  N122  1  0.19296227  0.57962411  0.11558317  1  -1.243234  0  -0.318743  -0.281062  0  3.510397  0
N  N123  1  0.80704508  0.92039605  0.61556335  1  -1.243244  0  -0.318964  -0.28131  0  3.510987  0
N  N124  1  0.65892766  0.65376788  0.93550237  1  -1.230394  0  -0.320367  -0.26739  0  3.508049  0
N  N125  1  0.34107603  0.84622571  0.43550513  1  -1.230243  0  -0.320267  -0.26721  0  3.507646  0
N  N126  1  0.34108016  0.34624383  0.06450118  1  -1.230593  0  -0.320213  -0.267196  0  3.507946  0
N  N127  1  0.65895487  0.15378433  0.56449750  1  -1.229614  0  -0.320361  -0.267279  0  3.50772  0
O  O128  1  0.55238043  0.81815263  0.81842256  1  -1.445184  0  -0.392682  -0.752241  0  2.224146  0
O  O129  1  0.44763992  0.68182630  0.31841912  1  -1.445418  0  -0.392823  -0.752615  0  2.224429  0
O  O130  1  0.44762690  0.18182691  0.18157138  1  -1.444808  0  -0.392753  -0.752474  0  2.224348  0
O  O131  1  0.55236005  0.31815236  0.68157436  1  -1.444946  0  -0.392767  -0.752411  0  2.224404  0
O  O132  1  0.52591042  0.76081031  0.70369507  1  -1.408739  0  -0.394994  -0.671444  0  2.219712  0
O  O133  1  0.47412695  0.73916770  0.20370777  1  -1.408967  0  -0.395067  -0.671551  0  2.220758  0
O  O134  1  0.47406480  0.23916148  0.29628880  1  -1.409041  0  -0.395092  -0.671733  0  2.220158  0
O  O135  1  0.52587876  0.26080437  0.79629349  1  -1.408762  0  -0.395141  -0.671646  0  2.220338  0
O  O136  1  0.53499381  0.01900479  0.73697335  1  -1.456195  0  -0.37697  -0.754452  0  2.325171  0
O  O137  1  0.46507520  0.48098723  0.23698668  1  -1.456458  0  -0.37695  -0.75472  0  2.32529  0
O  O138  1  0.46504866  0.98097062  0.26300183  1  -1.456355  0  -0.376942  -0.754598  0  2.325154  0
O  O139  1  0.53498233  0.51899637  0.76300955  1  -1.456299  0  -0.376932  -0.75453  0  2.325377  0
O  O140  1  0.97662185  0.76811218  0.83409234  1  -1.183603  0  -0.337897  -0.567543  0  2.144883  0
O  O141  1  0.02338120  0.73188632  0.33409070  1  -1.183512  0  -0.337847  -0.567408  0  2.14488  0
O  O142  1  0.02338795  0.23189089  0.16591395  1  -1.183479  0  -0.337883  -0.567497  0  2.145008  0
O  O143  1  0.97659471  0.26809832  0.66591148  1  -1.18264  0  -0.337823  -0.567502  0  2.145001  0
O  O144  1  0.92963950  0.60046913  0.76244928  1  -1.15524  0  -0.342505  -0.56865  0  2.162441  0
O  O145  1  0.07036076  0.89953731  0.26244648  1  -1.155467  0  -0.342538  -0.568621  0  2.162655  0
O  O146  1  0.07036653  0.39953189  0.23753871  1  -1.154846  0  -0.3424  -0.56858  0  2.162782  0
O  O147  1  0.92962123  0.10044717  0.73753831  1  -1.155303  0  -0.342489  -0.568708  0  2.162977  0
