# generated using pymatgen
data_FeH16(C12N5)2
_symmetry_space_group_name_H-M   'P 1'
_cell_length_a   8.90907441
_cell_length_b   16.23101007
_cell_length_c   16.23407890
_cell_angle_alpha   116.73160383
_cell_angle_beta   100.53541933
_cell_angle_gamma   100.54059040
_symmetry_Int_Tables_number   1
_chemical_formula_structural   FeH16(C12N5)2
_chemical_formula_sum   'Fe3 H48 C72 N30'
_cell_volume   1965.01832878
_cell_formula_units_Z   3
loop_
 _symmetry_equiv_pos_site_id
 _symmetry_equiv_pos_as_xyz
  1  'x, y, z'
loop_
 _atom_site_type_symbol
 _atom_site_label
 _atom_site_symmetry_multiplicity
 _atom_site_fract_x
 _atom_site_fract_y
 _atom_site_fract_z
 _atom_site_occupancy
 _atom_site_pbe_bader_charge
 _atom_site_pbe_bader_spin_density
 _atom_site_pbe_cm5_charge
 _atom_site_pbe_ddec_charge
 _atom_site_pbe_ddec_spin_density
 _atom_site_pbe_ddec_sum_bond_order
 _atom_site_pbe_magmom
Fe  Fe0  1  0.00000066  0.50000005  0.49999971  1  1.124696  0  0.802368  0.287579  0  3.792911  0
Fe  Fe1  1  0.49999871  0.99999936  0.49999989  1  1.134283  0  0.802133  0.288319  0  3.789711  0
Fe  Fe2  1  0.50000070  0.50000003  0.00000015  1  1.120288  0  0.800255  0.284702  0  3.794439  0
H  H3  1  0.42014813  0.31434961  0.33901057  1  0.088872  0  0.112793  0.126716  0  0.987211  0
H  H4  1  0.10595650  0.02468236  0.68580713  1  0.077749  0  0.112764  0.126509  0  0.987281  0
H  H5  1  0.08108878  0.66098647  0.97527485  1  0.101897  0  0.112805  0.126211  0  0.988055  0
H  H6  1  0.57985311  0.68565138  0.66099054  1  0.088839  0  0.112805  0.126717  0  0.987217  0
H  H7  1  0.89403951  0.97531501  0.31419244  1  0.077861  0  0.112771  0.126486  0  0.987296  0
H  H8  1  0.91891209  0.33901380  0.02472529  1  0.101899  0  0.112811  0.126227  0  0.988027  0
H  H9  1  0.41974156  0.25817074  0.16579807  1  0.061751  0  0.105563  0.100789  0  0.98677  0
H  H10  1  0.16162735  0.90755137  0.74182774  1  0.085069  0  0.105745  0.101494  0  0.986156  0
H  H11  1  0.25371597  0.83420948  0.09234872  1  0.050131  0  0.105028  0.099889  0  0.987024  0
H  H12  1  0.58025739  0.74183025  0.83420220  1  0.061762  0  0.105563  0.100778  0  0.98677  0
H  H13  1  0.83837244  0.09244672  0.25817316  1  0.085111  0  0.105729  0.101493  0  0.98617  0
H  H14  1  0.74628491  0.16579078  0.90765081  1  0.050132  0  0.105035  0.099898  0  0.986997  0
H  H15  1  0.68013846  0.31063736  0.13685399  1  0.058878  0  0.099187  0.103608  0  1.03159  0
H  H16  1  0.36959164  0.82613471  0.68939046  1  0.0881  0  0.099516  0.103558  0  1.031423  0
H  H17  1  0.54308533  0.86325459  0.17377346  1  0.101836  0  0.099043  0.103441  0  1.032566  0
H  H18  1  0.31986050  0.68936363  0.86314566  1  0.058934  0  0.099178  0.10362  0  1.031535  0
H  H19  1  0.63040701  0.17386338  0.31061094  1  0.088162  0  0.099514  0.103573  0  1.031391  0
H  H20  1  0.45691556  0.13674567  0.82622606  1  0.101844  0  0.099027  0.103435  0  1.032619  0
H  H21  1  0.92729813  0.41198680  0.27848887  1  0.163968  0  0.116193  0.079333  0  1.077464  0
H  H22  1  0.51534617  0.86645466  0.58796429  1  0.150651  0  0.115939  0.07917  0  1.079046  0
H  H23  1  0.64868310  0.72159111  0.13356836  1  0.153452  0  0.116185  0.079553  0  1.078644  0
H  H24  1  0.07270083  0.58801419  0.72151078  1  0.16398  0  0.116171  0.079273  0  1.077475  0
H  H25  1  0.48465284  0.13354416  0.41203685  1  0.150588  0  0.115929  0.079144  0  1.079086  0
H  H26  1  0.35131777  0.27840916  0.86643178  1  0.153461  0  0.116177  0.079525  0  1.078646  0
H  H27  1  0.40397033  0.36766024  0.63918750  1  0.102013  0  0.106803  0.1188  0  1.026584  0
H  H28  1  0.03606851  0.27152805  0.63232614  1  0.108217  0  0.107539  0.11952  0  1.027338  0
H  H29  1  0.76474268  0.36080874  0.72855056  1  0.09978  0  0.10686  0.118483  0  1.027664  0
H  H30  1  0.59603169  0.63234002  0.36081213  1  0.102022  0  0.106795  0.118783  0  1.02658  0
H  H31  1  0.96393159  0.72847293  0.36767424  1  0.108211  0  0.107555  0.11954  0  1.027248  0
H  H32  1  0.23525742  0.63919225  0.27144920  1  0.099798  0  0.106852  0.118466  0  1.02764  0
H  H33  1  0.34321267  0.37831755  0.78630887  1  0.093276  0  0.121483  0.091179  0  1.031946  0
H  H34  1  0.96485123  0.40805300  0.62166397  1  0.100211  0  0.121247  0.089895  0  1.031155  0
H  H35  1  0.55698548  0.21368225  0.59203021  1  0.117387  0  0.121514  0.091307  0  1.031404  0
H  H36  1  0.65678857  0.62168344  0.21369163  1  0.093271  0  0.121479  0.091191  0  1.031916  0
H  H37  1  0.03514851  0.59194727  0.37833544  1  0.100234  0  0.121237  0.089904  0  1.031134  0
H  H38  1  0.44301462  0.78631874  0.40797017  1  0.117358  0  0.121519  0.091323  0  1.031424  0
H  H39  1  0.73156346  0.62515057  0.96616940  1  0.135938  0  0.118577  0.085899  0  1.036007  0
H  H40  1  0.10626452  0.34094552  0.37477518  1  0.118461  0  0.118615  0.085472  0  1.036799  0
H  H41  1  0.76536547  0.03372435  0.65892997  1  0.118489  0  0.118597  0.085957  0  1.036004  0
H  H42  1  0.26843706  0.37484897  0.03382976  1  0.13593  0  0.118582  0.085921  0  1.035989  0
H  H43  1  0.89373408  0.65905474  0.62522473  1  0.118506  0  0.118613  0.085459  0  1.036815  0
H  H44  1  0.23463426  0.96627592  0.34107067  1  0.118479  0  0.11861  0.085984  0  1.036032  0
H  H45  1  0.81515520  0.61863142  0.82602623  1  0.093801  0  0.106455  0.110997  0  1.006955  0
H  H46  1  0.19654302  0.20738967  0.38143590  1  0.062087  0  0.10663  0.110822  0  1.006743  0
H  H47  1  0.98907881  0.17388976  0.79259749  1  0.102757  0  0.106043  0.110027  0  1.007033  0
H  H48  1  0.18484454  0.38136884  0.17397441  1  0.0938  0  0.106449  0.11099  0  1.006963  0
H  H49  1  0.80345671  0.79261059  0.61856351  1  0.062098  0  0.106602  0.11081  0  1.00669  0
H  H50  1  0.01092207  0.82611050  0.20740204  1  0.102741  0  0.106063  0.11007  0  1.006966  0
C  C51  1  0.68611723  0.42945979  0.49708160  1  0.969549  0  0.198741  0.209071  0  4.09245  0
C  C52  1  0.25689367  0.06780084  0.57073218  1  0.95831  0  0.197224  0.207289  0  4.091743  0
C  C53  1  0.18911128  0.50290627  0.93226064  1  0.968953  0  0.198262  0.208696  0  4.096911  0
C  C54  1  0.31388251  0.57054047  0.50291843  1  0.969543  0  0.198735  0.209066  0  4.092467  0
C  C55  1  0.74310384  0.93219725  0.42926849  1  0.958109  0  0.197266  0.207323  0  4.091816  0
C  C56  1  0.81088845  0.49709400  0.06773938  1  0.968956  0  0.198265  0.208709  0  4.096906  0
C  C57  1  0.66983729  0.47945795  0.63738048  1  0.936561  0  0.192348  0.23324  0  4.105002  0
C  C58  1  0.19059169  0.15808973  0.52071738  1  0.935268  0  0.193439  0.234785  0  4.103031  0
C  C59  1  0.03254016  0.36258379  0.84203694  1  0.913409  0  0.193211  0.234344  0  4.103531  0
C  C60  1  0.33016245  0.52054231  0.36261954  1  0.936562  0  0.19237  0.23328  0  4.10496  0
C  C61  1  0.80940883  0.84190981  0.47928363  1  0.935191  0  0.19339  0.234688  0  4.102991  0
C  C62  1  0.96746108  0.63741720  0.15796356  1  0.913363  0  0.19323  0.234395  0  4.103527  0
C  C63  1  0.67105806  0.38998006  0.39592653  1  0.436919  0  0.123851  0.160064  0  3.971926  0
C  C64  1  0.28124034  0.00605417  0.61016070  1  0.461503  0  0.123357  0.159137  0  3.970338  0
C  C65  1  0.27512993  0.60406060  0.99390806  1  0.450572  0  0.123346  0.160166  0  3.975256  0
C  C66  1  0.32894168  0.61002020  0.60407287  1  0.436914  0  0.123839  0.16003  0  3.971945  0
C  C67  1  0.71875680  0.99394320  0.38983899  1  0.461886  0  0.123352  0.159204  0  3.970275  0
C  C68  1  0.72487095  0.39593966  0.00609146  1  0.450568  0  0.123335  0.160165  0  3.975304  0
C  C69  1  0.52857591  0.33237284  0.32069157  1  -0.012213  0  -0.081332  -0.155099  0  3.959589  0
C  C70  1  0.19638892  0.98836375  0.66776179  1  0.016298  0  -0.081191  -0.153788  0  3.956584  0
C  C71  1  0.20783654  0.67932837  0.01161288  1  -0.049908  0  -0.082509  -0.156201  0  3.962095  0
C  C72  1  0.47142305  0.66762815  0.67930870  1  -0.012135  0  -0.08132  -0.155065  0  3.95969  0
C  C73  1  0.80360709  0.01163362  0.33223717  1  0.015812  0  -0.081232  -0.153825  0  3.956643  0
C  C74  1  0.79216283  0.32067117  0.98838555  1  -0.049451  0  -0.082497  -0.156212  0  3.962145  0
C  C75  1  0.52959693  0.30225485  0.22589876  1  -0.085019  0  -0.079437  -0.04997  0  4.034081  0
C  C76  1  0.22749396  0.92362455  0.69780136  1  -0.130027  0  -0.07981  -0.052571  0  4.03316  0
C  C77  1  0.30356552  0.77413358  0.07634779  1  0.015633  0  -0.078729  -0.047882  0  4.033808  0
C  C78  1  0.47040203  0.69774613  0.77410027  1  -0.085109  0  -0.079456  -0.049979  0  4.03419  0
C  C79  1  0.77250433  0.07637282  0.30219844  1  -0.129737  0  -0.079753  -0.052518  0  4.033185  0
C  C80  1  0.69643686  0.22586741  0.92365282  1  0.015147  0  -0.078708  -0.047838  0  4.033796  0
C  C81  1  0.67361707  0.33116075  0.20959548  1  0.048933  0  -0.094718  -0.140106  0  3.996398  0
C  C82  1  0.34259335  0.87838639  0.66888853  1  -0.001199  0  -0.094785  -0.138033  0  3.994563  0
C  C83  1  0.46388752  0.79048766  0.12158980  1  -0.016341  0  -0.095482  -0.141889  0  3.998753  0
C  C84  1  0.32638189  0.66884024  0.79040417  1  0.048925  0  -0.09471  -0.140135  0  3.996442  0
C  C85  1  0.65740680  0.12161242  0.33111335  1  -0.001503  0  -0.094758  -0.138041  0  3.994594  0
C  C86  1  0.53611336  0.20951261  0.87840973  1  -0.016319  0  -0.095497  -0.141934  0  3.998792  0
C  C87  1  0.81197908  0.38844437  0.28800133  1  0.429007  0  0.042232  0.077509  0  3.905783  0
C  C88  1  0.42359852  0.89952141  0.61158103  1  0.437557  0  0.042247  0.076938  0  3.90766  0
C  C89  1  0.52387663  0.71206139  0.10047055  1  0.369985  0  0.042005  0.077758  0  3.910082  0
C  C90  1  0.18802065  0.61155589  0.71199807  1  0.429005  0  0.042237  0.077559  0  3.90597  0
C  C91  1  0.57640014  0.10047669  0.38841914  1  0.437669  0  0.042234  0.076985  0  3.90771  0
C  C92  1  0.47612461  0.28793960  0.89952933  1  0.369999  0  0.042014  0.077802  0  3.910101  0
C  C93  1  0.61740301  0.49111778  0.72023679  1  -0.007083  0  0.010507  0.066596  0  4.026708  0
C  C94  1  0.12621588  0.22915756  0.50893726  1  -0.018439  0  0.010216  0.067583  0  4.026607  0
C  C95  1  0.89709529  0.27969820  0.77092369  1  -0.007338  0  0.010784  0.067676  0  4.024479  0
C  C96  1  0.38259787  0.50888249  0.27976335  1  -0.006808  0  0.010482  0.066546  0  4.026743  0
C  C97  1  0.87378464  0.77084198  0.49106313  1  -0.018446  0  0.010216  0.067625  0  4.026491  0
C  C98  1  0.10290445  0.72030207  0.22907572  1  -0.007418  0  0.010789  0.067699  0  4.024477  0
C  C99  1  0.47978173  0.42545410  0.71063890  1  -0.029895  0  -0.083204  -0.157854  0  3.937722  0
C  C100  1  0.05410937  0.28516268  0.57452410  1  -0.057187  0  -0.083651  -0.159707  0  3.939421  0
C  C101  1  0.76911624  0.28935151  0.71489623  1  -0.014101  0  -0.083031  -0.157469  0  3.936798  0
C  C102  1  0.52021837  0.57454689  0.28936087  1  -0.029953  0  -0.083139  -0.157762  0  3.937704  0
C  C103  1  0.94589151  0.71483758  0.42547603  1  -0.057165  0  -0.083651  -0.15969  0  3.939309  0
C  C104  1  0.23088350  0.71064875  0.28510318  1  -0.014004  0  -0.083013  -0.157423  0  3.936777  0
C  C105  1  0.44517334  0.43161951  0.79259771  1  0.491078  0  0.040012  0.072712  0  3.914867  0
C  C106  1  0.01340884  0.36098169  0.56833993  1  0.476467  0  0.040147  0.075061  0  3.912762  0
C  C107  1  0.65257780  0.20737234  0.63906088  1  0.443688  0  0.040611  0.073317  0  3.912864  0
C  C108  1  0.55482604  0.56838003  0.20740195  1  0.491117  0  0.039976  0.072662  0  3.914907  0
C  C109  1  0.98659090  0.63901857  0.43166009  1  0.4766  0  0.040139  0.075035  0  3.912756  0
C  C110  1  0.34742308  0.79262792  0.36093926  1  0.443634  0  0.04058  0.073239  0  3.912914  0
C  C111  1  0.66291035  0.56857023  0.89267844  1  0.38168  0  0.036768  0.069125  0  3.936873  0
C  C112  1  0.09421351  0.32405871  0.43137706  1  0.414761  0  0.037504  0.07115  0  3.937619  0
C  C113  1  0.77020628  0.10723409  0.67587782  1  0.42181  0  0.036589  0.068862  0  3.936195  0
C  C114  1  0.33708903  0.43142931  0.10732060  1  0.381681  0  0.036751  0.069123  0  3.936813  0
C  C115  1  0.90578586  0.67594083  0.56862260  1  0.414716  0  0.037527  0.071225  0  3.93761  0
C  C116  1  0.22979496  0.89276690  0.32412268  1  0.421801  0  0.036604  0.068901  0  3.936243  0
C  C117  1  0.70787889  0.56519396  0.81443330  1  0.010765  0  -0.086239  -0.171457  0  3.992892  0
C  C118  1  0.14263154  0.24923833  0.43482911  1  0.030339  0  -0.086492  -0.172456  0  3.994711  0
C  C119  1  0.89338630  0.18550296  0.75078916  1  -0.013887  0  -0.08538  -0.170366  0  3.99208  0
C  C120  1  0.29212199  0.43480631  0.18556684  1  0.010516  0  -0.086222  -0.171443  0  3.992881  0
C  C121  1  0.85736898  0.75076121  0.56517067  1  0.030335  0  -0.08648  -0.172494  0  3.994626  0
C  C122  1  0.10661380  0.81449803  0.24921061  1  -0.01381  0  -0.085426  -0.170494  0  3.992053  0
N  N123  1  0.83287090  0.49085048  0.55851175  1  -0.710759  0  -0.272604  -0.155416  0  3.688427  0
N  N124  1  0.34215020  0.06777056  0.50926923  1  -0.700185  0  -0.272672  -0.154823  0  3.685067  0
N  N125  1  0.27437744  0.44143226  0.93225937  1  -0.709131  0  -0.272255  -0.155487  0  3.690236  0
N  N126  1  0.16712883  0.50914978  0.44148827  1  -0.710788  0  -0.272617  -0.155436  0  3.688425  0
N  N127  1  0.65784881  0.93222826  0.49073191  1  -0.700057  0  -0.272661  -0.154791  0  3.6851  0
N  N128  1  0.72562308  0.55856728  0.06773979  1  -0.709144  0  -0.272203  -0.155413  0  3.690158  0
N  N129  1  0.82325646  0.52452507  0.64904837  1  -0.677805  0  -0.231338  -0.27745  0  3.216451  0
N  N130  1  0.29884309  0.12463265  0.47558520  1  -0.671326  0  -0.230713  -0.277425  0  3.215971  0
N  N131  1  0.17426070  0.35089687  0.87545788  1  -0.683398  0  -0.231073  -0.276716  0  3.21439  0
N  N132  1  0.17674406  0.47547447  0.35095140  1  -0.67778  0  -0.231327  -0.277429  0  3.216425  0
N  N133  1  0.70115742  0.87536689  0.52441643  1  -0.671269  0  -0.230712  -0.277432  0  3.215898  0
N  N134  1  0.82573904  0.64910339  0.12454153  1  -0.683365  0  -0.231116  -0.276799  0  3.214347  0
N  N135  1  0.58005941  0.41924481  0.54345907  1  -1.179087  0  -0.341391  -0.408709  0  3.149403  0
N  N136  1  0.16111091  0.12443094  0.58098535  1  -1.150889  0  -0.341706  -0.409034  0  3.149873  0
N  N137  1  0.03665494  0.45646828  0.87564166  1  -1.15058  0  -0.341809  -0.409663  0  3.153728  0
N  N138  1  0.41994033  0.58075546  0.45654033  1  -1.179083  0  -0.34142  -0.408744  0  3.14939  0
N  N139  1  0.83888733  0.87556860  0.41901542  1  -1.150852  0  -0.341696  -0.409023  0  3.149915  0
N  N140  1  0.96334630  0.54353271  0.12435884  1  -1.150558  0  -0.34184  -0.409704  0  3.153748  0
N  N141  1  0.81313550  0.41770351  0.38024488  1  -1.174166  0  -0.323639  -0.180228  0  3.541909  0
N  N142  1  0.39549762  0.96255697  0.58235903  1  -1.164948  0  -0.32257  -0.179698  0  3.542864  0
N  N143  1  0.43289786  0.61981116  0.03742833  1  -1.155921  0  -0.322976  -0.18058  0  3.545157  0
N  N144  1  0.18686460  0.58229748  0.61975551  1  -1.174204  0  -0.323597  -0.180165  0  3.541992  0
N  N145  1  0.60450025  0.03744184  0.41764201  1  -1.16504  0  -0.322595  -0.179808  0  3.542878  0
N  N146  1  0.56710302  0.38018911  0.96257119  1  -1.155921  0  -0.322968  -0.180604  0  3.545221  0
N  N147  1  0.53618881  0.50105728  0.88357269  1  -1.190586  0  -0.338699  -0.152659  0  3.61941  0
N  N148  1  0.03501805  0.38248469  0.49888851  1  -1.187769  0  -0.339302  -0.154391  0  3.621835  0
N  N149  1  0.65264632  0.11638869  0.61750278  1  -1.194295  0  -0.338156  -0.15285  0  3.619424  0
N  N150  1  0.46381207  0.49894298  0.11642745  1  -1.190593  0  -0.338698  -0.152715  0  3.61942  0
N  N151  1  0.96498246  0.61751485  0.50111064  1  -1.187943  0  -0.339325  -0.154463  0  3.621852  0
N  N152  1  0.34735342  0.88361157  0.38249724  1  -1.194214  0  -0.338151  -0.152822  0  3.61946  0
