# generated using pymatgen
data_AgH9C10S(NO)2
_symmetry_space_group_name_H-M   'P 1'
_cell_length_a   5.81590508
_cell_length_b   9.78399854
_cell_length_c   10.11611760
_cell_angle_alpha   116.14309195
_cell_angle_beta   89.99983796
_cell_angle_gamma   89.99990299
_symmetry_Int_Tables_number   1
_chemical_formula_structural   AgH9C10S(NO)2
_chemical_formula_sum   'Ag2 H18 C20 S2 N4 O4'
_cell_volume   516.74592855
_cell_formula_units_Z   2
loop_
 _symmetry_equiv_pos_site_id
 _symmetry_equiv_pos_as_xyz
  1  'x, y, z'
loop_
 _atom_site_type_symbol
 _atom_site_label
 _atom_site_symmetry_multiplicity
 _atom_site_fract_x
 _atom_site_fract_y
 _atom_site_fract_z
 _atom_site_occupancy
 _atom_site_pbe_bader_spin_density
 _atom_site_pbe_cm5_charge
 _atom_site_pbe_ddec_charge
 _atom_site_pbe_ddec_spin_density
 _atom_site_pbe_ddec_sum_bond_order
 _atom_site_pbe_magmom
Ag  Ag0  1  0.10173859  0.58961625  0.16960620  1  0  0.446801  0.387363  0  1.925277  0
Ag  Ag1  1  0.60174711  0.41038032  0.83039054  1  0  0.446876  0.387496  0  1.925343  0
H  H2  1  0.79151202  0.06674530  0.75217649  1  0  0.105043  0.11785  0  1.031079  0
H  H3  1  0.29150877  0.93324860  0.24781552  1  0  0.104991  0.117716  0  1.031416  0
H  H4  1  0.50585744  0.05043435  0.95133271  1  0  0.095347  0.107464  0  1.048433  0
H  H5  1  0.00583868  0.94956460  0.04867230  1  0  0.095364  0.107579  0  1.048518  0
H  H6  1  0.67581523  0.19649128  0.21939177  1  0  0.109113  0.134594  0  1.016476  0
H  H7  1  0.17581078  0.80350493  0.78061644  1  0  0.109122  0.134629  0  1.016531  0
H  H8  1  0.52845669  0.44049609  0.22035280  1  0  0.103201  0.072287  0  1.045901  0
H  H9  1  0.02842414  0.55950861  0.77964773  1  0  0.103204  0.072257  0  1.045923  0
H  H10  1  0.84092899  0.49369260  0.40831447  1  0  0.090476  0.098367  0  1.064248  0
H  H11  1  0.34091046  0.50630556  0.59169111  1  0  0.090521  0.098421  0  1.06437  0
H  H12  1  0.82312549  0.74016507  0.63981683  1  0  0.097565  0.090597  0  1.01744  0
H  H13  1  0.32311503  0.25984107  0.36019428  1  0  0.097566  0.090635  0  1.017727  0
H  H14  1  0.49526897  0.91837276  0.67484583  1  0  0.104205  0.124131  0  1.032947  0
H  H15  1  0.99527050  0.08162975  0.32515128  1  0  0.1042  0.124179  0  1.032927  0
H  H16  1  0.03419390  0.84055092  0.40674532  1  0  0.286769  0.292274  0  1.017215  0
H  H17  1  0.53419847  0.15943682  0.59323986  1  0  0.2868  0.292256  0  1.017335  0
H  H18  1  0.16095287  0.97388521  0.57404263  1  0  0.294946  0.318369  0  0.983352  0
H  H19  1  0.66095292  0.02610898  0.42594992  1  0  0.294906  0.318288  0  0.98337  0
C  C20  1  0.20689235  0.24610213  0.86184617  1  0  0.190939  0.572483  0  4.257275  0
C  C21  1  0.70690627  0.75390201  0.13816344  1  0  0.190855  0.572405  0  4.257323  0
C  C22  1  0.01346081  0.20655466  0.93348707  1  0  -0.033689  -0.13607  0  4.004714  0
C  C23  1  0.51346596  0.79344214  0.06650807  1  0  -0.033661  -0.136096  0  4.004247  0
C  C24  1  0.82103437  0.11907387  0.87047260  1  0  -0.105068  -0.123971  0  4.004819  0
C  C25  1  0.32102279  0.88093904  0.12954543  1  0  -0.104977  -0.123691  0  4.004383  0
C  C26  1  0.66951197  0.11044329  0.97657462  1  0  -0.110266  -0.093608  0  4.029287  0
C  C27  1  0.16948661  0.88956911  0.02342587  1  0  -0.110345  -0.093824  0  4.029115  0
C  C28  1  0.75163493  0.18868545  0.11823909  1  0  -0.102407  -0.187468  0  3.955272  0
C  C29  1  0.25163558  0.81132098  0.88176446  1  0  -0.102453  -0.187567  0  3.955415  0
C  C30  1  0.52798016  0.54416205  0.32394407  1  0  0.029626  0.094665  0  3.9996  0
C  C31  1  0.02797218  0.45584707  0.67606730  1  0  0.029537  0.094676  0  3.999553  0
C  C32  1  0.70094543  0.57387742  0.42701445  1  0  -0.120261  -0.195581  0  4.045352  0
C  C33  1  0.20094276  0.42614146  0.57300658  1  0  -0.120243  -0.195597  0  4.045102  0
C  C34  1  0.69031735  0.71162440  0.55586056  1  0  -0.08119  -0.012762  0  4.038709  0
C  C35  1  0.19034112  0.28837202  0.44413188  1  0  -0.081127  -0.012724  0  4.038085  0
C  C36  1  0.51067869  0.81099353  0.57631243  1  0  -0.107517  -0.248382  0  3.931535  0
C  C37  1  0.01068574  0.18899986  0.42368123  1  0  -0.107518  -0.24845  0  3.931166  0
C  C38  1  0.33867805  0.77361776  0.46651820  1  0  0.224799  0.447126  0  4.067896  0
C  C39  1  0.83867715  0.22638054  0.53347855  1  0  0.22473  0.447099  0  4.067557  0
S  S40  1  0.00852597  0.27637125  0.12256924  1  0  0.0888  0.155102  0  3.194264  0
S  S41  1  0.50851584  0.72363248  0.87742302  1  0  0.088839  0.155169  0  3.194183  0
N  N42  1  0.35052175  0.63984732  0.34175058  1  0  -0.36834  -0.319586  0  3.558873  0
N  N43  1  0.85049958  0.36015554  0.65824615  1  0  -0.368338  -0.319658  0  3.558731  0
N  N44  1  0.16221861  0.86959950  0.48384160  1  0  -0.583326  -0.629601  0  3.355255  0
N  N45  1  0.66220613  0.13039806  0.51615539  1  0  -0.583286  -0.629495  0  3.355267  0
O  O46  1  0.31599116  0.36966068  0.94531380  1  0  -0.342458  -0.522065  0  2.412  0
O  O47  1  0.81597643  0.63031838  0.05467064  1  0  -0.342436  -0.522076  0  2.411636  0
O  O48  1  0.25478880  0.16058260  0.72919185  1  0  -0.31316  -0.543669  0  2.195876  0
O  O49  1  0.75479715  0.83939876  0.27080170  1  0  -0.313075  -0.543534  0  2.196413  0
