# generated using pymatgen
data_Al2P3H6(CO)9
_symmetry_space_group_name_H-M   'P 1'
_cell_length_a   4.99490028
_cell_length_b   8.67316645
_cell_length_c   19.02461090
_cell_angle_alpha   80.00290382
_cell_angle_beta   84.03347579
_cell_angle_gamma   89.07864259
_symmetry_Int_Tables_number   1
_chemical_formula_structural   Al2P3H6(CO)9
_chemical_formula_sum   'Al4 P6 H12 C18 O18'
_cell_volume   807.26420395
_cell_formula_units_Z   2
loop_
 _symmetry_equiv_pos_site_id
 _symmetry_equiv_pos_as_xyz
  1  'x, y, z'
loop_
 _atom_site_type_symbol
 _atom_site_label
 _atom_site_symmetry_multiplicity
 _atom_site_fract_x
 _atom_site_fract_y
 _atom_site_fract_z
 _atom_site_occupancy
 _atom_site_pbe_bader_spin_density
 _atom_site_pbe_cm5_charge
 _atom_site_pbe_ddec_charge
 _atom_site_pbe_ddec_spin_density
 _atom_site_pbe_ddec_sum_bond_order
 _atom_site_pbe_magmom
Al  Al0  1  0.12494417  0.88853918  0.75068614  1  0  0.520353  1.813674  0  2.375348  0
Al  Al1  1  0.87505602  0.11145927  0.24931369  1  0  0.520335  1.813667  0  2.375363  0
Al  Al2  1  0.56869230  0.32487145  0.71579637  1  0  0.555002  1.730221  0  2.546182  0
Al  Al3  1  0.43130792  0.67512934  0.28420381  1  0  0.555001  1.730177  0  2.546222  0
P  P4  1  0.36044023  0.31050976  0.30019269  1  0  0.456488  1.441549  0  5.255053  0
P  P5  1  0.63955997  0.68948986  0.69980706  1  0  0.456475  1.441523  0  5.255194  0
P  P6  1  0.11084867  0.21248289  0.64252310  1  0  0.466114  1.426587  0  5.234777  0
P  P7  1  0.88915356  0.78751790  0.35747650  1  0  0.46612  1.426498  0  5.234831  0
P  P8  1  0.58389609  0.02569786  0.82958855  1  0  0.452372  1.423506  0  5.250571  0
P  P9  1  0.41610210  0.97430177  0.17041177  1  0  0.45237  1.423504  0  5.250619  0
H  H10  1  0.82362326  0.11609992  0.53226421  1  0  0.107887  0.105962  0  1.006098  0
H  H11  1  0.17637696  0.88390087  0.46773597  1  0  0.107884  0.105939  0  1.006101  0
H  H12  1  0.64286583  0.40298197  0.41125387  1  0  0.110468  0.107094  0  1.022817  0
H  H13  1  0.35713239  0.59701999  0.58874575  1  0  0.110473  0.107128  0  1.022801  0
H  H14  1  0.76243576  0.79682313  0.94512455  1  0  0.112664  0.109077  0  0.982262  0
H  H15  1  0.23756645  0.20317531  0.05487576  1  0  0.112675  0.109102  0  0.982268  0
H  H16  1  0.31347359  0.22843888  0.92214907  1  0  0.112084  0.11303  0  0.987413  0
H  H17  1  0.68652661  0.77155957  0.07785077  1  0  0.112088  0.113034  0  0.987388  0
H  H18  1  0.55314054  0.36482989  0.54321077  1  0  0.106845  0.097335  0  1.047351  0
H  H19  1  0.44686171  0.63517207  0.45678926  1  0  0.106852  0.097327  0  1.047382  0
H  H20  1  0.91714644  0.15041682  0.40041984  1  0  0.114108  0.110727  0  1.036354  0
H  H21  1  0.08285378  0.84958398  0.59958033  1  0  0.114097  0.110685  0  1.036392  0
C  C22  1  0.41227760  0.31906612  0.51206416  1  0  -0.077979  -0.05998  0  3.98945  0
C  C23  1  0.58772064  0.68093701  0.48793589  1  0  -0.077999  -0.060003  0  3.989552  0
C  C24  1  0.18096348  0.23924370  0.54684408  1  0  -0.021273  -0.213039  0  3.987075  0
C  C25  1  0.81903674  0.76075709  0.45315610  1  0  -0.02125  -0.212986  0  3.987078  0
C  C26  1  0.00382750  0.17874590  0.50597001  1  0  -0.074785  -0.050751  0  3.972915  0
C  C27  1  0.99617273  0.82125606  0.49402955  1  0  -0.074804  -0.050731  0  3.972888  0
C  C28  1  0.05605715  0.19830928  0.43152899  1  0  -0.074543  -0.062014  0  3.967968  0
C  C29  1  0.94394107  0.80169268  0.56847115  1  0  -0.074525  -0.061979  0  3.967972  0
C  C30  1  0.28540088  0.28007366  0.39663398  1  0  -0.01288  -0.205994  0  3.978982  0
C  C31  1  0.71459936  0.71992830  0.60336611  1  0  -0.012873  -0.205948  0  3.978989  0
C  C32  1  0.46285973  0.34005734  0.43769881  1  0  -0.076141  -0.070077  0  3.988031  0
C  C33  1  0.53713850  0.65994580  0.56230071  1  0  -0.076158  -0.07015  0  3.988137  0
C  C34  1  0.54136293  0.01398370  0.92523008  1  0  -0.014346  -0.192323  0  3.982962  0
C  C35  1  0.45863727  0.98601592  0.07476966  1  0  -0.01434  -0.192289  0  3.98298  0
C  C36  1  0.64662930  0.88552235  0.96919776  1  0  -0.073622  -0.060139  0  3.980587  0
C  C37  1  0.35337089  0.11447610  0.03080260  1  0  -0.073668  -0.060224  0  3.980664  0
C  C38  1  0.39452140  0.12850728  0.95640237  1  0  -0.073997  -0.057348  0  3.971973  0
C  C39  1  0.60547881  0.87149234  0.04359737  1  0  -0.074028  -0.05739  0  3.971994  0
O  O40  1  0.65034468  0.25826402  0.28539504  1  0  -0.294612  -0.826019  0  2.312369  0
O  O41  1  0.34965552  0.74173443  0.71460533  1  0  -0.294602  -0.826012  0  2.312388  0
O  O42  1  0.15258735  0.22580874  0.26868768  1  0  -0.287392  -0.823249  0  2.367369  0
O  O43  1  0.84741085  0.77419089  0.73131212  1  0  -0.287373  -0.82322  0  2.367399  0
O  O44  1  0.34035412  0.48939879  0.27295746  1  0  -0.294692  -0.826375  0  2.239138  0
O  O45  1  0.65964610  0.51060200  0.72704166  1  0  -0.294699  -0.826387  0  2.239221  0
O  O46  1  0.18446058  0.04465216  0.67352285  1  0  -0.281322  -0.841245  0  2.326803  0
O  O47  1  0.81554166  0.95534980  0.32647560  1  0  -0.281324  -0.841233  0  2.326791  0
O  O48  1  0.27523836  0.33401333  0.67065486  1  0  -0.284811  -0.828265  0  2.288499  0
O  O49  1  0.72476185  0.66598629  0.32934594  1  0  -0.284803  -0.828205  0  2.288462  0
O  O50  1  0.52192383  0.19908900  0.79796189  1  0  -0.294959  -0.84518  0  2.265733  0
O  O51  1  0.47807638  0.80091062  0.20203786  1  0  -0.294953  -0.845177  0  2.265785  0
O  O52  1  0.87685153  0.98673500  0.80783930  1  0  -0.295409  -0.843808  0  2.318957  0
O  O53  1  0.12314867  0.01326462  0.19216045  1  0  -0.295384  -0.843779  0  2.318982  0
O  O54  1  0.37856899  0.91538039  0.81025493  1  0  -0.294017  -0.835035  0  2.312835  0
O  O55  1  0.62143120  0.08461807  0.18974491  1  0  -0.294005  -0.835037  0  2.312846  0
O  O56  1  0.80870351  0.24580318  0.65729781  1  0  -0.287591  -0.837897  0  2.327596  0
O  O57  1  0.19129669  0.75419527  0.34270256  1  0  -0.287597  -0.837857  0  2.327659  0
