# generated using pymatgen
data_Sc2H15C24(NO4)3
_symmetry_space_group_name_H-M   'P 1'
_cell_length_a   13.95097615
_cell_length_b   13.95092155
_cell_length_c   13.95095475
_cell_angle_alpha   89.99987547
_cell_angle_beta   90.00032089
_cell_angle_gamma   89.99975689
_symmetry_Int_Tables_number   1
_chemical_formula_structural   Sc2H15C24(NO4)3
_chemical_formula_sum   'Sc8 H60 C96 N12 O48'
_cell_volume   2715.26000533
_cell_formula_units_Z   4
loop_
 _symmetry_equiv_pos_site_id
 _symmetry_equiv_pos_as_xyz
  1  'x, y, z'
loop_
 _atom_site_type_symbol
 _atom_site_label
 _atom_site_symmetry_multiplicity
 _atom_site_fract_x
 _atom_site_fract_y
 _atom_site_fract_z
 _atom_site_occupancy
 _atom_site_pbe_bader_charge
 _atom_site_pbe_bader_spin_density
 _atom_site_pbe_cm5_charge
 _atom_site_pbe_ddec_charge
 _atom_site_pbe_ddec_spin_density
 _atom_site_pbe_ddec_sum_bond_order
 _atom_site_pbe_magmom
Sc  Sc0  1  0.40639852  0.59360212  0.09359767  1  2.116322  0  1.247544  1.833599  0  2.194216  0
Sc  Sc1  1  0.09359999  0.40640170  0.59360005  1  2.116292  0  1.247577  1.833785  0  2.19391  0
Sc  Sc2  1  0.90640171  0.90640245  0.90640117  1  2.116268  0  1.247536  1.833652  0  2.194054  0
Sc  Sc3  1  0.59360313  0.09359642  0.40640027  1  2.116174  0  1.247613  1.833688  0  2.193997  0
Sc  Sc4  1  0.16627961  0.66628447  0.83371831  1  2.125774  0  1.281109  1.864483  0  2.259422  0
Sc  Sc5  1  0.33371953  0.33371595  0.33371895  1  2.12582  0  1.281118  1.864488  0  2.25956  0
Sc  Sc6  1  0.66628111  0.83371681  0.16628420  1  2.125596  0  1.281101  1.864469  0  2.259654  0
Sc  Sc7  1  0.83371522  0.16628186  0.66628200  1  2.125656  0  1.281114  1.864516  0  2.25941  0
H  H8  1  0.04263848  0.76483108  0.02717664  1  0.116132  0  0.113644  0.105005  0  1.066676  0
H  H9  1  0.45734890  0.23516500  0.52716853  1  0.116083  0  0.113667  0.105074  0  1.0666  0
H  H10  1  0.54264491  0.73517145  0.97282733  1  0.116064  0  0.113626  0.10503  0  1.06668  0
H  H11  1  0.95735743  0.26483014  0.47282308  1  0.116182  0  0.113665  0.10508  0  1.06659  0
H  H12  1  0.02717578  0.04264289  0.76483012  1  0.116103  0  0.113641  0.105032  0  1.066682  0
H  H13  1  0.47282512  0.95735195  0.26483162  1  0.116111  0  0.11366  0.105042  0  1.066699  0
H  H14  1  0.52717570  0.45735408  0.23516983  1  0.116123  0  0.113653  0.105073  0  1.066679  0
H  H15  1  0.97282244  0.54263728  0.73516902  1  0.116136  0  0.113651  0.10504  0  1.066652  0
H  H16  1  0.76482826  0.02717360  0.04264220  1  0.116112  0  0.11364  0.105068  0  1.066634  0
H  H17  1  0.26483404  0.47282523  0.95735478  1  0.116096  0  0.113634  0.104986  0  1.06669  0
H  H18  1  0.23516794  0.52717421  0.45735660  1  0.116127  0  0.113639  0.105025  0  1.066646  0
H  H19  1  0.73516522  0.97282749  0.54264630  1  0.116128  0  0.113629  0.105007  0  1.066683  0
H  H20  1  0.90660461  0.76224345  0.30492779  1  0.074723  0  0.107946  0.12154  0  1.012875  0
H  H21  1  0.59339750  0.23775994  0.80492553  1  0.074665  0  0.107932  0.121562  0  1.012849  0
H  H22  1  0.40660419  0.73775610  0.69507320  1  0.074706  0  0.10795  0.121573  0  1.01286  0
H  H23  1  0.09339489  0.26224463  0.19507050  1  0.074704  0  0.107944  0.121546  0  1.01285  0
H  H24  1  0.30492869  0.90660028  0.76224447  1  0.074595  0  0.107951  0.12163  0  1.012878  0
H  H25  1  0.19507219  0.09339958  0.26224128  1  0.074647  0  0.107958  0.121656  0  1.012804  0
H  H26  1  0.80493090  0.59339754  0.23776025  1  0.074791  0  0.107943  0.121575  0  1.012799  0
H  H27  1  0.69506941  0.40660384  0.73775675  1  0.074679  0  0.107958  0.121581  0  1.012885  0
H  H28  1  0.76224103  0.30492636  0.90660284  1  0.074744  0  0.107935  0.121591  0  1.012843  0
H  H29  1  0.26224530  0.19507033  0.09339843  1  0.07466  0  0.107942  0.121597  0  1.012895  0
H  H30  1  0.23775823  0.80492560  0.59339932  1  0.07472  0  0.107919  0.121574  0  1.012812  0
H  H31  1  0.73776166  0.69507322  0.40660431  1  0.074755  0  0.107947  0.121556  0  1.012899  0
H  H32  1  0.16026136  0.59110729  0.25334447  1  0.086079  0  0.111179  0.127327  0  1.002953  0
H  H33  1  0.33973948  0.40888973  0.75334250  1  0.086126  0  0.111174  0.127343  0  1.003039  0
H  H34  1  0.66026292  0.90888900  0.74665299  1  0.086078  0  0.111138  0.127303  0  1.002989  0
H  H35  1  0.83973815  0.09110806  0.24665204  1  0.086057  0  0.111157  0.127279  0  1.002947  0
H  H36  1  0.25334058  0.16025992  0.59110918  1  0.086153  0  0.111172  0.127307  0  1.002993  0
H  H37  1  0.24665792  0.83973817  0.09110680  1  0.086058  0  0.111172  0.127353  0  1.002953  0
H  H38  1  0.75334484  0.33974684  0.40889705  1  0.086105  0  0.111154  0.127305  0  1.002991  0
H  H39  1  0.74665642  0.66026062  0.90889042  1  0.086113  0  0.111141  0.127298  0  1.002993  0
H  H40  1  0.59110694  0.25334671  0.16025851  1  0.086087  0  0.111181  0.127357  0  1.002919  0
H  H41  1  0.09110513  0.24665787  0.83974467  1  0.086172  0  0.111168  0.127327  0  1.002974  0
H  H42  1  0.40889332  0.75334470  0.33974052  1  0.086087  0  0.111157  0.127307  0  1.003014  0
H  H43  1  0.90889294  0.74665771  0.66026120  1  0.086065  0  0.111174  0.127387  0  1.002966  0
H  H44  1  0.08749769  0.60149798  0.41021453  1  0.465376  0  0.29959  0.293332  0  0.989957  0
H  H45  1  0.41250545  0.39850084  0.91021155  1  0.465558  0  0.299587  0.293275  0  0.990082  0
H  H46  1  0.58749484  0.89850148  0.58978324  1  0.465421  0  0.299637  0.293444  0  0.989847  0
H  H47  1  0.91250321  0.10149735  0.08978555  1  0.465549  0  0.299599  0.293382  0  0.989936  0
H  H48  1  0.41021222  0.08749664  0.60149824  1  0.46544  0  0.299627  0.293324  0  0.989972  0
H  H49  1  0.08978776  0.91250286  0.10149912  1  0.465427  0  0.299581  0.293279  0  0.990043  0
H  H50  1  0.91021540  0.41250730  0.39850386  1  0.46542  0  0.299566  0.293216  0  0.990152  0
H  H51  1  0.58978437  0.58749946  0.89850224  1  0.465356  0  0.299568  0.293367  0  0.98991  0
H  H52  1  0.60149635  0.41021741  0.08749561  1  0.465393  0  0.299583  0.293361  0  0.989956  0
H  H53  1  0.10149777  0.08978426  0.91250548  1  0.465408  0  0.299595  0.293312  0  0.989971  0
H  H54  1  0.39850180  0.91021528  0.41250451  1  0.465419  0  0.299587  0.293252  0  0.990074  0
H  H55  1  0.89850311  0.58978645  0.58749715  1  0.465378  0  0.299589  0.293329  0  0.989973  0
H  H56  1  0.98033480  0.65706085  0.43171227  1  0.467138  0  0.29602  0.291729  0  0.994267  0
H  H57  1  0.51966444  0.34294369  0.93170936  1  0.466993  0  0.296  0.291714  0  0.994194  0
H  H58  1  0.48033250  0.84293909  0.56828842  1  0.467122  0  0.296019  0.291731  0  0.994242  0
H  H59  1  0.01966730  0.15705904  0.06828697  1  0.467125  0  0.296016  0.291742  0  0.994287  0
H  H60  1  0.43170790  0.98033504  0.65706198  1  0.467177  0  0.296062  0.291797  0  0.9942  0
H  H61  1  0.06829311  0.01966505  0.15705895  1  0.467229  0  0.296016  0.291749  0  0.99418  0
H  H62  1  0.93170886  0.51966440  0.34294201  1  0.467199  0  0.296029  0.291721  0  0.994274  0
H  H63  1  0.56828846  0.48033532  0.84293979  1  0.467158  0  0.296034  0.291768  0  0.994227  0
H  H64  1  0.65705908  0.43171167  0.98033428  1  0.466947  0  0.29603  0.291793  0  0.994223  0
H  H65  1  0.15705989  0.06828832  0.01966497  1  0.466926  0  0.295988  0.291717  0  0.994169  0
H  H66  1  0.34293964  0.93170920  0.51966689  1  0.467175  0  0.296033  0.291787  0  0.994168  0
H  H67  1  0.84294402  0.56829061  0.48033661  1  0.467013  0  0.296035  0.291754  0  0.994147  0
C  C68  1  0.10896265  0.67505682  0.13486418  1  0.076809  0  -0.017631  -0.033879  0  4.017824  0
C  C69  1  0.39103179  0.32493329  0.63486267  1  0.077566  0  -0.017696  -0.033923  0  4.018272  0
C  C70  1  0.60896451  0.82494255  0.86513515  1  0.076857  0  -0.017645  -0.033836  0  4.018061  0
C  C71  1  0.89103938  0.17505783  0.36513287  1  0.077799  0  -0.017602  -0.033897  0  4.018171  0
C  C72  1  0.13486534  0.10896454  0.67505657  1  0.076928  0  -0.017602  -0.033833  0  4.01793  0
C  C73  1  0.36513792  0.89103551  0.17506047  1  0.076762  0  -0.017678  -0.033913  0  4.018112  0
C  C74  1  0.63486462  0.39103770  0.32494757  1  0.076993  0  -0.017648  -0.033878  0  4.018093  0
C  C75  1  0.86513475  0.60896062  0.82494315  1  0.07688  0  -0.01765  -0.033864  0  4.017876  0
C  C76  1  0.67505314  0.13486409  0.10895916  1  0.07701  0  -0.01763  -0.033899  0  4.018237  0
C  C77  1  0.17506259  0.36513798  0.89103875  1  0.076928  0  -0.017652  -0.033913  0  4.018046  0
C  C78  1  0.32494260  0.63486304  0.39103726  1  0.076886  0  -0.01767  -0.033985  0  4.018073  0
C  C79  1  0.82493641  0.86513685  0.60896686  1  0.076905  0  -0.017677  -0.033867  0  4.018041  0
C  C80  1  0.96856115  0.77161418  0.16378206  1  -0.077872  0  -0.018971  -0.043348  0  4.026135  0
C  C81  1  0.53143372  0.22838665  0.66377302  1  -0.078317  0  -0.018911  -0.043263  0  4.026143  0
C  C82  1  0.46856873  0.72838654  0.83622071  1  -0.077996  0  -0.018907  -0.043286  0  4.026022  0
C  C83  1  0.03143544  0.27161388  0.33621621  1  -0.078403  0  -0.018944  -0.043273  0  4.026021  0
C  C84  1  0.16378076  0.96856207  0.77160968  1  -0.077441  0  -0.018965  -0.043439  0  4.026161  0
C  C85  1  0.33622304  0.03143634  0.27161099  1  -0.078017  0  -0.018921  -0.043289  0  4.025974  0
C  C86  1  0.66377959  0.53143564  0.22838852  1  -0.077815  0  -0.018917  -0.043372  0  4.026148  0
C  C87  1  0.83621637  0.46856290  0.72838639  1  -0.077808  0  -0.018939  -0.043363  0  4.026074  0
C  C88  1  0.77161145  0.16378147  0.96856580  1  -0.077856  0  -0.018895  -0.043258  0  4.026016  0
C  C89  1  0.27161693  0.33621876  0.03143265  1  -0.078438  0  -0.01889  -0.043317  0  4.026046  0
C  C90  1  0.22838697  0.66378089  0.53143380  1  -0.078043  0  -0.018924  -0.043313  0  4.025941  0
C  C91  1  0.72838585  0.83622371  0.46856763  1  -0.078308  0  -0.018912  -0.043276  0  4.026079  0
C  C92  1  0.04050986  0.74046487  0.10122105  1  -0.087717  0  -0.091887  -0.15408  0  3.973649  0
C  C93  1  0.45947938  0.25953033  0.60121864  1  -0.087807  0  -0.09189  -0.154201  0  3.97397  0
C  C94  1  0.54051864  0.75953623  0.89878004  1  -0.087638  0  -0.091951  -0.154241  0  3.973964  0
C  C95  1  0.95948544  0.24046408  0.39877585  1  -0.087251  0  -0.09195  -0.154231  0  3.973877  0
C  C96  1  0.10121856  0.04051387  0.74046426  1  -0.088149  0  -0.091949  -0.154164  0  3.973807  0
C  C97  1  0.39878005  0.95948533  0.24046247  1  -0.087758  0  -0.091959  -0.154216  0  3.974025  0
C  C98  1  0.60121861  0.45948422  0.25953969  1  -0.087799  0  -0.091962  -0.154264  0  3.973975  0
C  C99  1  0.89877967  0.54050923  0.75953704  1  -0.08783  0  -0.091902  -0.154123  0  3.973634  0
C  C100  1  0.74045991  0.10121894  0.04051317  1  -0.087828  0  -0.091938  -0.154231  0  3.973969  0
C  C101  1  0.24046602  0.39877927  0.95948726  1  -0.087687  0  -0.091939  -0.154122  0  3.973996  0
C  C102  1  0.25953669  0.60122232  0.45948476  1  -0.087657  0  -0.091913  -0.154127  0  3.973866  0
C  C103  1  0.75953140  0.89878000  0.54051900  1  -0.087816  0  -0.091914  -0.154186  0  3.973999  0
C  C104  1  0.89362996  0.84011809  0.12969594  1  1.572744  0  0.25808  0.680203  0  4.082421  0
C  C105  1  0.60636688  0.15988281  0.62969319  1  1.573548  0  0.258034  0.680086  0  4.082536  0
C  C106  1  0.39363299  0.65988438  0.87030355  1  1.573565  0  0.258118  0.680194  0  4.082409  0
C  C107  1  0.10636635  0.34011884  0.37030218  1  1.573359  0  0.258112  0.680165  0  4.082441  0
C  C108  1  0.12969747  0.89363010  0.84011465  1  1.572726  0  0.258114  0.680186  0  4.082405  0
C  C109  1  0.37031102  0.10636529  0.34011384  1  1.573671  0  0.257986  0.680041  0  4.082528  0
C  C110  1  0.62969202  0.60636345  0.15988192  1  1.573281  0  0.258039  0.680119  0  4.082381  0
C  C111  1  0.87029997  0.39362878  0.65988014  1  1.572839  0  0.258138  0.680293  0  4.082378  0
C  C112  1  0.84011692  0.12969979  0.89363209  1  1.572809  0  0.258105  0.680189  0  4.082368  0
C  C113  1  0.34012195  0.37030588  0.10636818  1  1.573711  0  0.258086  0.680238  0  4.082286  0
C  C114  1  0.15988236  0.62970149  0.60636973  1  1.572739  0  0.258157  0.680193  0  4.082328  0
C  C115  1  0.65988140  0.87030627  0.39363633  1  1.573602  0  0.258051  0.680089  0  4.082563  0
C  C116  1  0.96415606  0.73734108  0.25812832  1  0.044223  0  -0.090821  -0.202556  0  3.891552  0
C  C117  1  0.53584937  0.26266671  0.75812137  1  0.044297  0  -0.090798  -0.202567  0  3.891587  0
C  C118  1  0.46415293  0.76266467  0.74187514  1  0.044256  0  -0.090832  -0.202589  0  3.891626  0
C  C119  1  0.03584641  0.23733810  0.24187074  1  0.044159  0  -0.090858  -0.202629  0  3.891533  0
C  C120  1  0.25812676  0.96414858  0.73733272  1  0.044186  0  -0.090795  -0.202563  0  3.891686  0
C  C121  1  0.24187399  0.03584776  0.23733565  1  0.044295  0  -0.090815  -0.20265  0  3.891519  0
C  C122  1  0.75812576  0.53584801  0.26266600  1  0.044145  0  -0.09077  -0.202485  0  3.891533  0
C  C123  1  0.74186895  0.46415475  0.76265977  1  0.04422  0  -0.090831  -0.202579  0  3.891607  0
C  C124  1  0.73733622  0.25812729  0.96415444  1  0.044224  0  -0.090837  -0.202616  0  3.89147  0
C  C125  1  0.23734212  0.24187165  0.03584741  1  0.044363  0  -0.090867  -0.202692  0  3.891632  0
C  C126  1  0.26266252  0.75812799  0.53584639  1  0.044237  0  -0.090828  -0.202592  0  3.891378  0
C  C127  1  0.76266607  0.74187575  0.46415451  1  0.044312  0  -0.090781  -0.202506  0  3.891493  0
C  C128  1  0.10637248  0.64222233  0.22912729  1  -0.009313  0  -0.085036  -0.187274  0  3.881864  0
C  C129  1  0.39362392  0.35777187  0.72912716  1  -0.009308  0  -0.085067  -0.187355  0  3.882022  0
C  C130  1  0.60637368  0.85777634  0.77086987  1  -0.009451  0  -0.084979  -0.187208  0  3.881687  0
C  C131  1  0.89362968  0.14221996  0.27086911  1  -0.009603  0  -0.085021  -0.187183  0  3.881824  0
C  C132  1  0.22912748  0.10637100  0.64222539  1  -0.009361  0  -0.085057  -0.187254  0  3.881951  0
C  C133  1  0.27087059  0.89362267  0.14222661  1  -0.009257  0  -0.085012  -0.187318  0  3.881824  0
C  C134  1  0.72912836  0.39362941  0.35777928  1  -0.009498  0  -0.084997  -0.187185  0  3.881887  0
C  C135  1  0.77087191  0.60637171  0.85777648  1  -0.009349  0  -0.084992  -0.187195  0  3.881931  0
C  C136  1  0.64222226  0.22912819  0.10637205  1  -0.009524  0  -0.085049  -0.187275  0  3.882018  0
C  C137  1  0.14222710  0.27087331  0.89362927  1  -0.009379  0  -0.085027  -0.187298  0  3.881877  0
C  C138  1  0.35777810  0.72912842  0.39362847  1  -0.009356  0  -0.084994  -0.187178  0  3.881867  0
C  C139  1  0.85777517  0.77087204  0.60637655  1  -0.009295  0  -0.085042  -0.187418  0  3.88185  0
C  C140  1  0.03336982  0.67212510  0.29215284  1  0.394016  0  0.099356  0.300337  0  4.111623  0
C  C141  1  0.46663195  0.32787541  0.79215104  1  0.394089  0  0.099306  0.30029  0  4.111867  0
C  C142  1  0.53336720  0.82787603  0.70784606  1  0.394141  0  0.099339  0.300288  0  4.111705  0
C  C143  1  0.96663294  0.17212040  0.20784636  1  0.394351  0  0.099364  0.300407  0  4.11169  0
C  C144  1  0.29215269  0.03336634  0.67212396  1  0.394013  0  0.099326  0.300292  0  4.111867  0
C  C145  1  0.20784840  0.96663014  0.17212825  1  0.394023  0  0.099317  0.300302  0  4.111621  0
C  C146  1  0.79215167  0.46663309  0.32787676  1  0.394002  0  0.099337  0.300277  0  4.111709  0
C  C147  1  0.70784556  0.53336953  0.82787521  1  0.393997  0  0.099324  0.300286  0  4.111774  0
C  C148  1  0.67212233  0.29215343  0.03336917  1  0.394006  0  0.099336  0.300329  0  4.111697  0
C  C149  1  0.17212714  0.20784722  0.96663231  1  0.394028  0  0.099398  0.300467  0  4.111735  0
C  C150  1  0.32787704  0.79215220  0.46663120  1  0.393986  0  0.09932  0.300268  0  4.111726  0
C  C151  1  0.82787539  0.70784696  0.53336935  1  0.394006  0  0.099317  0.300343  0  4.111642  0
C  C152  1  0.18594210  0.63999668  0.06960151  1  1.567738  0  0.256423  0.678084  0  4.105014  0
C  C153  1  0.31405269  0.36000146  0.56960667  1  1.566951  0  0.256609  0.678179  0  4.105001  0
C  C154  1  0.68594705  0.86000309  0.93039609  1  1.567761  0  0.256514  0.678009  0  4.105017  0
C  C155  1  0.81405721  0.13999788  0.43039346  1  1.566909  0  0.25656  0.678149  0  4.105112  0
C  C156  1  0.06960083  0.18594458  0.63999347  1  1.567758  0  0.256595  0.678212  0  4.104808  0
C  C157  1  0.43039435  0.81405340  0.13999647  1  1.567683  0  0.256593  0.678244  0  4.104803  0
C  C158  1  0.56960923  0.31405221  0.36000672  1  1.56764  0  0.256512  0.678025  0  4.105074  0
C  C159  1  0.93039606  0.68594246  0.86000322  1  1.56773  0  0.256495  0.678048  0  4.105184  0
C  C160  1  0.63999573  0.06960746  0.18594741  1  1.567774  0  0.25656  0.678097  0  4.104907  0
C  C161  1  0.13999874  0.43039906  0.81405747  1  1.56768  0  0.256533  0.678188  0  4.10484  0
C  C162  1  0.36000315  0.56960643  0.31405345  1  1.567722  0  0.256559  0.678149  0  4.104911  0
C  C163  1  0.86000357  0.93039833  0.68594513  1  1.567717  0  0.256461  0.678128  0  4.10514  0
N  N164  1  0.02806873  0.63267243  0.38217395  1  -1.298356  0  -0.592094  -0.60933  0  3.389067  0
N  N165  1  0.47192924  0.36732646  0.88216922  1  -1.29829  0  -0.592029  -0.609181  0  3.38917  0
N  N166  1  0.52806975  0.86732371  0.61782635  1  -1.298484  0  -0.592135  -0.609426  0  3.389053  0
N  N167  1  0.97193132  0.13267435  0.11782534  1  -1.298929  0  -0.592107  -0.609437  0  3.389154  0
N  N168  1  0.38217067  0.02806905  0.63267530  1  -1.298401  0  -0.592115  -0.609319  0  3.389259  0
N  N169  1  0.11783092  0.97192966  0.13267120  1  -1.298431  0  -0.592062  -0.60926  0  3.388931  0
N  N170  1  0.88217342  0.47193143  0.36732879  1  -1.298639  0  -0.592089  -0.609168  0  3.389212  0
N  N171  1  0.61782618  0.52807111  0.86732746  1  -1.298381  0  -0.59208  -0.609418  0  3.389005  0
N  N172  1  0.63267184  0.38217195  0.02806754  1  -1.298374  0  -0.592089  -0.609429  0  3.389172  0
N  N173  1  0.13267204  0.11783102  0.97193229  1  -1.298148  0  -0.59205  -0.609292  0  3.389146  0
N  N174  1  0.36732858  0.88217054  0.47193265  1  -1.2985  0  -0.592078  -0.60924  0  3.389222  0
N  N175  1  0.86732872  0.61782917  0.52807099  1  -1.298206  0  -0.592087  -0.60934  0  3.389008  0
O  O176  1  0.25576680  0.59356443  0.10574265  1  -1.197129  0  -0.369509  -0.643862  0  2.295728  0
O  O177  1  0.24423249  0.40643147  0.60574588  1  -1.197167  0  -0.369581  -0.643943  0  2.295887  0
O  O178  1  0.75576848  0.90643289  0.89425247  1  -1.197193  0  -0.369556  -0.643889  0  2.295829  0
O  O179  1  0.74423485  0.09356816  0.39425385  1  -1.197145  0  -0.36957  -0.643929  0  2.29585  0
O  O180  1  0.10574211  0.25577005  0.59356155  1  -1.197204  0  -0.369641  -0.644  0  2.295703  0
O  O181  1  0.39425712  0.74423305  0.09356450  1  -1.197191  0  -0.369551  -0.643934  0  2.295881  0
O  O182  1  0.60574605  0.24422945  0.40643526  1  -1.197195  0  -0.369536  -0.643864  0  2.29604  0
O  O183  1  0.89425592  0.75576798  0.90643714  1  -1.197131  0  -0.369568  -0.643911  0  2.295696  0
O  O184  1  0.59356971  0.10574775  0.25576899  1  -1.197205  0  -0.369548  -0.643848  0  2.295917  0
O  O185  1  0.09356244  0.39425969  0.74423277  1  -1.197103  0  -0.369572  -0.643953  0  2.295652  0
O  O186  1  0.40643547  0.60574380  0.24423466  1  -1.197182  0  -0.369527  -0.643893  0  2.295854  0
O  O187  1  0.90643930  0.89425646  0.75576776  1  -1.197176  0  -0.369526  -0.643911  0  2.295839  0
O  O188  1  0.91066286  0.89203514  0.05593467  1  -1.207389  0  -0.376435  -0.657668  0  2.281082  0
O  O189  1  0.58933142  0.10796449  0.55593051  1  -1.207475  0  -0.376473  -0.657732  0  2.280994  0
O  O190  1  0.41066796  0.60796798  0.94406634  1  -1.207637  0  -0.376479  -0.657713  0  2.281068  0
O  O191  1  0.08933251  0.39203364  0.44406692  1  -1.207416  0  -0.376453  -0.657725  0  2.281005  0
O  O192  1  0.05593572  0.91066420  0.89203632  1  -1.207284  0  -0.376448  -0.657716  0  2.280977  0
O  O193  1  0.44406804  0.08933108  0.39203238  1  -1.207771  0  -0.3764  -0.657687  0  2.281209  0
O  O194  1  0.55593291  0.58933253  0.10796270  1  -1.207479  0  -0.376433  -0.657644  0  2.281138  0
O  O195  1  0.94406452  0.41066268  0.60796274  1  -1.207345  0  -0.376484  -0.65781  0  2.28103  0
O  O196  1  0.89203464  0.05593536  0.91066699  1  -1.207336  0  -0.376473  -0.657769  0  2.281  0
O  O197  1  0.39203711  0.44407009  0.08933572  1  -1.207545  0  -0.376459  -0.657721  0  2.281047  0
O  O198  1  0.10796568  0.55593588  0.58933786  1  -1.207287  0  -0.376482  -0.657769  0  2.280899  0
O  O199  1  0.60796234  0.94406636  0.41066719  1  -1.207366  0  -0.376494  -0.657767  0  2.281193  0
O  O200  1  0.17882181  0.65847405  0.98084520  1  -1.208138  0  -0.376388  -0.661254  0  2.354375  0
O  O201  1  0.32117456  0.34152749  0.48084504  1  -1.208073  0  -0.376481  -0.661243  0  2.354255  0
O  O202  1  0.67882747  0.84153076  0.01915666  1  -1.208094  0  -0.376444  -0.661171  0  2.354347  0
O  O203  1  0.82117878  0.15847110  0.51915441  1  -1.208041  0  -0.37646  -0.661231  0  2.354338  0
O  O204  1  0.98084394  0.17882267  0.65847146  1  -1.208126  0  -0.376448  -0.661276  0  2.354375  0
O  O205  1  0.51915664  0.82117387  0.15847000  1  -1.208081  0  -0.376476  -0.661263  0  2.354181  0
O  O206  1  0.48084476  0.32117667  0.34153605  1  -1.207987  0  -0.376462  -0.661171  0  2.354141  0
O  O207  1  0.01915226  0.67882230  0.84152523  1  -1.208102  0  -0.376402  -0.661177  0  2.354453  0
O  O208  1  0.65846991  0.98084257  0.17882510  1  -1.208055  0  -0.37647  -0.661228  0  2.354132  0
O  O209  1  0.15847685  0.51915587  0.82117379  1  -1.208114  0  -0.376413  -0.66126  0  2.354324  0
O  O210  1  0.34153154  0.48084315  0.32117415  1  -1.208063  0  -0.376453  -0.6612  0  2.354156  0
O  O211  1  0.84152720  0.01915463  0.67882183  1  -1.208137  0  -0.376388  -0.66124  0  2.354477  0
O  O212  1  0.81615880  0.84471360  0.17719784  1  -1.193003  0  -0.366337  -0.636997  0  2.277537  0
O  O213  1  0.68383257  0.15529078  0.67719411  1  -1.19336  0  -0.366288  -0.636862  0  2.277664  0
O  O214  1  0.31616230  0.65529636  0.82280264  1  -1.193574  0  -0.366337  -0.636958  0  2.277556  0
O  O215  1  0.18383749  0.34470910  0.32280672  1  -1.193582  0  -0.366385  -0.637002  0  2.277658  0
O  O216  1  0.17720114  0.81616343  0.84470452  1  -1.193027  0  -0.366348  -0.636925  0  2.277597  0
O  O217  1  0.32280953  0.18383626  0.34470830  1  -1.193403  0  -0.366296  -0.636851  0  2.277538  0
O  O218  1  0.67719532  0.68383709  0.15529088  1  -1.193339  0  -0.366338  -0.636963  0  2.277461  0
O  O219  1  0.82279807  0.31616160  0.65528758  1  -1.193109  0  -0.366344  -0.637001  0  2.277611  0
O  O220  1  0.84470768  0.17720067  0.81616280  1  -1.193029  0  -0.366315  -0.636921  0  2.277597  0
O  O221  1  0.34471334  0.32280713  0.18383893  1  -1.193511  0  -0.366363  -0.637005  0  2.277626  0
O  O222  1  0.15529355  0.67720150  0.68383748  1  -1.193  0  -0.36635  -0.636913  0  2.277644  0
O  O223  1  0.65529235  0.82280699  0.31616568  1  -1.19338  0  -0.366288  -0.636836  0  2.2776  0
