# generated using pymatgen
data_MnH10C14(NO2)2
_symmetry_space_group_name_H-M   'P 1'
_cell_length_a   7.73875284
_cell_length_b   9.31304905
_cell_length_c   9.76670908
_cell_angle_alpha   97.23823992
_cell_angle_beta   104.99009652
_cell_angle_gamma   108.46851468
_symmetry_Int_Tables_number   1
_chemical_formula_structural   MnH10C14(NO2)2
_chemical_formula_sum   'Mn2 H20 C28 N4 O8'
_cell_volume   628.10041363
_cell_formula_units_Z   2
loop_
 _symmetry_equiv_pos_site_id
 _symmetry_equiv_pos_as_xyz
  1  'x, y, z'
loop_
 _atom_site_type_symbol
 _atom_site_label
 _atom_site_symmetry_multiplicity
 _atom_site_fract_x
 _atom_site_fract_y
 _atom_site_fract_z
 _atom_site_occupancy
 _atom_site_hle17_ddec_charge
 _atom_site_hle17_ddec_spin_density
 _atom_site_hle17_ddec_sum_bond_order
 _atom_site_hle17_magmom
 _atom_site_hse06_10hf_ddec_charge
 _atom_site_hse06_10hf_ddec_spin_density
 _atom_site_hse06_10hf_ddec_sum_bond_order
 _atom_site_hse06_10hf_magmom
 _atom_site_hse06_ddec_charge
 _atom_site_hse06_ddec_spin_density
 _atom_site_hse06_ddec_sum_bond_order
 _atom_site_hse06_magmom
 _atom_site_pbe_cm5_charge
 _atom_site_pbe_ddec_charge
 _atom_site_pbe_ddec_spin_density
 _atom_site_pbe_ddec_sum_bond_order
 _atom_site_pbe_magmom
Mn  Mn0  1  0.71187584  0.96093937  0.51801458  1  1.138137  -4.786648  1.821758  -4.669  0.968798  -4.703171  2.322975  -4.518  1.024629  -4.753059  2.25523  -4.588  0.614412  0.926352  -4.646854  2.374823  -4.442
Mn  Mn1  1  0.28813312  0.03906002  0.48198314  1  1.138151  -4.786646  1.821752  -4.669  0.968787  -4.703154  2.322991  -4.518  1.024624  -4.753046  2.255238  -4.588  0.614396  0.926343  -4.646837  2.374839  -4.442
H  H2  1  0.72906459  0.42356999  0.33689703  1  0.108778  -0.000119  0.94566  0.0  0.118282  -0.000726  1.008853  0.0  0.121327  -0.00045  1.007239  0.0  0.105266  0.115668  -0.001054  1.011551  -0.001
H  H3  1  0.27095051  0.57643399  0.66310968  1  0.108713  -0.000116  0.945697  0.0  0.118232  -0.000727  1.00888  0.0  0.121276  -0.00045  1.007268  0.0  0.105251  0.115622  -0.001055  1.011574  -0.001
H  H4  1  0.05282392  0.42876222  0.39044457  1  0.10595  -6.4e-05  0.973243  0.0  0.114009  -5.8e-05  1.039423  0.0  0.117294  -1.5e-05  1.038613  0.0  0.098055  0.111311  -0.000188  1.041006  0.0
H  H5  1  0.94718878  0.57123946  0.60955522  1  0.105997  -8.7e-05  0.973219  0.0  0.114018  -5.8e-05  1.039433  0.0  0.117303  -1.5e-05  1.038621  0.0  0.098069  0.111318  -0.000188  1.041018  0.0
H  H6  1  0.97412223  0.98449252  0.83700100  1  0.077602  0.000215  0.949853  0.0  0.086318  -0.000111  1.013266  0.0  0.088057  1.3e-05  1.011947  0.0  0.119442  0.085154  -0.000247  1.014247  0.0
H  H7  1  0.02587631  0.01550464  0.16300146  1  0.077628  0.000207  0.94984  0.0  0.086339  -0.000111  1.01326  0.0  0.088079  1.3e-05  1.01194  0.0  0.119471  0.085177  -0.000247  1.014238  0.0
H  H8  1  0.22384692  0.18616784  0.04843091  1  0.128575  -0.000215  0.975824  0.0  0.135638  -0.000286  1.040761  0.0  0.139641  -0.000206  1.038542  0.0  0.110714  0.132779  -0.000337  1.042218  0.0
H  H9  1  0.77614870  0.81383169  0.95157329  1  0.128525  -0.000206  0.975859  0.0  0.135617  -0.000286  1.040771  0.0  0.139619  -0.000206  1.038553  0.0  0.110709  0.132762  -0.000337  1.042217  0.0
H  H10  1  0.06519898  0.52950446  0.83990015  1  0.097376  -0.000195  0.982307  0.0  0.107085  -0.000233  1.04669  0.0  0.108987  -0.00017  1.047771  0.0  0.102914  0.105817  -0.000318  1.045983  0.0
H  H11  1  0.93479292  0.47049279  0.16009788  1  0.097372  -0.000192  0.982297  0.0  0.107052  -0.000233  1.046712  0.0  0.108948  -0.00017  1.047809  0.0  0.1029  0.105793  -0.000318  1.045997  0.0
H  H12  1  0.83244068  0.31229665  0.63308335  1  0.063003  -1e-06  0.9907  0.0  0.069001  -0.00043  1.063368  0.0  0.07009  -0.000248  1.063497  0.0  0.109828  0.068332  -0.000621  1.063126  -0.001
H  H13  1  0.16755546  0.68769821  0.36691424  1  0.06299  3e-06  0.990714  0.0  0.068994  -0.00043  1.063378  0.0  0.070079  -0.000249  1.0635  0.0  0.109826  0.068322  -0.000621  1.063144  -0.001
H  H14  1  0.29726045  0.37125549  0.25321560  1  0.119789  0.000174  0.971634  0.0  0.125344  0.000105  1.039136  0.0  0.128912  0.000195  1.038162  0.0  0.107529  0.123269  5.4e-05  1.038817  0.0
H  H15  1  0.70273253  0.62874408  0.74678396  1  0.11976  0.000173  0.971708  0.0  0.125339  0.000105  1.039176  0.0  0.128906  0.000195  1.038202  0.0  0.107534  0.123262  5.4e-05  1.038858  0.0
H  H16  1  0.51488721  0.60047086  0.45344650  1  0.074758  2e-05  0.956643  0.0  0.084106  -0.000358  1.021348  0.0  0.08594  -0.000195  1.019845  0.0  0.115204  0.082723  -0.000532  1.022706  -0.001
H  H17  1  0.48510632  0.39952987  0.54655229  1  0.074698  2e-05  0.956641  0.0  0.084052  -0.000358  1.021345  0.0  0.085884  -0.000195  1.019845  0.0  0.115176  0.08267  -0.000532  1.022704  -0.001
H  H18  1  0.36414587  0.68117754  0.95688270  1  0.1109  -0.000213  0.965552  0.0  0.119028  -0.000346  1.030001  0.0  0.122348  -0.000248  1.028651  0.0  0.10622  0.116639  -0.000431  1.031041  0.0
H  H19  1  0.63584391  0.31882090  0.04311606  1  0.110857  -0.000212  0.965571  0.0  0.118983  -0.000346  1.030041  0.0  0.122304  -0.000248  1.02869  0.0  0.106199  0.116595  -0.000431  1.031084  0.0
H  H20  1  0.57027491  0.89398674  0.17061773  1  0.092098  0.000179  0.93357  0.0  0.100398  -0.000103  0.993904  0.0  0.102913  3.7e-05  0.991813  0.0  0.123191  0.098995  -0.000205  0.994637  0.0
H  H21  1  0.42971517  0.10601522  0.82937845  1  0.092115  0.000176  0.933559  0.0  0.100413  -0.000103  0.99391  0.0  0.102914  3.7e-05  0.991838  0.0  0.123212  0.099015  -0.000204  0.99463  0.0
C  C22  1  0.57440554  0.17788124  0.31725837  1  0.697616  -0.007439  3.893614  -0.008  0.645839  -0.014238  4.196032  -0.013  0.680914  -0.009637  4.185828  -0.009  0.216652  0.621475  -0.018524  4.20135  -0.016
C  C23  1  0.42560158  0.82212284  0.68274568  1  0.697828  -0.007431  3.893604  -0.008  0.646027  -0.014236  4.19606  -0.013  0.681093  -0.009635  4.185869  -0.009  0.216698  0.62166  -0.018522  4.201388  -0.016
C  C24  1  0.75521819  0.31610785  0.34807424  1  -0.144954  -0.009501  3.65384  -0.008  -0.166204  -0.010989  3.915864  -0.009  -0.163424  -0.008304  3.921978  -0.007  -0.077618  -0.169646  -0.016688  3.914152  -0.013
C  C25  1  0.24479746  0.68389730  0.65192966  1  -0.144957  -0.00958  3.654009  -0.008  -0.166239  -0.010989  3.916095  -0.009  -0.163455  -0.008306  3.922211  -0.007  -0.077691  -0.169685  -0.016688  3.914389  -0.013
C  C26  1  0.93624485  0.31952691  0.37673857  1  -0.224881  0.0063  3.717262  0.004  -0.24154  0.002009  3.974211  0.001  -0.248328  0.003914  3.984959  0.002  -0.106185  -0.237274  0.001512  3.968246  0.001
C  C27  1  0.06376917  0.68047475  0.62326457  1  -0.224816  0.006457  3.71743  0.004  -0.241446  0.002008  3.974324  0.001  -0.248234  0.003916  3.985072  0.002  -0.106105  -0.237179  0.001512  3.968362  0.001
C  C28  1  0.99461586  0.18361725  0.38880578  1  0.697607  -0.013634  3.884429  -0.013  0.648784  -0.022592  4.172853  -0.02  0.686162  -0.01684  4.162226  -0.016  0.213065  0.621958  -0.029026  4.179797  -0.025
C  C29  1  0.00539630  0.81638327  0.61119274  1  0.697327  -0.013631  3.884757  -0.013  0.648637  -0.022592  4.173005  -0.02  0.686016  -0.016841  4.162378  -0.016  0.212891  0.621813  -0.029027  4.179952  -0.025
C  C30  1  0.00068963  0.10713280  0.84152446  1  0.160009  -0.003175  3.681514  -0.004  0.127314  -0.004801  3.936752  -0.005  0.135585  -0.004099  3.953059  -0.004  0.058478  0.121279  -0.006007  3.926592  -0.005
C  C31  1  0.99930813  0.89286554  0.15847594  1  0.160021  -0.003066  3.681406  -0.003  0.127313  -0.004802  3.936663  -0.005  0.135584  -0.0041  3.952971  -0.004  0.058491  0.12128  -0.006007  3.926501  -0.005
C  C32  1  0.13718919  0.22046248  0.96082844  1  -0.167209  0.002002  3.669863  0.001  -0.182659  0.000796  3.91336  0.0  -0.190587  0.001589  3.933463  0.001  -0.080602  -0.177371  0.000239  3.899773  0.0
C  C33  1  0.86280777  0.77953704  0.03917398  1  -0.167173  0.001859  3.669832  0.001  -0.182657  0.000796  3.913315  0.0  -0.190584  0.001591  3.933419  0.001  -0.080606  -0.177367  0.000239  3.899729  0.0
C  C34  1  0.16702775  0.37758469  0.96260353  1  0.095784  -0.002655  3.760243  -0.002  0.10698  -0.00396  3.988982  -0.003  0.110984  -0.003448  4.010528  -0.003  0.010354  0.10449  -0.005204  3.974331  -0.004
C  C35  1  0.83296522  0.62241488  0.03739602  1  0.095776  -0.002583  3.760182  -0.002  0.107015  -0.003958  3.988868  -0.003  0.111018  -0.003451  4.010416  -0.003  0.010371  0.104524  -0.005204  3.974224  -0.004
C  C36  1  0.05373856  0.41061775  0.84280926  1  -0.168989  0.001986  3.730708  0.001  -0.185035  0.000902  3.973766  0.0  -0.193253  0.001656  3.997481  0.001  -0.088166  -0.179846  6.5e-05  3.958332  0.0
C  C37  1  0.94625708  0.58938179  0.15718983  1  -0.16897  0.001909  3.730755  0.001  -0.184988  0.0009  3.973781  0.0  -0.193208  0.001659  3.997493  0.001  -0.088163  -0.179809  6.5e-05  3.95834  0.0
C  C38  1  0.92245543  0.29013725  0.72757001  1  0.128898  -0.003667  3.724369  -0.004  0.101016  -0.005777  3.972603  -0.005  0.106846  -0.004958  3.993522  -0.004  0.047246  0.097218  -0.006751  3.958137  -0.006
C  C39  1  0.07754124  0.70985877  0.27242886  1  0.12887  -0.003617  3.72444  -0.003  0.100974  -0.005777  3.972661  -0.005  0.106814  -0.004958  3.99357  -0.004  0.047231  0.097174  -0.006751  3.958202  -0.006
C  C40  1  0.47576442  0.61170846  0.34091717  1  0.116025  -0.001031  3.730966  -0.001  0.087631  -0.003103  3.985367  -0.003  0.093366  -0.002308  4.005156  -0.002  0.044039  0.08342  -0.004057  3.972232  -0.003
C  C41  1  0.52422858  0.38829112  0.65907829  1  0.116135  -0.001045  3.730861  -0.001  0.087723  -0.003104  3.985287  -0.003  0.093459  -0.002307  4.005075  -0.002  0.044096  0.083509  -0.004058  3.972151  -0.003
C  C42  1  0.35630572  0.48398087  0.22806381  1  -0.170356  -0.000314  3.702982  0.0  -0.187268  -0.000647  3.95215  -0.001  -0.195619  -0.000213  3.974059  0.0  -0.085298  -0.181245  -0.001049  3.936677  -0.001
C  C43  1  0.64368593  0.51601872  0.77193445  1  -0.170351  -0.000261  3.702993  0.0  -0.187267  -0.000648  3.952161  -0.001  -0.195617  -0.000214  3.974068  0.0  -0.085317  -0.181245  -0.001049  3.936689  -0.001
C  C44  1  0.30706851  0.50538465  0.08517310  1  0.092281  -0.000693  3.764123  -0.001  0.104375  -0.002179  3.993617  -0.002  0.108167  -0.001634  4.015431  -0.001  0.010822  0.101686  -0.003017  3.979053  -0.002
C  C45  1  0.69292126  0.49461378  0.91482668  1  0.09225  -0.000741  3.764153  -0.001  0.104331  -0.002178  3.993669  -0.002  0.108124  -0.001633  4.01548  -0.001  0.010829  0.101641  -0.003018  3.979104  -0.002
C  C46  1  0.38856529  0.65545913  0.06456833  1  -0.154299  -0.000194  3.681829  0.0  -0.171612  -0.000573  3.927918  -0.001  -0.178588  -0.000107  3.947848  0.0  -0.079321  -0.167255  -0.001269  3.914883  -0.001
C  C47  1  0.61143035  0.34454042  0.93542973  1  -0.154241  -0.00018  3.681907  0.0  -0.17158  -0.000573  3.92806  -0.001  -0.178553  -0.000109  3.947983  0.0  -0.079319  -0.167227  -0.001269  3.915028  -0.001
C  C48  1  0.50721730  0.77639875  0.18417970  1  0.149231  -0.001123  3.677592  -0.001  0.118529  -0.002913  3.931814  -0.003  0.126361  -0.002215  3.948226  -0.002  0.059093  0.113453  -0.003783  3.920113  -0.003
C  C49  1  0.49277169  0.22360087  0.81581802  1  0.149213  -0.001107  3.677471  -0.001  0.118498  -0.002915  3.931748  -0.003  0.126336  -0.002212  3.948147  -0.002  0.059039  0.113422  -0.003784  3.92005  -0.003
N  N50  1  0.89540562  0.13982471  0.72507132  1  -0.325758  -0.024829  3.218372  -0.012  -0.258159  -0.028813  3.496773  -0.011  -0.276212  -0.025538  3.509968  -0.009  -0.312766  -0.245342  -0.031848  3.488267  -0.014
N  N51  1  0.10459347  0.86017362  0.27492833  1  -0.325771  -0.024907  3.218255  -0.012  -0.258163  -0.028812  3.496651  -0.011  -0.276222  -0.025538  3.509851  -0.009  -0.312801  -0.245346  -0.031847  3.488146  -0.014
N  N52  1  0.54949878  0.75639061  0.32110894  1  -0.317496  -0.024895  3.213941  -0.015  -0.250344  -0.028375  3.484866  -0.016  -0.268574  -0.025591  3.500851  -0.014  -0.311859  -0.237167  -0.031182  3.473958  -0.018
N  N53  1  0.45049367  0.24360781  0.67888730  1  -0.317512  -0.024901  3.213744  -0.015  -0.250325  -0.028374  3.484645  -0.016  -0.268555  -0.025596  3.500627  -0.014  -0.311831  -0.237149  -0.031182  3.473736  -0.018
O  O54  1  0.54818271  0.11557544  0.42609267  1  -0.700744  -0.052398  2.112996  -0.027  -0.61964  -0.06588  2.40546  -0.034  -0.654564  -0.059999  2.388132  -0.03  -0.31344  -0.593039  -0.072418  2.416363  -0.04
O  O55  1  0.45182624  0.88442394  0.57390914  1  -0.700806  -0.052399  2.112962  -0.027  -0.619684  -0.065881  2.40542  -0.034  -0.654605  -0.06  2.3881  -0.03  -0.313431  -0.593082  -0.072419  2.416323  -0.04
O  O56  1  0.45843101  0.13881047  0.19197241  1  -0.576222  -0.006743  1.867357  -0.008  -0.533191  -0.012262  2.082313  -0.014  -0.557494  -0.009502  2.074691  -0.011  -0.298898  -0.515212  -0.015767  2.085325  -0.017
O  O57  1  0.54157695  0.86119827  0.80803135  1  -0.57632  -0.006755  1.867373  -0.008  -0.5333  -0.012262  2.082366  -0.014  -0.557598  -0.009502  2.074744  -0.011  -0.298923  -0.515322  -0.015767  2.085382  -0.017
O  O58  1  0.87244604  0.05333641  0.38666794  1  -0.660838  -0.033667  2.106552  -0.018  -0.594303  -0.043112  2.383799  -0.024  -0.624809  -0.037477  2.369738  -0.019  -0.310093  -0.571172  -0.048873  2.393515  -0.029
O  O59  1  0.12756903  0.94666174  0.61333191  1  -0.660855  -0.033671  2.106537  -0.018  -0.594378  -0.043113  2.383753  -0.024  -0.624877  -0.037477  2.369679  -0.019  -0.310112  -0.571233  -0.048874  2.393439  -0.029
O  O60  1  0.16966964  0.20476659  0.39825256  1  -0.642672  -0.037466  2.00326  -0.027  -0.57848  -0.047778  2.265344  -0.034  -0.607031  -0.040944  2.250665  -0.027  -0.308245  -0.557413  -0.055623  2.274952  -0.041
O  O61  1  0.83033935  0.79523282  0.60173903  1  -0.642455  -0.037463  2.003358  -0.027  -0.578359  -0.04778  2.265449  -0.034  -0.606913  -0.040947  2.250773  -0.027  -0.308127  -0.557291  -0.055625  2.275054  -0.041
