# generated using pymatgen
data_HgH9C12Br2N2Cl
_symmetry_space_group_name_H-M   'P 1'
_cell_length_a   4.74194975
_cell_length_b   16.48314615
_cell_length_c   17.61315704
_cell_angle_alpha   90.00006733
_cell_angle_beta   90.00003730
_cell_angle_gamma   90.00017966
_symmetry_Int_Tables_number   1
_chemical_formula_structural   HgH9C12Br2N2Cl
_chemical_formula_sum   'Hg4 H36 C48 Br8 N8 Cl4'
_cell_volume   1376.68399577
_cell_formula_units_Z   4
loop_
 _symmetry_equiv_pos_site_id
 _symmetry_equiv_pos_as_xyz
  1  'x, y, z'
loop_
 _atom_site_type_symbol
 _atom_site_label
 _atom_site_symmetry_multiplicity
 _atom_site_fract_x
 _atom_site_fract_y
 _atom_site_fract_z
 _atom_site_occupancy
 _atom_site_hle17_bader_spin_density
 _atom_site_hle17_ddec_charge
 _atom_site_hle17_ddec_spin_density
 _atom_site_hle17_ddec_sum_bond_order
 _atom_site_hle17_magmom
 _atom_site_hse06_10hf_bader_spin_density
 _atom_site_hse06_10hf_ddec_charge
 _atom_site_hse06_10hf_ddec_spin_density
 _atom_site_hse06_10hf_ddec_sum_bond_order
 _atom_site_hse06_10hf_magmom
 _atom_site_hse06_bader_spin_density
 _atom_site_hse06_ddec_charge
 _atom_site_hse06_ddec_spin_density
 _atom_site_hse06_ddec_sum_bond_order
 _atom_site_hse06_magmom
 _atom_site_pbe_bader_spin_density
 _atom_site_pbe_cm5_charge
 _atom_site_pbe_ddec_charge
 _atom_site_pbe_ddec_spin_density
 _atom_site_pbe_ddec_sum_bond_order
 _atom_site_pbe_magmom
Hg  Hg0  1  0.97533856  0.14611241  0.47483213  1  0  0.651085  0  2.11046  0  0  0.512946  0  2.61174  0  0  0.559833  0  2.582173  0  0  0.423974  0.481213  0  2.631538  0
Hg  Hg1  1  0.52465708  0.85388942  0.97483257  1  0  0.651071  0  2.110436  0  0  0.512921  0  2.61174  0  0  0.559808  0  2.58217  0  0  0.423959  0.481188  0  2.631536  0
Hg  Hg2  1  0.47534078  0.35388808  0.52516844  1  0  0.651104  0  2.110436  0  0  0.512968  0  2.611717  0  0  0.559859  0  2.582143  0  0  0.423976  0.481234  0  2.631516  0
Hg  Hg3  1  0.02465585  0.64611090  0.02516847  1  0  0.65106  0  2.110443  0  0  0.512911  0  2.611738  0  0  0.559799  0  2.582168  0  0  0.423955  0.481178  0  2.631534  0
H  H4  1  0.37276398  0.99346491  0.43788914  1  0  0.072165  0  0.978727  0  0  0.073655  0  1.056207  0  0  0.077055  0  1.052622  0  0  0.095128  0.071177  0  1.058868  0
H  H5  1  0.12723363  0.00653763  0.93788866  1  0  0.072156  0  0.97869  0  0  0.073626  0  1.056182  0  0  0.077027  0  1.052601  0  0  0.095133  0.071148  0  1.058846  0
H  H6  1  0.87277100  0.50653633  0.56211139  1  0  0.072167  0  0.978743  0  0  0.07369  0  1.056203  0  0  0.077095  0  1.052611  0  0  0.095139  0.071212  0  1.058865  0
H  H7  1  0.62722998  0.49346255  0.06211071  1  0  0.072216  0  0.978683  0  0  0.073719  0  1.056152  0  0  0.077123  0  1.052566  0  0  0.095165  0.071241  0  1.058815  0
H  H8  1  0.73582939  0.90035667  0.49327158  1  0  0.111748  0  0.972396  0  0  0.119568  0  1.039047  0  0  0.122944  0  1.037888  0  0  0.107545  0.117154  0  1.040067  0
H  H9  1  0.76417262  0.09964457  0.99327407  1  0  0.111777  0  0.972368  0  0  0.119605  0  1.039007  0  0  0.122984  0  1.037846  0  0  0.107578  0.117192  0  1.040029  0
H  H10  1  0.23583934  0.59964323  0.50672779  1  0  0.111722  0  0.972423  0  0  0.119593  0  1.038996  0  0  0.122967  0  1.037832  0  0  0.107571  0.117178  0  1.040017  0
H  H11  1  0.26416778  0.40035452  0.00672646  1  0  0.111742  0  0.972408  0  0  0.119575  0  1.039032  0  0  0.122952  0  1.03787  0  0  0.107565  0.117161  0  1.040054  0
H  H12  1  0.60456662  0.01950489  0.70907340  1  0  0.111247  0  0.958945  0  0  0.120013  0  1.022581  0  0  0.123863  0  1.020807  0  0  0.095844  0.117242  0  1.024055  0
H  H13  1  0.89543472  0.98049418  0.20907500  1  0  0.111229  0  0.958932  0  0  0.119992  0  1.022581  0  0  0.123842  0  1.020809  0  0  0.095839  0.117234  0  1.024042  0
H  H14  1  0.10456121  0.48049406  0.29092654  1  0  0.111248  0  0.958969  0  0  0.120015  0  1.022597  0  0  0.123865  0  1.020822  0  0  0.095852  0.117245  0  1.024069  0
H  H15  1  0.39543183  0.51950526  0.79092553  1  0  0.111265  0  0.958986  0  0  0.120025  0  1.022627  0  0  0.123874  0  1.020852  0  0  0.095853  0.117253  0  1.024102  0
H  H16  1  0.25420059  0.10892208  0.64434680  1  0  0.066216  0  0.9895  0  0  0.069252  0  1.067877  0  0  0.072332  0  1.064533  0  0  0.093062  0.066992  0  1.070348  0
H  H17  1  0.24580053  0.89107948  0.14434544  1  0  0.066264  0  0.989469  0  0  0.069292  0  1.067847  0  0  0.072368  0  1.064515  0  0  0.093085  0.067033  0  1.070317  0
H  H18  1  0.75419232  0.39107821  0.35565486  1  0  0.066248  0  0.989406  0  0  0.069269  0  1.067802  0  0  0.072341  0  1.064485  0  0  0.093065  0.067009  0  1.070273  0
H  H19  1  0.74580304  0.60892104  0.85565336  1  0  0.066241  0  0.989479  0  0  0.069257  0  1.067876  0  0  0.072336  0  1.064536  0  0  0.093074  0.066995  0  1.070345  0
H  H20  1  0.94130211  0.90605666  0.70274512  1  0  0.063286  0  0.944114  0  0  0.071796  0  1.013912  0  0  0.075868  0  1.009181  0  0  0.100939  0.06882  0  1.017461  0
H  H21  1  0.55869710  0.09394361  0.20274513  1  0  0.063268  0  0.944133  0  0  0.07179  0  1.013905  0  0  0.075862  0  1.009173  0  0  0.100919  0.068812  0  1.01746  0
H  H22  1  0.44129885  0.59394282  0.29725599  1  0  0.06327  0  0.944157  0  0  0.07179  0  1.013923  0  0  0.075863  0  1.00919  0  0  0.100921  0.068814  0  1.017476  0
H  H23  1  0.05869420  0.40605651  0.79725480  1  0  0.063255  0  0.944154  0  0  0.07176  0  1.013943  0  0  0.075831  0  1.00921  0  0  0.100942  0.068784  0  1.017495  0
H  H24  1  0.26882525  0.83778604  0.74742867  1  0  0.099986  0  0.969415  0  0  0.10865  0  1.035251  0  0  0.111752  0  1.03315  0  0  0.091852  0.106369  0  1.036952  0
H  H25  1  0.23118245  0.16221444  0.24742594  1  0  0.099946  0  0.969501  0  0  0.108635  0  1.035312  0  0  0.111727  0  1.03321  0  0  0.091842  0.106356  0  1.037014  0
H  H26  1  0.76882267  0.66221450  0.25257128  1  0  0.099982  0  0.969438  0  0  0.108639  0  1.035275  0  0  0.111724  0  1.033192  0  0  0.091859  0.106361  0  1.036975  0
H  H27  1  0.73117033  0.33778583  0.75257232  1  0  0.10001  0  0.969425  0  0  0.108659  0  1.035275  0  0  0.111747  0  1.033184  0  0  0.091861  0.106379  0  1.036977  0
H  H28  1  0.62949286  0.74039645  0.78754979  1  0  0.103305  0  0.966375  0  0  0.110389  0  1.036728  0  0  0.113384  0  1.034969  0  0  0.087865  0.108133  0  1.0382  0
H  H29  1  0.87051077  0.25960211  0.28754890  1  0  0.103246  0  0.966345  0  0  0.110362  0  1.036679  0  0  0.113353  0  1.034928  0  0  0.087829  0.108105  0  1.03816  0
H  H30  1  0.12949331  0.75960518  0.21245070  1  0  0.103236  0  0.96638  0  0  0.110344  0  1.036724  0  0  0.113336  0  1.034972  0  0  0.087855  0.108092  0  1.038197  0
H  H31  1  0.37050165  0.24039586  0.71245052  1  0  0.103266  0  0.96639  0  0  0.110345  0  1.03676  0  0  0.113335  0  1.035013  0  0  0.087838  0.108091  0  1.038237  0
H  H32  1  0.66111407  0.64104636  0.56074656  1  0  0.105066  0  0.965228  0  0  0.112055  0  1.03439  0  0  0.11486  0  1.032719  0  0  0.101154  0.109996  0  1.035721  0
H  H33  1  0.83888691  0.35895434  0.06074747  1  0  0.105055  0  0.965244  0  0  0.112037  0  1.034418  0  0  0.11484  0  1.03275  0  0  0.101145  0.109979  0  1.035747  0
H  H34  1  0.16111402  0.85895409  0.43925393  1  0  0.105014  0  0.965253  0  0  0.112052  0  1.034363  0  0  0.114854  0  1.032697  0  0  0.101154  0.109994  0  1.035692  0
H  H35  1  0.33887937  0.14104542  0.93925364  1  0  0.105026  0  0.965211  0  0  0.112085  0  1.034295  0  0  0.114888  0  1.032628  0  0  0.101168  0.110025  0  1.035627  0
H  H36  1  0.30143972  0.74022444  0.51966195  1  0  0.102071  0  0.974816  0  0  0.109978  0  1.044062  0  0  0.112913  0  1.042388  0  0  0.103678  0.107836  0  1.045393  0
H  H37  1  0.19856111  0.25977757  0.01966103  1  0  0.102081  0  0.974851  0  0  0.110017  0  1.044047  0  0  0.112952  0  1.04237  0  0  0.103685  0.107875  0  1.045378  0
H  H38  1  0.80144086  0.75977552  0.48033857  1  0  0.1021  0  0.974777  0  0  0.109987  0  1.04403  0  0  0.112918  0  1.042357  0  0  0.103692  0.107846  0  1.04536  0
H  H39  1  0.69855690  0.24022328  0.98033779  1  0  0.102129  0  0.974857  0  0  0.11004  0  1.044087  0  0  0.112974  0  1.042413  0  0  0.103695  0.107898  0  1.045419  0
C  C40  1  0.43152049  0.99686663  0.49771317  1  0  0.10716  0  3.741344  0  0  0.081113  0  3.992642  0  0  0.087817  0  4.010447  0  0  0.030966  0.07681  0  3.980479  0
C  C41  1  0.06847726  0.00313538  0.99771382  1  0  0.107185  0  3.741381  0  0  0.081172  0  3.992669  0  0  0.08788  0  4.010459  0  0  0.030956  0.076869  0  3.980513  0
C  C42  1  0.93152312  0.50313406  0.50228794  1  0  0.107164  0  3.7415  0  0  0.081076  0  3.992803  0  0  0.087777  0  4.010593  0  0  0.030912  0.076774  0  3.980642  0
C  C43  1  0.56847562  0.49686475  0.00228668  1  0  0.107149  0  3.741387  0  0  0.081079  0  3.992692  0  0  0.087789  0  4.010465  0  0  0.030922  0.076775  0  3.980534  0
C  C44  1  0.63238910  0.94549427  0.52857305  1  0  -0.127508  0  3.667119  0  0  -0.147093  0  3.912518  0  0  -0.153109  0  3.931582  0  0  -0.078511  -0.143256  0  3.899722  0
C  C45  1  0.86761180  0.05450578  0.02857420  1  0  -0.12758  0  3.667235  0  0  -0.147209  0  3.912679  0  0  -0.153227  0  3.931747  0  0  -0.07856  -0.143361  0  3.899852  0
C  C46  1  0.13238794  0.55450372  0.47142744  1  0  -0.127536  0  3.667191  0  0  -0.147162  0  3.912621  0  0  -0.153208  0  3.931773  0  0  -0.078547  -0.143313  0  3.89979  0
C  C47  1  0.36761186  0.44549461  0.97142635  1  0  -0.127551  0  3.667176  0  0  -0.147184  0  3.912669  0  0  -0.153206  0  3.93176  0  0  -0.078569  -0.143336  0  3.89984  0
C  C48  1  0.70226133  0.95226308  0.60584711  1  0  0.09875  0  3.766193  0  0  0.111218  0  4.001179  0  0  0.11465  0  4.022358  0  0  0.007445  0.109121  0  3.986515  0
C  C49  1  0.79773554  0.04773767  0.10584767  1  0  0.098717  0  3.766214  0  0  0.111162  0  4.001222  0  0  0.114593  0  4.022405  0  0  0.007395  0.109067  0  3.986558  0
C  C50  1  0.20226413  0.54773679  0.39415226  1  0  0.098729  0  3.766156  0  0  0.111187  0  4.001138  0  0  0.114615  0  4.022312  0  0  0.007436  0.109092  0  3.98647  0
C  C51  1  0.29773338  0.45226205  0.89415173  1  0  0.098616  0  3.766255  0  0  0.111065  0  4.001259  0  0  0.114491  0  4.022447  0  0  0.007364  0.108971  0  3.986591  0
C  C52  1  0.56199540  0.01174235  0.64864413  1  0  -0.151477  0  3.678366  0  0  -0.169386  0  3.925777  0  0  -0.176784  0  3.945981  0  0  -0.08399  -0.164469  0  3.912093  0
C  C53  1  0.93800579  0.98825785  0.14864405  1  0  -0.151414  0  3.678316  0  0  -0.169317  0  3.92571  0  0  -0.176715  0  3.945918  0  0  -0.083961  -0.164412  0  3.91202  0
C  C54  1  0.06199023  0.48825777  0.35135580  1  0  -0.151477  0  3.678412  0  0  -0.169401  0  3.92584  0  0  -0.176792  0  3.946032  0  0  -0.083983  -0.164487  0  3.912157  0
C  C55  1  0.43800717  0.51174103  0.85135536  1  0  -0.15139  0  3.67838  0  0  -0.169277  0  3.925746  0  0  -0.176674  0  3.945953  0  0  -0.083928  -0.164361  0  3.912061  0
C  C56  1  0.36571139  0.06169933  0.61311332  1  0  0.117951  0  3.743504  0  0  0.087772  0  3.998405  0  0  0.09522  0  4.016897  0  0  0.031728  0.082883  0  3.985794  0
C  C57  1  0.13428966  0.93830098  0.11311256  1  0  0.117879  0  3.743539  0  0  0.087711  0  3.998424  0  0  0.095158  0  4.016911  0  0  0.031692  0.082822  0  3.985815  0
C  C58  1  0.86570582  0.43830106  0.38688780  1  0  0.117994  0  3.743496  0  0  0.087828  0  3.99837  0  0  0.095277  0  4.016849  0  0  0.031718  0.082937  0  3.98576  0
C  C59  1  0.63429383  0.56169823  0.88688680  1  0  0.117893  0  3.74358  0  0  0.087727  0  3.998467  0  0  0.095176  0  4.016957  0  0  0.031694  0.082838  0  3.985853  0
C  C60  1  0.91272304  0.89911254  0.64094813  1  0  0.112015  0  3.672285  0  0  0.082274  0  3.928909  0  0  0.089552  0  3.940627  0  0  0.071402  0.07745  0  3.920692  0
C  C61  1  0.58727813  0.10088765  0.14094929  1  0  0.112034  0  3.672365  0  0  0.082319  0  3.92893  0  0  0.089596  0  3.940648  0  0  0.071426  0.077495  0  3.920714  0
C  C62  1  0.41272422  0.60088752  0.35905127  1  0  0.112084  0  3.672396  0  0  0.082371  0  3.928944  0  0  0.089653  0  3.940655  0  0  0.07146  0.077548  0  3.92073  0
C  C63  1  0.08727320  0.39911249  0.85905065  1  0  0.11213  0  3.672457  0  0  0.082429  0  3.929027  0  0  0.08971  0  3.940745  0  0  0.071446  0.077607  0  3.920814  0
C  C64  1  0.25260370  0.79522734  0.63009136  1  0  0.188083  0  3.834145  0  0  0.190701  0  4.080833  0  0  0.193298  0  4.105909  0  0  0.082431  0.189025  0  4.063535  0
C  C65  1  0.24740583  0.20477481  0.13009095  1  0  0.188016  0  3.834103  0  0  0.190631  0  4.080784  0  0  0.193226  0  4.105858  0  0  0.08226  0.188957  0  4.063486  0
C  C66  1  0.75260187  0.70477379  0.36990802  1  0  0.188079  0  3.834002  0  0  0.190654  0  4.080737  0  0  0.193251  0  4.105812  0  0  0.082375  0.18898  0  4.063443  0
C  C67  1  0.74739352  0.29522426  0.86990844  1  0  0.18819  0  3.834132  0  0  0.190828  0  4.080776  0  0  0.193427  0  4.105848  0  0  0.082431  0.189152  0  4.063486  0
C  C68  1  0.34898819  0.79465230  0.70579727  1  0  -0.122352  0  3.708644  0  0  -0.138727  0  3.952721  0  0  -0.142664  0  3.975575  0  0  -0.089723  -0.136108  0  3.937141  0
C  C69  1  0.15102574  0.20534753  0.20579628  1  0  -0.122288  0  3.708628  0  0  -0.13869  0  3.952713  0  0  -0.142605  0  3.975569  0  0  -0.089574  -0.136071  0  3.937132  0
C  C70  1  0.84898619  0.70534771  0.29420212  1  0  -0.122384  0  3.708609  0  0  -0.13874  0  3.952709  0  0  -0.142661  0  3.975569  0  0  -0.08972  -0.13612  0  3.937133  0
C  C71  1  0.65101113  0.29465146  0.79420253  1  0  -0.122447  0  3.708736  0  0  -0.138808  0  3.952779  0  0  -0.142731  0  3.975638  0  0  -0.089723  -0.136188  0  3.937203  0
C  C72  1  0.55347343  0.73947726  0.72916559  1  0  -0.123611  0  3.761709  0  0  -0.145014  0  4.011148  0  0  -0.148751  0  4.034263  0  0  -0.101454  -0.142238  0  3.995457  0
C  C73  1  0.94653428  0.26052244  0.22916357  1  0  -0.123559  0  3.761662  0  0  -0.144997  0  4.011109  0  0  -0.148736  0  4.034222  0  0  -0.101478  -0.142223  0  3.995423  0
C  C74  1  0.05347191  0.76052309  0.27083546  1  0  -0.123504  0  3.761648  0  0  -0.144938  0  4.011091  0  0  -0.148674  0  4.034199  0  0  -0.101422  -0.142163  0  3.995406  0
C  C75  1  0.44651897  0.23947682  0.77083472  1  0  -0.123455  0  3.761742  0  0  -0.144855  0  4.011167  0  0  -0.148592  0  4.034275  0  0  -0.101373  -0.142081  0  3.995483  0
C  C76  1  0.66188838  0.68354256  0.67703749  1  0  0.137933  0  3.79283  0  0  0.149732  0  4.053926  0  0  0.152016  0  4.077378  0  0  0.012276  0.147978  0  4.037878  0
C  C77  1  0.83811710  0.31645767  0.17703722  1  0  0.137956  0  3.792988  0  0  0.149745  0  4.054102  0  0  0.152029  0  4.077555  0  0  0.012255  0.147991  0  4.038057  0
C  C78  1  0.16188971  0.81645849  0.32296357  1  0  0.137966  0  3.792803  0  0  0.149757  0  4.053917  0  0  0.152039  0  4.077373  0  0  0.012268  0.148002  0  4.037876  0
C  C79  1  0.33810763  0.18354088  0.82296219  1  0  0.137906  0  3.792831  0  0  0.149689  0  4.053966  0  0  0.151973  0  4.077419  0  0  0.01226  0.147934  0  4.037922  0
C  C80  1  0.57260223  0.68362316  0.60155925  1  0  -0.129366  0  3.771717  0  0  -0.151719  0  4.025359  0  0  -0.154209  0  4.045646  0  0  -0.099363  -0.149906  0  4.011572  0
C  C81  1  0.92740096  0.31637819  0.10155899  1  0  -0.129429  0  3.771729  0  0  -0.151758  0  4.025357  0  0  -0.154252  0  4.045647  0  0  -0.099363  -0.149945  0  4.011571  0
C  C82  1  0.07259952  0.81637841  0.39844123  1  0  -0.129388  0  3.771681  0  0  -0.151773  0  4.025307  0  0  -0.154263  0  4.0456  0  0  -0.099376  -0.149957  0  4.011519  0
C  C83  1  0.42739378  0.18362226  0.89844100  1  0  -0.129365  0  3.771596  0  0  -0.151749  0  4.025216  0  0  -0.154244  0  4.04551  0  0  -0.099419  -0.149934  0  4.01143  0
C  C84  1  0.37034815  0.73942915  0.57867466  1  0  -0.111246  0  3.698498  0  0  -0.1314  0  3.949268  0  0  -0.134038  0  3.968904  0  0  -0.083246  -0.129531  0  3.935881  0
C  C85  1  0.12965493  0.26057294  0.07867430  1  0  -0.111188  0  3.698466  0  0  -0.131356  0  3.949229  0  0  -0.133996  0  3.968874  0  0  -0.083181  -0.129489  0  3.935844  0
C  C86  1  0.87034494  0.76057209  0.42132530  1  0  -0.111287  0  3.698439  0  0  -0.131422  0  3.949281  0  0  -0.134044  0  3.968886  0  0  -0.083263  -0.129553  0  3.935894  0
C  C87  1  0.62964846  0.23942785  0.92132565  1  0  -0.111345  0  3.698593  0  0  -0.131526  0  3.949402  0  0  -0.134163  0  3.969039  0  0  -0.083238  -0.129655  0  3.936017  0
Br  Br88  1  0.88324086  0.06886369  0.35413311  1  0  -0.399864  0  1.048491  0  0  -0.351462  0  1.35713  0  0  -0.369085  0  1.338988  0  0  -0.214897  -0.339753  0  1.369896  0
Br  Br89  1  0.61675660  0.93113798  0.85413307  1  0  -0.399867  0  1.048488  0  0  -0.351464  0  1.35711  0  0  -0.369087  0  1.338977  0  0  -0.214892  -0.339759  0  1.369874  0
Br  Br90  1  0.38323999  0.43113672  0.64586745  1  0  -0.399878  0  1.048491  0  0  -0.351478  0  1.35713  0  0  -0.369098  0  1.33899  0  0  -0.214893  -0.339771  0  1.369895  0
Br  Br91  1  0.11675693  0.56886242  0.14586741  1  0  -0.399867  0  1.048495  0  0  -0.351459  0  1.357129  0  0  -0.369082  0  1.338991  0  0  -0.214891  -0.339753  0  1.369894  0
Br  Br92  1  0.87136085  0.23272454  0.59207067  1  0  -0.372959  0  1.221463  0  0  -0.310158  0  1.572539  0  0  -0.332258  0  1.552878  0  0  -0.179666  -0.29493  0  1.585824  0
Br  Br93  1  0.62864654  0.76727680  0.09206972  1  0  -0.37294  0  1.221462  0  0  -0.310122  0  1.572523  0  0  -0.332229  0  1.552876  0  0  -0.179652  -0.294907  0  1.585827  0
Br  Br94  1  0.37136184  0.26727586  0.40792989  1  0  -0.372964  0  1.221472  0  0  -0.31015  0  1.572536  0  0  -0.332254  0  1.552885  0  0  -0.179659  -0.294923  0  1.585823  0
Br  Br95  1  0.12864413  0.73272361  0.90793020  1  0  -0.372944  0  1.221443  0  0  -0.310134  0  1.572508  0  0  -0.332241  0  1.552857  0  0  -0.17966  -0.294907  0  1.585788  0
N  N96  1  0.30179452  0.05449796  0.53916575  1  0  -0.305247  0  3.280648  0  0  -0.225694  0  3.53928  0  0  -0.24762  0  3.563209  0  0  -0.320924  -0.210692  0  3.522573  0
N  N97  1  0.19820636  0.94550347  0.03916614  1  0  -0.30524  0  3.280639  0  0  -0.225685  0  3.539243  0  0  -0.247609  0  3.563171  0  0  -0.32091  -0.210683  0  3.522535  0
N  N98  1  0.80179341  0.44550359  0.46083479  1  0  -0.305329  0  3.2807  0  0  -0.225766  0  3.539331  0  0  -0.247688  0  3.563255  0  0  -0.320924  -0.210764  0  3.522624  0
N  N99  1  0.69820641  0.55449640  0.96083436  1  0  -0.305248  0  3.280672  0  0  -0.225675  0  3.539276  0  0  -0.247599  0  3.563208  0  0  -0.320906  -0.210673  0  3.522567  0
N  N100  1  0.04940694  0.84777909  0.59988724  1  0  -0.316462  0  3.110479  0  0  -0.277127  0  3.380671  0  0  -0.288394  0  3.398552  0  0  -0.299265  -0.269486  0  3.368338  0
N  N101  1  0.45060462  0.15222242  0.09988682  1  0  -0.316391  0  3.110362  0  0  -0.277073  0  3.380552  0  0  -0.28834  0  3.398439  0  0  -0.299176  -0.269436  0  3.368219  0
N  N102  1  0.54940250  0.65222004  0.40011323  1  0  -0.316388  0  3.11038  0  0  -0.277057  0  3.380576  0  0  -0.288318  0  3.398452  0  0  -0.299203  -0.26942  0  3.368243  0
N  N103  1  0.95059507  0.34777805  0.90011205  1  0  -0.316484  0  3.110393  0  0  -0.277179  0  3.380587  0  0  -0.288445  0  3.398466  0  0  -0.299255  -0.269542  0  3.368258  0
Cl  Cl104  1  0.91313700  0.61338922  0.70498874  1  0  -0.087974  0  1.391559  0  0  -0.063335  0  1.631905  0  0  -0.070439  0  1.630431  0  0  0.013742  -0.057839  0  1.632829  0
Cl  Cl105  1  0.58686854  0.38660984  0.20498907  1  0  -0.087983  0  1.391663  0  0  -0.063336  0  1.632006  0  0  -0.070439  0  1.630535  0  0  0.013747  -0.057837  0  1.632931  0
Cl  Cl106  1  0.41313692  0.88661206  0.29501294  1  0  -0.087983  0  1.39159  0  0  -0.06334  0  1.631945  0  0  -0.070445  0  1.630475  0  0  0.013747  -0.05784  0  1.632873  0
Cl  Cl107  1  0.08685824  0.11338787  0.79501143  1  0  -0.087991  0  1.391597  0  0  -0.063349  0  1.631954  0  0  -0.070454  0  1.630481  0  0  0.013731  -0.057849  0  1.63288  0
