# generated using pymatgen
data_TbCuH16C22S2N2O11
_symmetry_space_group_name_H-M   'P 1'
_cell_length_a   9.42266684
_cell_length_b   11.31967774
_cell_length_c   12.35990000
_cell_angle_alpha   99.35332965
_cell_angle_beta   100.29034229
_cell_angle_gamma   113.92327031
_symmetry_Int_Tables_number   1
_chemical_formula_structural   TbCuH16C22S2N2O11
_chemical_formula_sum   'Tb2 Cu2 H32 C44 S4 N4 O22'
_cell_volume   1144.50817581
_cell_formula_units_Z   2
loop_
 _symmetry_equiv_pos_site_id
 _symmetry_equiv_pos_as_xyz
  1  'x, y, z'
loop_
 _atom_site_type_symbol
 _atom_site_label
 _atom_site_symmetry_multiplicity
 _atom_site_fract_x
 _atom_site_fract_y
 _atom_site_fract_z
 _atom_site_occupancy
 _atom_site_hle17_bader_spin_density
 _atom_site_hle17_ddec_charge
 _atom_site_hle17_ddec_spin_density
 _atom_site_hle17_ddec_sum_bond_order
 _atom_site_hle17_magmom
 _atom_site_hse06_10hf_bader_spin_density
 _atom_site_hse06_10hf_ddec_charge
 _atom_site_hse06_10hf_ddec_spin_density
 _atom_site_hse06_10hf_ddec_sum_bond_order
 _atom_site_hse06_10hf_magmom
 _atom_site_hse06_bader_spin_density
 _atom_site_hse06_ddec_charge
 _atom_site_hse06_ddec_spin_density
 _atom_site_hse06_ddec_sum_bond_order
 _atom_site_hse06_magmom
 _atom_site_pbe_bader_charge
 _atom_site_pbe_bader_spin_density
 _atom_site_pbe_cm5_charge
 _atom_site_pbe_ddec_charge
 _atom_site_pbe_ddec_spin_density
 _atom_site_pbe_ddec_sum_bond_order
 _atom_site_pbe_magmom
Tb  Tb0  1  0.30579550  0.46373697  0.09577111  1  0  2.331128  0  1.603202  0  0  2.261282  0  1.939774  0  0  2.306474  0  1.896924  0  2.218485  0  1.526696  2.163851  0  2.091213  0
Tb  Tb1  1  0.69420405  0.53626201  0.90422876  1  0  2.331117  0  1.603253  0  0  2.26128  0  1.939827  0  0  2.30647  0  1.896977  0  2.218488  0  1.526696  2.16385  0  2.091259  0
Cu  Cu2  1  0.25664460  0.97560737  0.59545603  1  0  0.500522  0  1.539997  0  0  0.36386  0  1.94968  0  0  0.373863  0  1.910684  0  0.64258  0  0.546088  0.360707  0  1.974649  0
Cu  Cu3  1  0.74335603  0.02439161  0.40454398  1  0  0.500515  0  1.540056  0  0  0.363855  0  1.949745  0  0  0.373836  0  1.910684  0  0.642576  0  0.546106  0.3607  0  1.97474  0
H  H4  1  0.73863289  0.54727638  0.41559674  1  0  0.100114  0  0.96009  0  0  0.112806  0  1.017578  0  0  0.11525  0  1.017275  0  0.07012  0  0.103715  0.110787  0  1.01864  0
H  H5  1  0.26136720  0.45272360  0.58440335  1  0  0.100114  0  0.960092  0  0  0.112806  0  1.017579  0  0  0.115251  0  1.017273  0  0.070118  0  0.103714  0.110787  0  1.018641  0
H  H6  1  0.90315297  0.67385405  0.29990569  1  0  0.119173  0  0.954442  0  0  0.126524  0  1.016857  0  0  0.130217  0  1.014817  0  0.111206  0  0.108205  0.123768  0  1.018744  0
H  H7  1  0.09684604  0.32614594  0.70009344  1  0  0.119163  0  0.954473  0  0  0.126506  0  1.016899  0  0  0.130197  0  1.014861  0  0.1112  0  0.108202  0.12375  0  1.018787  0
H  H8  1  0.28734894  0.58049271  0.43595070  1  0  0.111905  0  0.954226  0  0  0.12211  0  1.017711  0  0  0.124918  0  1.016604  0  0.105089  0  0.10778  0.119475  0  1.019817  0
H  H9  1  0.71265277  0.41950828  0.56404895  1  0  0.111917  0  0.954226  0  0  0.122122  0  1.017711  0  0  0.124928  0  1.016605  0  0.105101  0  0.107801  0.119486  0  1.019818  0
H  H10  1  0.45012675  0.25155038  0.23157586  1  0  0.102079  0  1.003629  0  0  0.110872  0  1.067087  0  0  0.11283  0  1.067391  0  0.105475  0  0.111026  0.109455  0  1.06723  0
H  H11  1  0.54987334  0.74844961  0.76842423  1  0  0.102103  0  1.00359  0  0  0.110899  0  1.067045  0  0  0.112859  0  1.067348  0  0.10549  0  0.111039  0.109482  0  1.067189  0
H  H12  1  0.50058596  0.10839960  0.35384385  1  0  0.092137  0  0.931065  0  0  0.103586  0  0.988897  0  0  0.105893  0  0.987621  0  0.115  0  0.121654  0.101416  0  0.99079  0
H  H13  1  0.49941521  0.89160039  0.64615720  1  0  0.092133  0  0.931051  0  0  0.103581  0  0.98889  0  0  0.105886  0  0.987622  0  0.115003  0  0.121657  0.101442  0  0.990749  0
H  H14  1  0.93825707  0.18711115  0.28037539  1  0  0.075241  0  0.972401  0  0  0.083228  0  1.040601  0  0  0.08506  0  1.039466  0  0.11163  0  0.113608  0.081455  0  1.042579  0
H  H15  1  0.06174356  0.81288984  0.71962492  1  0  0.075245  0  0.972417  0  0  0.083227  0  1.040625  0  0  0.085057  0  1.039493  0  0.111637  0  0.113608  0.081455  0  1.042602  0
H  H16  1  0.90579768  0.33271992  0.15953621  1  0  0.124891  0  0.962773  0  0  0.134299  0  1.023271  0  0  0.13768  0  1.02157  0  0.144421  0  0.120075  0.131549  0  1.025276  0
H  H17  1  0.09420133  0.66728007  0.84046535  1  0  0.124876  0  0.962756  0  0  0.134296  0  1.023245  0  0  0.137676  0  1.021544  0  0.144402  0  0.120062  0.131544  0  1.025251  0
H  H18  1  0.57467137  0.17764766  0.86365368  1  0  0.113055  0  0.964975  0  0  0.119096  0  1.034647  0  0  0.123156  0  1.031172  0  0.120726  0  0.110919  0.116122  0  1.03717  0
H  H19  1  0.42532818  0.82235132  0.13634619  1  0  0.113031  0  0.964999  0  0  0.119064  0  1.034688  0  0  0.123126  0  1.03121  0  0.120731  0  0.110909  0.116095  0  1.037194  0
H  H20  1  0.76421813  0.08087418  0.90899925  1  0  0.114108  0  0.950136  0  0  0.124707  0  1.00702  0  0  0.128046  0  1.00553  0  0.117947  0  0.108135  0.122281  0  1.008317  0
H  H21  1  0.23578250  0.91912681  0.09100025  1  0  0.114101  0  0.950159  0  0  0.124693  0  1.007046  0  0  0.12803  0  1.005558  0  0.117946  0  0.108123  0.122266  0  1.008347  0
H  H22  1  0.15855258  0.07090908  0.99550337  1  0  0.112683  0  0.932528  0  0  0.125838  0  0.987016  0  0  0.129146  0  0.985019  0  0.092793  0  0.114982  0.123515  0  0.988546  0
H  H23  1  0.84144643  0.92909090  0.00449658  1  0  0.112685  0  0.932544  0  0  0.125843  0  0.987027  0  0  0.129152  0  0.98503  0  0.092823  0  0.114992  0.12352  0  0.988558  0
H  H24  1  0.41219521  0.25668561  0.62650380  1  0  0.10971  0  0.945654  0  0  0.117071  0  1.005914  0  0  0.120364  0  1.002692  0  0.166963  0  0.126249  0.114499  0  1.008478  0
H  H25  1  0.58780488  0.74331437  0.37349710  1  0  0.109707  0  0.945677  0  0  0.117066  0  1.005935  0  0  0.120358  0  1.002712  0  0.166962  0  0.126243  0.114494  0  1.0085  0
H  H26  1  0.43484752  0.40808641  0.49964849  1  0  0.110691  0  0.974426  0  0  0.11876  0  1.041005  0  0  0.122626  0  1.037989  0  0.069702  0  0.109411  0.11568  0  1.044205  0
H  H27  1  0.56514988  0.59191257  0.50035108  1  0  0.11065  0  0.974459  0  0  0.118719  0  1.04104  0  0  0.122586  0  1.038024  0  0.069494  0  0.109393  0.115641  0  1.044236  0
H  H28  1  0.08600627  0.06452934  0.22724238  1  0  0.127206  0  0.92647  0  0  0.138522  0  0.981377  0  0  0.141815  0  0.980203  0  0.13521  0  0.118289  0.136183  0  0.982526  0
H  H29  1  0.91399274  0.93546864  0.77275808  1  0  0.127204  0  0.926474  0  0  0.138514  0  0.98139  0  0  0.141807  0  0.980216  0  0.135222  0  0.118291  0.136176  0  0.982541  0
H  H30  1  0.08023937  0.92438819  0.36281510  1  0  0.099184  0  0.956735  0  0  0.104263  0  1.025401  0  0  0.107455  0  1.021895  0  0.179019  0  0.118391  0.101918  0  1.027972  0
H  H31  1  0.91976126  0.07561079  0.63718491  1  0  0.099203  0  0.956718  0  0  0.104285  0  1.025381  0  0  0.107478  0  1.021872  0  0.179049  0  0.118402  0.101939  0  1.027952  0
H  H32  1  0.97440020  0.31717204  0.92871075  1  0  0.446741  0  0.848298  0  0  0.416352  0  0.910582  0  0  0.426808  0  0.895322  0  0.684763  0  0.303893  0.408592  0  0.921757  0
H  H33  1  0.02559935  0.68282694  0.07128912  1  0  0.446737  0  0.848302  0  0  0.416345  0  0.910589  0  0  0.426801  0  0.89533  0  0.684764  0  0.303892  0.408585  0  0.921765  0
H  H34  1  0.94213864  0.40700810  0.02358998  1  0  0.441396  0  0.836742  0  0  0.412885  0  0.906756  0  0  0.422933  0  0.891598  0  0.652008  0  0.313613  0.405324  0  0.917914  0
H  H35  1  0.05786145  0.59299188  0.97641011  1  0  0.441307  0  0.836844  0  0  0.412829  0  0.906834  0  0  0.422877  0  0.891675  0  0.652009  0  0.313594  0.405268  0  0.917991  0
C  C36  1  0.85989383  0.55708830  0.42251679  1  0  -0.103113  0  3.731736  0  0  -0.122671  0  3.981512  0  0  -0.125521  0  4.003575  0  -0.053965  0  -0.088095  -0.120488  0  3.967063  0
C  C37  1  0.14010572  0.44291069  0.57748308  1  0  -0.10312  0  3.731731  0  0  -0.122679  0  3.981512  0  0  -0.125528  0  4.003573  0  -0.053975  0  -0.088071  -0.120495  0  3.967063  0
C  C38  1  0.94993756  0.62655262  0.35722807  1  0  -0.0772  0  3.756262  0  0  -0.103763  0  4.014132  0  0  -0.104206  0  4.033236  0  -0.017114  0  -0.090909  -0.103496  0  4.0016  0
C  C39  1  0.05006253  0.37344736  0.64277202  1  0  -0.077161  0  3.756315  0  0  -0.10371  0  4.014176  0  0  -0.10415  0  4.033277  0  -0.017127  0  -0.090909  -0.103444  0  4.001646  0
C  C40  1  0.10483785  0.63434609  0.36319491  1  0  -0.115992  0  3.751837  0  0  -0.092189  0  4.005787  0  0  -0.097502  0  4.025429  0  -0.169793  0  -0.01784  -0.088981  0  3.992793  0
C  C41  1  0.89516386  0.36565490  0.63680474  1  0  -0.11605  0  3.751923  0  0  -0.092255  0  4.005877  0  0  -0.097565  0  4.025512  0  -0.169787  0  -0.017882  -0.089048  0  3.992885  0
C  C42  1  0.16899766  0.57546861  0.43428763  1  0  -0.097687  0  3.695308  0  0  -0.131635  0  3.945351  0  0  -0.131043  0  3.964236  0  -0.047542  0  -0.079603  -0.131502  0  3.933191  0
C  C43  1  0.83100243  0.42453137  0.56571246  1  0  -0.097689  0  3.695285  0  0  -0.131638  0  3.945323  0  0  -0.131044  0  3.964207  0  -0.04747  0  -0.079624  -0.131505  0  3.933163  0
C  C44  1  0.92082138  0.49511907  0.49690496  1  0  0.055062  0  3.780042  0  0  0.072433  0  4.007795  0  0  0.071736  0  4.032466  0  0.002624  0  -0.007246  0.07291  0  3.990532  0
C  C45  1  0.07918141  0.50488192  0.50309565  1  0  0.055101  0  3.78005  0  0  0.072456  0  4.007821  0  0  0.071761  0  4.03249  0  0.049309  0  -0.007265  0.072931  0  3.990558  0
C  C46  1  0.56094116  0.24172545  0.24342801  1  0  -0.100221  0  3.712238  0  0  -0.123816  0  3.956073  0  0  -0.129064  0  3.979259  0  0.058542  0  -0.070107  -0.120566  0  3.941901  0
C  C47  1  0.43905677  0.75827453  0.75657179  1  0  -0.100241  0  3.712204  0  0  -0.123841  0  3.956027  0  0  -0.129096  0  3.979212  0  0.058531  0  -0.070109  -0.120595  0  3.941865  0
C  C48  1  0.58764175  0.16184748  0.31039552  1  0  0.112176  0  3.674448  0  0  0.083903  0  3.917955  0  0  0.0896  0  3.935814  0  0.400761  0  0.043867  0.079985  0  3.907247  0
C  C49  1  0.41235942  0.83815250  0.68960552  1  0  0.112206  0  3.674471  0  0  0.08393  0  3.917992  0  0  0.089621  0  3.935866  0  0.400729  0  0.043888  0.079988  0  3.907278  0
C  C50  1  0.83296338  0.20585991  0.26941401  1  0  0.123369  0  3.669547  0  0  0.093695  0  3.914869  0  0  0.099617  0  3.93343  0  0.431453  0  0.046868  0.089734  0  3.90313  0
C  C51  1  0.16703833  0.79414107  0.73058645  1  0  0.123284  0  3.669597  0  0  0.093596  0  3.914951  0  0  0.099519  0  3.933514  0  0.431399  0  0.046813  0.089635  0  3.903211  0
C  C52  1  0.81362756  0.28752004  0.20182152  1  0  -0.094894  0  3.669687  0  0  -0.118232  0  3.913303  0  0  -0.123434  0  3.934911  0  0.022828  0  -0.06832  -0.115099  0  3.900287  0
C  C53  1  0.18637361  0.71248194  0.79818064  1  0  -0.094889  0  3.669712  0  0  -0.118225  0  3.913294  0  0  -0.123428  0  3.934899  0  0.022845  0  -0.068302  -0.115093  0  3.900277  0
C  C54  1  0.50168031  0.12060641  0.91315896  1  0  -0.093834  0  3.700852  0  0  -0.127227  0  3.952205  0  0  -0.126176  0  3.969576  0  -0.036641  0  -0.075929  -0.127808  0  3.941078  0
C  C55  1  0.49831816  0.87939457  0.08684187  1  0  -0.093764  0  3.700823  0  0  -0.127165  0  3.95216  0  0  -0.126115  0  3.969526  0  -0.036054  0  -0.075887  -0.127753  0  3.941026  0
C  C56  1  0.54927691  0.03683572  0.96754881  1  0  0.056477  0  3.780713  0  0  0.073827  0  4.004807  0  0  0.072932  0  4.030011  0  -0.015916  0  -0.005052  0.074218  0  3.987884  0
C  C57  1  0.45072211  0.96316427  0.03245194  1  0  0.056458  0  3.780782  0  0  0.073925  0  4.004755  0  0  0.073033  0  4.029959  0  0.048412  0  -0.005086  0.074311  0  3.987835  0
C  C58  1  0.69136124  0.02455781  0.95928767  1  0  -0.094554  0  3.694987  0  0  -0.111742  0  3.943045  0  0  -0.114208  0  3.963282  0  -0.063316  0  -0.079893  -0.109665  0  3.929205  0
C  C59  1  0.30863777  0.97544217  0.04071308  1  0  -0.094514  0  3.694903  0  0  -0.111716  0  3.942913  0  0  -0.114188  0  3.963154  0  -0.063223  0  -0.079851  -0.109637  0  3.929069  0
C  C60  1  0.26507889  0.05822669  0.98735173  1  0  -0.061051  0  3.73669  0  0  -0.08913  0  3.993557  0  0  -0.089423  0  4.013071  0  -0.01453  0  -0.080578  -0.088963  0  3.980457  0
C  C61  1  0.73492174  0.94177430  0.01264616  1  0  -0.061073  0  3.736706  0  0  -0.08913  0  3.993594  0  0  -0.089426  0  4.013107  0  -0.014443  0  -0.080587  -0.088975  0  3.980488  0
C  C62  1  0.36351228  0.13073371  0.92382592  1  0  -0.127198  0  3.767425  0  0  -0.102047  0  4.016497  0  0  -0.108269  0  4.037621  0  -0.179952  0  -0.018249  -0.098094  0  4.003292  0
C  C63  1  0.63648782  0.86926628  0.07617418  1  0  -0.127099  0  3.767231  0  0  -0.102016  0  4.016412  0  0  -0.108239  0  4.037536  0  -0.18009  0  -0.01822  -0.098029  0  4.003158  0
C  C64  1  0.34250809  0.21839112  0.53774176  1  0  0.139401  0  3.631333  0  0  0.111718  0  3.867616  0  0  0.118958  0  3.883991  0  0.46861  0  0.050514  0.106909  0  3.857348  0
C  C65  1  0.65748985  0.78160886  0.46225804  1  0  0.139348  0  3.631368  0  0  0.111677  0  3.867651  0  0  0.118918  0  3.884024  0  0.468586  0  0.050494  0.106866  0  3.857384  0
C  C66  1  0.35342060  0.30198661  0.46602183  1  0  -0.118584  0  3.707254  0  0  -0.140974  0  3.953691  0  0  -0.147449  0  3.975058  0  0.031234  0  -0.073363  -0.137014  0  3.941616  0
C  C67  1  0.64657679  0.69801238  0.53397693  1  0  -0.118537  0  3.707201  0  0  -0.140932  0  3.953627  0  0  -0.147409  0  3.974994  0  0.031321  0  -0.073358  -0.136973  0  3.941555  0
C  C68  1  0.26088209  0.24838654  0.35263081  1  0  -0.016289  0  3.740229  0  0  0.005171  0  3.967252  0  0  0.003343  0  3.987888  0  -0.040575  0  0.00023  0.005723  0  3.955661  0
C  C69  1  0.73911584  0.75161144  0.64736869  1  0  -0.016263  0  3.740124  0  0  0.005212  0  3.96713  0  0  0.003387  0  3.987766  0  -0.040731  0  0.000276  0.005764  0  3.955542  0
C  C70  1  0.15976436  0.11067536  0.31496289  1  0  -0.109799  0  3.684153  0  0  -0.131134  0  3.929608  0  0  -0.136165  0  3.94834  0  -0.049148  0  -0.070738  -0.128934  0  3.919677  0
C  C71  1  0.84023519  0.88932362  0.68503617  1  0  -0.10982  0  3.68411  0  0  -0.131151  0  3.929572  0  0  -0.136183  0  3.948304  0  -0.049133  0  -0.070759  -0.128954  0  3.919643  0
C  C72  1  0.15602637  0.03183765  0.39049508  1  0  0.120148  0  3.669804  0  0  0.08806  0  3.918311  0  0  0.096443  0  3.932198  0  0.428249  0  0.046945  0.082265  0  3.910221  0
C  C73  1  0.84397319  0.96816133  0.60950479  1  0  0.120109  0  3.669811  0  0  0.088025  0  3.91832  0  0  0.096408  0  3.932205  0  0.428253  0  0.046925  0.082229  0  3.910229  0
C  C74  1  0.67414894  0.30589635  0.18720911  1  0  -0.014337  0  3.696151  0  0  0.007888  0  3.917948  0  0  0.005508  0  3.938162  0  -0.030416  0  0.006666  0.008638  0  3.906299  0
C  C75  1  0.32585169  0.69410463  0.81279120  1  0  -0.014283  0  3.696218  0  0  0.007963  0  3.917957  0  0  0.005588  0  3.938168  0  -0.030424  0  0.006688  0.008718  0  3.906305  0
C  C76  1  0.64094743  0.38656228  0.10955438  1  0  0.714253  0  3.860875  0  0  0.668714  0  4.152943  0  0  0.703558  0  4.140941  0  1.596728  0  0.235101  0.644523  0  4.156179  0
C  C77  1  0.35905105  0.61343670  0.89044534  1  0  0.714287  0  3.860906  0  0  0.668762  0  4.152933  0  0  0.703604  0  4.140931  0  1.59674  0  0.235136  0.644564  0  4.156178  0
C  C78  1  0.27412682  0.33425078  0.27081610  1  0  0.610362  0  3.980733  0  0  0.566364  0  4.280338  0  0  0.600014  0  4.270309  0  1.549811  0  0.185107  0.544658  0  4.278788  0
C  C79  1  0.72587165  0.66574821  0.72918362  1  0  0.610364  0  3.980724  0  0  0.56636  0  4.280329  0  0  0.600011  0  4.270298  0  1.549859  0  0.185091  0.544654  0  4.278782  0
S  S80  1  0.30615742  0.23399306  0.85131034  1  0  1.388064  0  5.562431  0  0  1.294277  0  6.077189  0  0  1.343471  0  6.049772  0  3.200381  0  0.546858  1.259114  0  6.091105  0
S  S81  1  0.69384159  0.76600692  0.14868879  1  0  1.38803  0  5.562564  0  0  1.294253  0  6.077344  0  0  1.343437  0  6.049931  0  3.200399  0  0.546849  1.259079  0  6.091261  0
S  S82  1  0.21660688  0.71541751  0.27237462  1  0  1.339573  0  5.600853  0  0  1.246429  0  6.114925  0  0  1.294462  0  6.090177  0  3.180965  0  0.529166  1.212691  0  6.129915  0
S  S83  1  0.78339483  0.28458348  0.72762665  1  0  1.339545  0  5.601009  0  0  1.246415  0  6.115065  0  0  1.294458  0  6.090302  0  3.180982  0  0.52912  1.212673  0  6.130051  0
N  N84  1  0.24670274  0.08469081  0.50001322  1  0  -0.285833  0  3.440615  0  0  -0.195267  0  3.725512  0  0  -0.208733  0  3.733743  0  -1.224002  0  -0.381994  -0.187101  0  3.720041  0
N  N85  1  0.75329735  0.91530917  0.49998606  1  0  -0.285777  0  3.440622  0  0  -0.19523  0  3.725532  0  0  -0.208688  0  3.733726  0  -1.224014  0  -0.381987  -0.187061  0  3.72007  0
N  N86  1  0.72184062  0.14271926  0.32267131  1  0  -0.294382  0  3.475784  0  0  -0.206426  0  3.769806  0  0  -0.219244  0  3.778548  0  -1.225743  0  -0.38257  -0.198646  0  3.763773  0
N  N87  1  0.27816162  0.85728072  0.67732988  1  0  -0.294372  0  3.475861  0  0  -0.206414  0  3.769889  0  0  -0.219241  0  3.778674  0  -1.225673  0  -0.382576  -0.198637  0  3.763858  0
O  O88  1  0.18150498  0.27832188  0.16914729  1  0  -0.694376  0  1.964457  0  0  -0.658851  0  2.207105  0  0  -0.682271  0  2.197059  0  -1.175117  0  -0.391727  -0.634513  0  2.213608  0
O  O89  1  0.81849403  0.72167811  0.83085185  1  0  -0.694348  0  1.964444  0  0  -0.658822  0  2.207094  0  0  -0.682242  0  2.197048  0  -1.175092  0  -0.39173  -0.634486  0  2.213597  0
O  O90  1  0.37885742  0.45627291  0.30128398  1  0  -0.664907  0  1.947197  0  0  -0.628835  0  2.185855  0  0  -0.651826  0  2.176917  0  -1.176974  0  -0.351592  -0.60611  0  2.191146  0
O  O91  1  0.62114213  0.54372607  0.69871589  1  0  -0.664942  0  1.947219  0  0  -0.62887  0  2.185887  0  0  -0.651864  0  2.176948  0  -1.176962  0  -0.351579  -0.60614  0  2.191167  0
O  O92  1  0.22071990  0.60369488  0.19235026  1  0  -0.807271  0  2.072023  0  0  -0.758055  0  2.350501  0  0  -0.781082  0  2.334984  0  -1.350208  0  -0.438925  -0.731824  0  2.363372  0
O  O93  1  0.77928181  0.39630611  0.80765100  1  0  -0.807221  0  2.072103  0  0  -0.758019  0  2.350595  0  0  -0.781047  0  2.335068  0  -1.35023  0  -0.438882  -0.731785  0  2.363461  0
O  O94  1  0.23549066  0.29720180  0.92548300  1  0  -0.759172  0  2.045946  0  0  -0.713921  0  2.320115  0  0  -0.735555  0  2.303581  0  -1.34078  0  -0.401426  -0.689074  0  2.332052  0
O  O95  1  0.76450781  0.70279718  0.07451672  1  0  -0.759158  0  2.045956  0  0  -0.71392  0  2.320132  0  0  -0.735549  0  2.303599  0  -1.340762  0  -0.401421  -0.689075  0  2.332073  0
O  O96  1  0.12211531  0.77170484  0.21025604  1  0  -0.657545  0  1.967062  0  0  -0.598661  0  2.200072  0  0  -0.620148  0  2.186463  0  -1.333653  0  -0.325053  -0.584086  0  2.210313  0
O  O97  1  0.87788640  0.22829615  0.78974442  1  0  -0.657504  0  1.967104  0  0  -0.598635  0  2.200129  0  0  -0.62013  0  2.186516  0  -1.333673  0  -0.325029  -0.584059  0  2.210368  0
O  O98  1  0.37548343  0.81478113  0.34327124  1  0  -0.657702  0  1.924124  0  0  -0.620047  0  2.185411  0  0  -0.639287  0  2.169588  0  -1.337306  0  -0.336692  -0.606569  0  2.196059  0
O  O99  1  0.62451666  0.18521885  0.65672804  1  0  -0.657712  0  1.924113  0  0  -0.620054  0  2.185388  0  0  -0.639293  0  2.169564  0  -1.33727  0  -0.336675  -0.606574  0  2.196037  0
O  O100  1  0.51798493  0.40728944  0.10734542  1  0  -0.773386  0  2.133137  0  0  -0.738013  0  2.403668  0  0  -0.762524  0  2.391932  0  -1.203595  0  -0.392344  -0.70898  0  2.409778  0
O  O101  1  0.48201624  0.59271054  0.89265401  1  0  -0.773398  0  2.13312  0  0  -0.738047  0  2.403674  0  0  -0.762561  0  2.391942  0  -1.203607  0  -0.392361  -0.709011  0  2.409784  0
O  O102  1  0.45615060  0.33268487  0.83472255  1  0  -0.786584  0  2.103833  0  0  -0.744518  0  2.387201  0  0  -0.76534  0  2.36957  0  -1.354076  0  -0.408604  -0.719774  0  2.399218  0
O  O103  1  0.54384949  0.66731511  0.16527674  1  0  -0.786585  0  2.103859  0  0  -0.744513  0  2.387215  0  0  -0.76534  0  2.369601  0  -1.35408  0  -0.408595  -0.719762  0  2.399218  0
O  O104  1  0.18966107  0.14690334  0.74360403  1  0  -0.654744  0  1.956641  0  0  -0.604357  0  2.219259  0  0  -0.626314  0  2.204446  0  -1.332049  0  -0.323494  -0.589254  0  2.230145  0
O  O105  1  0.81033741  0.85309765  0.25639437  1  0  -0.654766  0  1.956763  0  0  -0.604358  0  2.219356  0  0  -0.626306  0  2.204535  0  -1.332006  0  -0.323505  -0.589256  0  2.230247  0
O  O106  1  0.73660577  0.42706745  0.04815845  1  0  -0.725183  0  2.045914  0  0  -0.681097  0  2.293508  0  0  -0.706024  0  2.282857  0  -1.186232  0  -0.375896  -0.655745  0  2.301954  0
O  O107  1  0.26339486  0.57293153  0.95184075  1  0  -0.725206  0  2.045956  0  0  -0.68113  0  2.293545  0  0  -0.706055  0  2.282894  0  -1.186237  0  -0.375916  -0.655777  0  2.301996  0
O  O108  1  0.01752481  0.37055885  0.00985893  1  0  -0.905078  0  1.878375  0  0  -0.866015  0  2.077585  0  0  -0.883434  0  2.045194  0  -1.312506  0  -0.637837  -0.845746  0  2.10462  0
O  O109  1  0.98247582  0.62944213  0.99014138  1  0  -0.904978  0  1.878479  0  0  -0.865948  0  2.077623  0  0  -0.883367  0  2.045235  0  -1.31249  0  -0.637814  -0.845679  0  2.104656  0
