# generated using pymatgen
data_Ni2H12C11NO9
_symmetry_space_group_name_H-M   'P 1'
_cell_length_a   11.02063030
_cell_length_b   13.46391631
_cell_length_c   14.76786359
_cell_angle_alpha   99.14440962
_cell_angle_beta   89.99163942
_cell_angle_gamma   90.01055419
_symmetry_Int_Tables_number   1
_chemical_formula_structural   Ni2H12C11NO9
_chemical_formula_sum   'Ni8 H48 C44 N4 O36'
_cell_volume   2163.41901753
_cell_formula_units_Z   4
loop_
 _symmetry_equiv_pos_site_id
 _symmetry_equiv_pos_as_xyz
  1  'x, y, z'
loop_
 _atom_site_type_symbol
 _atom_site_label
 _atom_site_symmetry_multiplicity
 _atom_site_fract_x
 _atom_site_fract_y
 _atom_site_fract_z
 _atom_site_occupancy
 _atom_site_hle17_ddec_charge
 _atom_site_hle17_ddec_spin_density
 _atom_site_hle17_ddec_sum_bond_order
 _atom_site_hle17_magmom
 _atom_site_hse06_10hf_ddec_charge
 _atom_site_hse06_10hf_ddec_spin_density
 _atom_site_hse06_10hf_ddec_sum_bond_order
 _atom_site_hse06_10hf_magmom
 _atom_site_hse06_ddec_charge
 _atom_site_hse06_ddec_spin_density
 _atom_site_hse06_ddec_sum_bond_order
 _atom_site_hse06_magmom
 _atom_site_pbe_cm5_charge
 _atom_site_pbe_ddec_charge
 _atom_site_pbe_ddec_spin_density
 _atom_site_pbe_ddec_sum_bond_order
 _atom_site_pbe_magmom
Ni  Ni0  1  0.00216234  0.11435317  0.04741051  1  1.004192  -1.770809  1.816619  -1.511  1.033572  -1.832272  2.204534  -1.65  1.127478  -1.893639  2.129595  -1.737  0.591116  0.94972  -1.759704  2.274199  -1.558
Ni  Ni1  1  0.50258021  0.38502458  0.95251607  1  1.003542  -1.762632  1.816957  -1.507  1.032827  -1.829101  2.20515  -1.649  1.127247  -1.892747  2.129948  -1.738  0.591163  0.947562  -1.74892  2.275563  -1.551
Ni  Ni2  1  0.99905635  0.88607114  0.95197811  1  1.005495  -1.789357  1.816216  -1.526  1.033607  -1.843224  2.204079  -1.659  1.12734  -1.900134  2.128912  -1.742  0.592163  0.949511  -1.784498  2.274485  -1.58
Ni  Ni3  1  0.49756585  0.61500791  0.04747719  1  1.003922  1.801186  1.816164  1.507  1.033546  1.849775  2.203865  1.649  1.127836  1.919177  2.128858  1.738  0.591313  0.948165  1.763741  2.2744  1.551
Ni  Ni4  1  0.85777064  0.90527055  0.13576214  1  0.949422  1.805322  1.970443  1.503  0.970732  1.837433  2.3586  1.63  1.055483  1.908321  2.288592  1.72  0.641336  0.900145  1.7557  2.419225  1.536
Ni  Ni5  1  0.35870495  0.59469029  0.86451534  1  0.945609  1.812498  1.970881  1.508  0.967635  1.839809  2.358522  1.632  1.053171  1.908271  2.287689  1.719  0.640158  0.896871  1.766549  2.419582  1.545
Ni  Ni6  1  0.14131275  0.09392046  0.86438990  1  0.948341  -1.786907  1.962083  -1.519  0.970803  -1.82815  2.349428  -1.64  1.055342  -1.885904  2.279034  -1.723  0.641837  0.901471  -1.773802  2.409914  -1.565
Ni  Ni7  1  0.64164617  0.40528353  0.13546880  1  0.946895  -1.775716  1.969091  -1.509  0.968708  -1.820683  2.356742  -1.632  1.053824  -1.883153  2.28635  -1.719  0.640575  0.898366  -1.753867  2.417403  -1.546
H  H8  1  0.14385275  0.16793898  0.17613413  1  0.411907  0.000227  0.899117  0.001  0.381235  -0.000164  0.962483  0.0  0.394324  -8e-06  0.943771  0.0  0.281449  0.371835  -0.000343  0.975808  0.0
H  H9  1  0.64399435  0.33215395  0.82395432  1  0.412325  0.000242  0.898701  0.001  0.381409  -0.000129  0.962364  0.0  0.394544  1.5e-05  0.943624  0.0  0.281468  0.371974  -0.000297  0.975698  0.0
H  H10  1  0.85687043  0.83264683  0.82418375  1  0.413189  0.000177  0.897688  0.001  0.382102  -0.000225  0.961672  0.0  0.395257  -6.4e-05  0.942915  0.0  0.281434  0.372637  -0.000387  0.975043  0.0
H  H11  1  0.35602467  0.66786642  0.17598642  1  0.412619  -0.000229  0.898332  -0.001  0.381429  0.000134  0.962387  0.0  0.394564  -1e-05  0.943644  0.0  0.28158  0.372006  0.000299  0.975703  0.0
H  H12  1  0.05433055  0.25847252  0.16963949  1  0.411423  0.000627  0.837587  0.001  0.396505  2e-06  0.89335  0.0  0.406234  0.000127  0.882489  0.0  0.311297  0.38906  -0.000139  0.901429  0.0
H  H13  1  0.55436622  0.24139224  0.82983002  1  0.411802  0.000626  0.836693  0.001  0.396865  1.9e-05  0.892512  0.0  0.406547  0.000141  0.881784  0.0  0.311722  0.389474  -0.000126  0.900434  0.0
H  H14  1  0.94597429  0.74170843  0.83055048  1  0.412702  0.00074  0.836075  0.001  0.397444  0.000211  0.892231  0.0  0.407283  0.000273  0.88123  0.0  0.311288  0.389843  0.000126  0.900527  0.0
H  H15  1  0.44569906  0.75868953  0.17043644  1  0.411986  -0.000592  0.836042  -0.001  0.397175  2e-06  0.891645  0.0  0.406843  -0.000124  0.880941  0.0  0.311898  0.389743  0.00015  0.899682  0.0
H  H16  1  0.69056873  0.76169964  0.12919971  1  0.439773  -0.000235  0.839046  0.0  0.413971  7.4e-05  0.905919  0.0  0.424594  -1.1e-05  0.890552  0.0  0.303866  0.403778  0.000172  0.919967  0.0
H  H17  1  0.18897312  0.73678566  0.87138579  1  0.438428  0.000104  0.83742  0.0  0.410838  0.000352  0.907862  0.0  0.421279  0.000261  0.89319  0.0  0.304988  0.403089  0.000388  0.918929  0.0
H  H18  1  0.30855469  0.23828920  0.87082186  1  0.438174  0.000234  0.840947  0.0  0.410273  -9.7e-05  0.910356  0.0  0.420668  -6e-06  0.895451  0.0  0.303294  0.402419  -0.000194  0.921531  0.0
H  H19  1  0.80901759  0.26149119  0.12963574  1  0.438772  0.000237  0.84116  0.0  0.410538  -8.3e-05  0.910229  0.0  0.421143  5e-06  0.895377  0.0  0.303319  0.402686  -0.000175  0.921411  0.0
H  H20  1  0.63684393  0.86860233  0.16941699  1  0.415627  -0.000385  0.833455  -0.001  0.400759  4.7e-05  0.888201  0.0  0.41015  -7.3e-05  0.877273  0.0  0.316391  0.393512  0.000162  0.896572  0.0
H  H21  1  0.13789732  0.62960194  0.82951003  1  0.415836  -0.00039  0.832451  -0.001  0.400957  3.7e-05  0.887122  0.0  0.410446  -7.3e-05  0.876018  0.0  0.316575  0.393694  0.000135  0.895527  0.0
H  H22  1  0.36275317  0.13166258  0.83061445  1  0.41425  0.000426  0.835292  0.001  0.399722  -1.6e-05  0.88967  0.0  0.409072  9.7e-05  0.87885  0.0  0.315874  0.392551  -0.000132  0.8979  0.0
H  H23  1  0.86295000  0.36838055  0.16961636  1  0.414588  0.000425  0.834712  0.001  0.399864  -2.9e-05  0.889392  0.0  0.409318  8.5e-05  0.878369  0.0  0.315861  0.392636  -0.000141  0.897673  0.0
H  H24  1  0.92005448  0.04159561  0.88362665  1  0.409097  0.000569  0.8384  0.003  0.400468  -0.001052  0.891807  -0.001  0.409796  -0.000448  0.883995  0.0  0.308859  0.393838  -0.001692  0.895051  -0.001
H  H25  1  0.42196614  0.45925871  0.11609484  1  0.404126  0.001055  0.841627  0.002  0.395824  6.4e-05  0.895359  0.0  0.405306  0.000221  0.888965  0.001  0.306908  0.388688  -0.000106  0.898741  0.0
H  H26  1  0.07773794  0.95947831  0.11629296  1  0.404603  0.000275  0.841426  0.001  0.396165  -0.000226  0.89514  0.0  0.40573  -7.7e-05  0.888553  0.0  0.307044  0.388982  -0.000347  0.898657  0.0
H  H27  1  0.57830331  0.54070234  0.88390576  1  0.404218  -0.001008  0.841877  -0.002  0.395883  -4.7e-05  0.895655  0.0  0.405395  -0.000206  0.889235  -0.001  0.307043  0.388719  0.000113  0.899073  0.0
H  H28  1  0.64020996  0.08169450  0.95097051  1  0.086603  0.000225  0.907374  0.0  0.095339  0.000182  0.964413  0.0  0.098793  0.000145  0.961863  0.0  0.100963  0.092853  0.000216  0.966438  0.0
H  H29  1  0.13986539  0.41875147  0.04916503  1  0.087141  0.000204  0.906827  0.0  0.095667  0.000145  0.964146  0.0  0.099064  0.000122  0.96166  0.0  0.101104  0.093204  0.000155  0.96618  0.0
H  H30  1  0.36109028  0.91825391  0.04907493  1  0.086583  9.5e-05  0.907277  0.0  0.095381  -8.6e-05  0.964155  0.0  0.098838  -6.3e-05  0.961608  0.0  0.100928  0.092861  -0.000117  0.966207  0.0
H  H31  1  0.86003570  0.58152453  0.95071427  1  0.086635  -0.000287  0.907485  0.0  0.09506  -0.000212  0.964793  0.0  0.098449  -0.000147  0.962326  0.0  0.100663  0.092568  -0.000277  0.966871  0.0
H  H32  1  0.60603619  0.90871069  0.05828736  1  0.066849  5e-06  0.991206  0.0  0.073152  -0.000159  1.063081  0.0  0.076571  -0.000165  1.059538  0.0  0.102037  0.07059  -0.000139  1.066016  0.0
H  H33  1  0.10576960  0.59143628  0.94148569  1  0.066118  -0.000521  0.991574  0.0  0.072596  -0.000295  1.063197  0.0  0.076125  -0.000229  1.059575  0.0  0.10149  0.070064  -0.000325  1.066024  0.0
H  H34  1  0.39437936  0.09111168  0.94150234  1  0.066924  0.000216  0.991264  0.0  0.073264  4e-05  1.062456  0.0  0.076763  7.6e-05  1.058918  0.0  0.101774  0.070732  6e-06  1.065236  0.0
H  H35  1  0.89424220  0.40883897  0.05839215  1  0.067136  0.000183  0.990742  0.0  0.073756  8e-06  1.062158  0.0  0.077299  5.6e-05  1.058527  0.0  0.102004  0.071178  -8.5e-05  1.065021  0.0
H  H36  1  0.50134149  0.08953813  0.13142810  1  0.101774  -0.000131  0.904075  0.0  0.108775  -0.000334  0.96331  -0.001  0.112178  -0.00022  0.960779  0.0  0.106052  0.106667  -0.000442  0.964921  -0.001
H  H37  1  0.00142935  0.41032540  0.86852304  1  0.100929  -0.000156  0.904999  0.0  0.108212  -0.000345  0.964041  -0.001  0.111666  -0.000228  0.961387  0.0  0.105635  0.106042  -0.000452  0.965776  -0.001
H  H38  1  0.49921200  0.91043537  0.86832034  1  0.101849  0.000171  0.904524  0.0  0.109052  0.000368  0.963279  0.0  0.112518  0.000244  0.960668  0.0  0.106038  0.106897  0.000495  0.964972  0.001
H  H39  1  0.99857610  0.58989115  0.13132604  1  0.101937  -0.000637  0.904282  -0.001  0.108964  -0.000404  0.963339  0.0  0.112416  -0.000292  0.96073  0.0  0.106122  0.106812  -0.000525  0.965003  0.0
H  H40  1  0.88989362  0.79180874  0.28829842  1  0.106033  0.001101  0.918642  0.002  0.113186  0.000642  0.976518  0.001  0.116464  0.000461  0.972781  0.001  0.127339  0.110284  0.000825  0.979934  0.002
H  H41  1  0.39000850  0.70809186  0.71155592  1  0.105977  0.001106  0.918594  0.002  0.113207  0.000637  0.976564  0.001  0.116455  0.000457  0.972854  0.001  0.127123  0.110298  0.000827  0.979959  0.002
H  H42  1  0.11025964  0.20774078  0.71162814  1  0.105772  -0.001065  0.918775  -0.002  0.112866  -0.000617  0.976747  -0.001  0.116133  -0.000438  0.973027  -0.001  0.127423  0.10997  -0.000807  0.980145  -0.002
H  H43  1  0.61012576  0.29189318  0.28839260  1  0.10584  -0.001078  0.918883  -0.002  0.113004  -0.00063  0.976816  -0.001  0.116278  -0.00045  0.973067  -0.001  0.12724  0.110118  -0.000823  0.980183  -0.002
H  H44  1  0.95212398  0.82685057  0.45142139  1  0.105869  0.00012  0.950579  0.0  0.118595  0.000327  1.003817  0.0  0.12153  0.000236  1.003318  0.0  0.111807  0.116309  0.000417  1.004692  0.0
H  H45  1  0.45207139  0.67295385  0.54837444  1  0.105944  0.000119  0.950636  0.0  0.118702  0.000328  1.003877  0.0  0.121656  0.000235  1.003364  0.0  0.111875  0.116374  0.000425  1.004803  0.0
H  H46  1  0.04797849  0.17283201  0.54845861  1  0.105569  -0.000115  0.95051  0.0  0.118229  -0.000325  1.003888  0.0  0.12121  -0.000232  1.003333  0.0  0.111458  0.115861  -0.000424  1.004865  0.0
H  H47  1  0.54792948  0.32698226  0.45154810  1  0.105796  -0.000115  0.950886  0.0  0.118545  -0.000325  1.004135  0.0  0.121494  -0.000232  1.003624  0.0  0.111666  0.116236  -0.000422  1.005048  0.0
H  H48  1  0.99350145  0.13947735  0.41833713  1  0.106651  0.00015  0.946823  0.0  0.119156  0.000321  1.000408  0.0  0.122404  0.000234  0.999293  0.0  0.11154  0.11655  0.000405  1.001885  0.0
H  H49  1  0.49370221  0.36043352  0.58165798  1  0.106588  0.000145  0.946499  0.0  0.119054  0.000311  1.000214  0.0  0.122375  0.000225  0.999006  0.0  0.111414  0.116377  0.0004  1.001778  0.0
H  H50  1  0.00630977  0.86020201  0.58140903  1  0.106749  -0.000177  0.94755  0.0  0.119433  -0.000397  1.000849  0.0  0.1227  -0.000276  0.999741  0.0  0.111664  0.116823  -0.00053  1.002308  0.0
H  H51  1  0.50629231  0.63951694  0.41830860  1  0.106367  -0.000139  0.946819  0.0  0.118938  -0.000308  1.000389  0.0  0.122263  -0.000222  0.999179  0.0  0.111341  0.116254  -0.000397  1.001955  0.0
H  H52  1  0.92707350  0.09075226  0.25818824  1  0.10825  0.001091  0.944538  0.002  0.111401  0.000656  1.011975  0.001  0.114323  0.000496  1.007847  0.001  0.122414  0.108832  0.000805  1.015462  0.002
H  H53  1  0.42764227  0.40927909  0.74188083  1  0.108021  0.001283  0.944471  0.002  0.110845  0.0009  1.012329  0.001  0.11378  0.000674  1.008207  0.001  0.122182  0.108239  0.001103  1.015848  0.002
H  H54  1  0.07263426  0.90879848  0.74155298  1  0.107288  -0.000909  0.945316  -0.002  0.110445  -0.000588  1.012995  -0.001  0.113326  -0.000382  1.008907  -0.001  0.122085  0.107899  -0.000803  1.016438  -0.002
H  H55  1  0.57242302  0.59070524  0.25809874  1  0.107956  -0.001253  0.944465  -0.002  0.110813  -0.000891  1.01226  -0.001  0.113759  -0.000666  1.008127  -0.001  0.122161  0.108173  -0.001095  1.015823  -0.002
C  C56  1  0.62224097  0.05118700  0.01453926  1  -0.127265  -0.001241  3.576445  -0.001  -0.137391  -0.000928  3.814426  -0.001  -0.142579  -0.000662  3.826299  -0.001  -0.081568  -0.133491  -0.001683  3.806934  -0.002
C  C57  1  0.12209323  0.44907135  0.98548188  1  -0.127476  -0.001224  3.575785  -0.002  -0.137335  -0.000748  3.813768  -0.001  -0.142529  -0.000559  3.825755  -0.001  -0.08155  -0.133407  -0.001367  3.806218  -0.002
C  C58  1  0.37860285  0.94864161  0.98538944  1  -0.126425  -0.006619  3.578188  -0.009  -0.137063  -0.003492  3.814961  -0.005  -0.142458  -0.002302  3.827017  -0.003  -0.081219  -0.132774  -0.00527  3.807152  -0.007
C  C59  1  0.87788863  0.55118357  0.01437881  1  -0.127892  0.002133  3.575276  0.003  -0.137478  0.000998  3.812858  0.002  -0.142654  0.00078  3.824849  0.001  -0.081538  -0.133577  0.001626  3.805376  0.002
C  C60  1  0.60851319  0.93605945  0.99246019  1  -0.127184  -0.004839  3.640019  -0.006  -0.143335  -0.002753  3.877097  -0.004  -0.148792  -0.00201  3.891034  -0.003  -0.08976  -0.139409  -0.003704  3.868153  -0.005
C  C61  1  0.10810903  0.56420375  0.00736247  1  -0.127946  0.003616  3.638979  0.005  -0.144016  0.001927  3.875741  0.003  -0.149629  0.001256  3.889627  0.002  -0.089578  -0.139943  0.002127  3.866738  0.003
C  C62  1  0.39209835  0.06382993  0.00736553  1  -0.12849  -0.004729  3.640438  -0.006  -0.143133  -0.003295  3.874611  -0.004  -0.148813  -0.002181  3.88861  -0.003  -0.088865  -0.138943  -0.004556  3.86544  -0.006
C  C63  1  0.89192183  0.43604816  0.99249982  1  -0.12706  -0.003802  3.638298  -0.005  -0.143543  -0.002386  3.874883  -0.003  -0.14916  -0.001518  3.888739  -0.002  -0.089177  -0.13942  -0.002813  3.865881  -0.004
C  C64  1  0.50666534  0.10165653  0.05971197  1  -0.122312  -0.012876  3.600503  -0.017  -0.13954  -0.006906  3.841316  -0.009  -0.145147  -0.004689  3.853627  -0.006  -0.084341  -0.135501  -0.008898  3.833357  -0.011
C  C65  1  0.00668113  0.39833636  0.94026531  1  -0.122873  -0.011929  3.600189  -0.016  -0.139601  -0.006273  3.841435  -0.008  -0.145079  -0.004261  3.853625  -0.006  -0.084296  -0.135713  -0.008012  3.833637  -0.01
C  C66  1  0.49396164  0.89828537  0.94002718  1  -0.123454  0.011996  3.601922  0.016  -0.140371  0.005813  3.843078  0.008  -0.145952  0.004009  3.855324  0.006  -0.084157  -0.136421  0.007642  3.835274  0.01
C  C67  1  0.99334610  0.60190575  0.05957864  1  -0.122661  0.000897  3.600258  0.001  -0.139549  0.0002  3.841563  0.0  -0.145175  2.1e-05  3.853872  0.0  -0.083954  -0.135426  0.000254  3.833586  0.001
C  C68  1  0.73278098  0.07492978  0.07842973  1  0.687663  0.005366  3.796962  0.007  0.648422  0.005027  4.102459  0.006  0.686637  0.003964  4.093129  0.005  0.216984  0.619409  0.005247  4.108384  0.007
C  C69  1  0.23302420  0.42545244  0.92195673  1  0.68914  0.004999  3.794273  0.006  0.649333  0.004844  4.100903  0.006  0.687414  0.00381  4.091817  0.005  0.217177  0.620377  0.005115  4.106692  0.007
C  C70  1  0.26710643  0.92552072  0.92250053  1  0.685516  -0.003734  3.796104  -0.002  0.647446  -0.009129  4.101074  -0.01  0.685635  -0.007051  4.091904  -0.008  0.216285  0.618786  -0.011858  4.10656  -0.012
C  C71  1  0.76698215  0.57475518  0.07796623  1  0.688565  -0.005003  3.79259  -0.007  0.648983  -0.004875  4.098809  -0.006  0.687029  -0.003808  4.089747  -0.005  0.216822  0.619988  -0.005206  4.104658  -0.007
C  C72  1  0.72344424  0.89469808  0.94252258  1  0.678684  0.000409  3.779654  0.002  0.639588  -0.000304  4.078947  0.001  0.675911  6.7e-05  4.072006  0.001  0.2202  0.613023  -0.000827  4.082995  0.001
C  C73  1  0.22282092  0.60575852  0.05750838  1  0.6823  -0.001764  3.773857  -0.004  0.643562  0.001292  4.073133  0.001  0.679975  0.000997  4.065764  0.001  0.221865  0.616967  0.001529  4.077705  0.001
C  C74  1  0.27718997  0.10516599  0.05748505  1  0.680747  0.001974  3.776882  0.004  0.642088  -0.0012  4.075352  -0.001  0.678557  -0.000891  4.067956  -0.001  0.221303  0.615383  -0.001517  4.080118  -0.001
C  C75  1  0.77721899  0.39443403  0.94239278  1  0.680511  0.001869  3.776854  0.004  0.642251  -0.001255  4.07545  -0.001  0.67866  -0.000934  4.068152  -0.001  0.221343  0.615682  -0.001517  4.079929  -0.001
C  C76  1  0.52028270  0.21441501  0.05738918  1  0.684078  0.006389  3.789573  0.012  0.649694  4.2e-05  4.093633  0.003  0.688391  0.000438  4.086244  0.003  0.220423  0.62126  -0.000196  4.097216  0.004
C  C77  1  0.02053950  0.28556557  0.94265729  1  0.683882  0.006963  3.791448  0.013  0.648843  0.000326  4.096088  0.004  0.687373  0.000619  4.088848  0.003  0.219526  0.620626  4e-05  4.099661  0.004
C  C78  1  0.48003668  0.78556003  0.94239132  1  0.686003  -0.006887  3.788209  -0.013  0.651333  -0.000524  4.092366  -0.004  0.69006  -0.000729  4.084937  -0.003  0.220735  0.622846  -0.000289  4.096128  -0.004
C  C79  1  0.97953037  0.71466528  0.05719791  1  0.68337  -0.000391  3.790543  -0.001  0.648486  0.000328  4.095073  0.0  0.687146  0.000259  4.087774  0.0  0.219834  0.620065  0.000514  4.098656  0.0
C  C80  1  0.91303827  0.86770988  0.32106896  1  0.138694  -0.014901  3.684436  -0.019  0.112158  -0.003251  3.940755  -0.005  0.122173  -0.003563  3.956641  -0.005  0.05329  0.104096  -0.003436  3.932134  -0.005
C  C81  1  0.41320875  0.63219618  0.67882020  1  0.139265  -0.014926  3.684177  -0.019  0.112549  -0.003205  3.940541  -0.005  0.122582  -0.003523  3.956597  -0.005  0.053218  0.104533  -0.003389  3.931765  -0.005
C  C82  1  0.08699342  0.13188469  0.67880584  1  0.140364  0.015256  3.683335  0.019  0.113603  0.003168  3.939713  0.005  0.123635  0.003522  3.955651  0.005  0.053521  0.105591  0.003325  3.930986  0.005
C  C83  1  0.58687923  0.36777907  0.32112217  1  0.139709  0.015347  3.684136  0.019  0.113133  0.003285  3.940583  0.005  0.12314  0.003612  3.956552  0.005  0.053516  0.105123  0.003465  3.931858  0.005
C  C84  1  0.94869847  0.88872502  0.41221328  1  -0.163335  0.017013  3.719762  0.02  -0.182867  0.004452  3.96469  0.006  -0.191395  0.004277  3.98528  0.005  -0.082595  -0.177788  0.00503  3.952704  0.007
C  C85  1  0.44875137  0.61112491  0.58764228  1  -0.164101  0.017146  3.720294  0.02  -0.183558  0.004482  3.965072  0.006  -0.19211  0.004279  3.985643  0.005  -0.08284  -0.178478  0.005115  3.953137  0.007
C  C86  1  0.05132688  0.11094099  0.58764809  1  -0.163437  -0.016727  3.719986  -0.02  -0.182653  -0.004411  3.964633  -0.006  -0.191182  -0.004192  3.985147  -0.005  -0.082578  -0.177551  -0.005059  3.9528  -0.007
C  C87  1  0.55125766  0.38881648  0.41228779  1  -0.16364  -0.016784  3.720173  -0.02  -0.183295  -0.004435  3.964881  -0.006  -0.19185  -0.004222  3.9855  -0.005  -0.082676  -0.178214  -0.005076  3.952922  -0.007
C  C88  1  0.97995708  0.98742735  0.45163670  1  0.090613  -0.016044  3.767332  -0.02  0.101469  -0.004613  4.001509  -0.006  0.106674  -0.004162  4.022262  -0.005  0.009584  0.097205  -0.005836  3.98867  -0.007
C  C89  1  0.48001187  0.51242311  0.54825142  1  0.091415  -0.016067  3.767296  -0.02  0.102343  -0.004551  4.001012  -0.006  0.107608  -0.004116  4.021716  -0.005  0.009853  0.097996  -0.005773  3.988221  -0.007
C  C90  1  0.02002019  0.01227769  0.54817272  1  0.091059  0.016362  3.76789  0.02  0.101848  0.004492  4.001947  0.006  0.107113  0.0041  4.022609  0.005  0.009829  0.097406  0.005685  3.989345  0.007
C  C91  1  0.51997539  0.48750550  0.45168832  1  0.090363  0.016441  3.767669  0.02  0.101704  0.004613  4.00109  0.006  0.106905  0.004179  4.021869  0.005  0.009644  0.097396  0.005847  3.988261  0.007
C  C92  1  0.97115145  0.06099996  0.39425920  1  -0.154562  0.017144  3.700667  0.02  -0.173819  0.004485  3.944213  0.006  -0.182137  0.004351  3.964223  0.006  -0.080498  -0.168979  0.005015  3.93292  0.007
C  C93  1  0.47135604  0.43891009  0.60570436  1  -0.155161  0.017261  3.701162  0.021  -0.174402  0.00462  3.944498  0.006  -0.182758  0.004409  3.964414  0.006  -0.080479  -0.16957  0.005247  3.933335  0.007
C  C94  1  0.02870967  0.93865913  0.60551248  1  -0.155167  -0.016882  3.703192  -0.021  -0.174282  -0.004597  3.946247  -0.006  -0.182572  -0.004354  3.966208  -0.006  -0.080674  -0.16951  -0.005271  3.935083  -0.007
C  C95  1  0.52864665  0.56103886  0.39425387  1  -0.154607  -0.016904  3.701298  -0.021  -0.17399  -0.004567  3.944349  -0.006  -0.182345  -0.004352  3.9643  -0.006  -0.080538  -0.169172  -0.005198  3.933164  -0.007
C  C96  1  0.93391719  0.03484485  0.30377319  1  0.137306  -0.014494  3.667383  -0.018  0.111002  -0.003081  3.92367  -0.004  0.121273  -0.003415  3.939497  -0.005  0.052585  0.102628  -0.003254  3.915252  -0.004
C  C97  1  0.43429418  0.46513616  0.69622561  1  0.13762  -0.014288  3.667415  -0.018  0.111822  -0.002653  3.923395  -0.004  0.12212  -0.003095  3.939292  -0.005  0.052633  0.103425  -0.002736  3.91503  -0.004
C  C98  1  0.06591760  0.96474278  0.69599499  1  0.137611  0.014641  3.669054  0.018  0.111578  0.002656  3.924876  0.004  0.121761  0.003161  3.940893  0.005  0.052676  0.103329  0.002644  3.91631  0.004
C  C99  1  0.56575387  0.53483461  0.30374186  1  0.137265  0.014658  3.667677  0.018  0.111608  0.002711  3.923665  0.004  0.121879  0.003164  3.939509  0.005  0.052618  0.103229  0.002787  3.915337  0.004
N  N100  1  0.90603382  0.93944906  0.26726703  1  -0.278382  0.071213  3.312888  0.106  -0.241238  0.04133  3.602917  0.063  -0.268588  0.034012  3.619462  0.053  -0.329482  -0.222207  0.047271  3.593396  0.071
N  N101  1  0.40641906  0.56052313  0.73270959  1  -0.27953  0.072293  3.312154  0.107  -0.242147  0.041953  3.601938  0.064  -0.269693  0.034378  3.618673  0.053  -0.32962  -0.223151  0.048408  3.592395  0.072
N  N102  1  0.09387083  0.06009204  0.73256353  1  -0.28041  -0.07059  3.312066  -0.107  -0.242851  -0.041555  3.601994  -0.064  -0.270316  -0.033865  3.618747  -0.053  -0.329676  -0.223921  -0.048179  3.592333  -0.072
N  N103  1  0.59368071  0.43946419  0.26725213  1  -0.278824  -0.070691  3.311698  -0.107  -0.241763  -0.041453  3.601581  -0.064  -0.269146  -0.033849  3.618188  -0.053  -0.329255  -0.222895  -0.048013  3.592101  -0.072
O  O104  1  0.05505110  0.18981462  0.18287662  1  -0.796674  -0.036005  1.878811  -0.055  -0.767822  -0.028037  2.062378  -0.042  -0.794621  -0.021864  2.029006  -0.034  -0.567201  -0.74548  -0.033528  2.086552  -0.049
O  O105  1  0.55507931  0.31029486  0.81724013  1  -0.795955  -0.036096  1.880813  -0.055  -0.767305  -0.027772  2.065488  -0.042  -0.79461  -0.021691  2.032258  -0.034  -0.566019  -0.74434  -0.033056  2.089414  -0.049
O  O106  1  0.94566570  0.81038219  0.81733592  1  -0.798428  -0.036614  1.880788  -0.056  -0.769583  -0.02794  2.065792  -0.043  -0.796729  -0.021728  2.03214  -0.034  -0.566873  -0.746955  -0.033485  2.09031  -0.049
O  O107  1  0.44495422  0.68967968  0.18273397  1  -0.796322  0.036911  1.880633  0.055  -0.767446  0.028082  2.0655  0.042  -0.794703  0.02202  2.032273  0.034  -0.566023  -0.744586  0.033299  2.089577  0.049
O  O108  1  0.70510951  0.82379640  0.17401651  1  -0.77587  0.031602  1.909114  0.047  -0.751293  0.025391  2.099308  0.038  -0.776595  0.020642  2.068824  0.032  -0.557409  -0.728323  0.029113  2.12662  0.043
O  O109  1  0.20504513  0.67581659  0.82582676  1  -0.773109  0.031057  1.907496  0.046  -0.745042  0.025506  2.102518  0.038  -0.770602  0.020781  2.071891  0.032  -0.556283  -0.724935  0.029123  2.124826  0.043
O  O110  1  0.29412187  0.17611287  0.82610806  1  -0.774457  -0.030765  1.9103  -0.047  -0.746515  -0.025327  2.104528  -0.039  -0.771662  -0.020374  2.074399  -0.032  -0.55689  -0.726352  -0.029557  2.126851  -0.044
O  O111  1  0.79442851  0.32381650  0.17418903  1  -0.775453  -0.030691  1.909932  -0.047  -0.747108  -0.025204  2.104705  -0.038  -0.772869  -0.020382  2.073973  -0.032  -0.557544  -0.726848  -0.02907  2.127033  -0.043
O  O112  1  0.81096081  0.13660748  0.05543229  1  -0.633626  -0.026336  2.040271  -0.042  -0.60489  -0.016163  2.304527  -0.025  -0.638949  -0.012456  2.289961  -0.019  -0.316458  -0.576565  -0.019898  2.314226  -0.03
O  O113  1  0.31125284  0.36406941  0.94530085  1  -0.63375  -0.02645  2.038444  -0.042  -0.605223  -0.016263  2.303476  -0.025  -0.639013  -0.012636  2.288597  -0.02  -0.31638  -0.576807  -0.019884  2.313341  -0.03
O  O114  1  0.18798204  0.86582460  0.94743370  1  -0.630197  -0.044247  2.046389  -0.071  -0.604058  -0.027937  2.314048  -0.045  -0.638659  -0.020848  2.299429  -0.034  -0.316307  -0.575078  -0.035556  2.323655  -0.056
O  O115  1  0.68874806  0.63617286  0.05465282  1  -0.634207  0.027456  2.038979  0.042  -0.606389  0.016636  2.304902  0.025  -0.640328  0.012976  2.290051  0.02  -0.316741  -0.577263  0.020228  2.314003  0.03
O  O116  1  0.74049834  0.03029503  0.14779711  1  -0.632598  0.022188  2.021804  0.032  -0.608061  0.014396  2.280095  0.02  -0.640775  0.01139  2.267054  0.015  -0.328648  -0.58108  0.015902  2.288074  0.021
O  O117  1  0.24104641  0.47004156  0.85254876  1  -0.633726  0.023693  2.022544  0.035  -0.608919  0.015269  2.281217  0.021  -0.641966  0.011922  2.268392  0.016  -0.328849  -0.581655  0.017157  2.288998  0.023
O  O118  1  0.25909414  0.96961798  0.85282094  1  -0.631782  -0.028497  2.022268  -0.044  -0.608063  -0.018485  2.280798  -0.027  -0.640961  -0.013872  2.26774  -0.02  -0.328238  -0.581054  -0.023855  2.288659  -0.035
O  O119  1  0.75899351  0.53014344  0.14733235  1  -0.631993  -0.02297  2.021241  -0.035  -0.607422  -0.014986  2.279685  -0.021  -0.640344  -0.011615  2.266846  -0.016  -0.328117  -0.580277  -0.016927  2.287612  -0.023
O  O120  1  0.81691831  0.88506125  0.99360386  1  -0.650512  -0.013784  2.223594  -0.023  -0.6233  -0.007296  2.511805  -0.013  -0.6707  -0.004689  2.503964  -0.009  -0.314402  -0.583916  -0.009581  2.515695  -0.017
O  O121  1  0.31643505  0.61519899  0.00645031  1  -0.652649  0.07273  2.226891  0.114  -0.627515  0.051745  2.518403  0.083  -0.674994  0.041055  2.510062  0.066  -0.316275  -0.588337  0.060434  2.522677  0.095
O  O122  1  0.18345812  0.11404840  0.00639556  1  -0.652213  -0.070211  2.227285  -0.113  -0.626969  -0.050688  2.51876  -0.082  -0.674511  -0.039982  2.510646  -0.066  -0.315529  -0.587975  -0.059501  2.523005  -0.095
O  O123  1  0.68365114  0.38498007  0.99348141  1  -0.650852  -0.071255  2.228514  -0.114  -0.625734  -0.05122  2.519681  -0.083  -0.673235  -0.040472  2.511427  -0.066  -0.315532  -0.586522  -0.060045  2.523809  -0.095
O  O124  1  0.72664749  0.87775503  0.85636895  1  -0.587281  0.004523  1.898655  0.006  -0.541758  0.002528  2.09513  0.004  -0.565322  0.001665  2.08387  0.002  -0.313835  -0.524026  0.003393  2.102396  0.005
O  O125  1  0.22567002  0.62312762  0.14361389  1  -0.586676  0.00406  1.8974  0.006  -0.54095  0.002371  2.093412  0.004  -0.564325  0.001175  2.081953  0.002  -0.313567  -0.523577  0.003889  2.101062  0.006
O  O126  1  0.27446773  0.12286862  0.14357041  1  -0.58559  -0.004118  1.898783  -0.007  -0.540184  -0.002449  2.094584  -0.004  -0.563548  -0.00119  2.083111  -0.002  -0.313154  -0.522808  -0.004097  2.102312  -0.007
O  O127  1  0.77433179  0.37704462  0.85628029  1  -0.586577  -0.004046  1.898957  -0.007  -0.541272  -0.002398  2.094762  -0.004  -0.564684  -0.001177  2.083312  -0.002  -0.313674  -0.523805  -0.003974  2.102365  -0.006
O  O128  1  0.56018430  0.26919766  0.12893265  1  -0.586043  -0.055959  2.077772  -0.092  -0.570734  -0.034126  2.348818  -0.058  -0.609271  -0.02524  2.33804  -0.044  -0.303913  -0.539147  -0.042382  2.354588  -0.07
O  O129  1  0.06044551  0.23081912  0.87108691  1  -0.587096  -0.057321  2.074039  -0.093  -0.570602  -0.035439  2.344126  -0.06  -0.608968  -0.026119  2.333568  -0.045  -0.304319  -0.539566  -0.044252  2.349977  -0.073
O  O130  1  0.43963965  0.73090682  0.87093284  1  -0.587563  0.057095  2.077306  0.091  -0.572064  0.034399  2.348562  0.058  -0.61072  0.025579  2.337681  0.044  -0.304714  -0.540419  0.042315  2.354461  0.069
O  O131  1  0.93915249  0.76917775  0.12874687  1  -0.585229  0.059222  2.076263  0.093  -0.569856  0.035912  2.34756  0.059  -0.608557  0.027193  2.33699  0.045  -0.303931  -0.538167  0.043919  2.353306  0.071
O  O132  1  0.49488944  0.24261955  0.98129774  1  -0.628869  -0.048523  2.119913  -0.079  -0.607594  -0.030353  2.398134  -0.051  -0.646999  -0.023249  2.386649  -0.04  -0.316428  -0.576011  -0.036107  2.405167  -0.059
O  O133  1  0.99529680  0.25741351  0.01879873  1  -0.629928  -0.048034  2.116701  -0.078  -0.607436  -0.030371  2.393849  -0.051  -0.64655  -0.023243  2.382595  -0.04  -0.316165  -0.576307  -0.036153  2.40068  -0.059
O  O134  1  0.50547440  0.75730953  0.01842942  1  -0.628946  0.049473  2.120853  0.079  -0.607071  0.030662  2.398779  0.051  -0.646414  0.023591  2.387297  0.04  -0.315929  -0.575657  0.036156  2.405778  0.059
O  O135  1  0.00519229  0.74304026  0.98124152  1  -0.629496  -0.049246  2.118137  -0.079  -0.60708  -0.030906  2.394979  -0.051  -0.6463  -0.024055  2.383706  -0.04  -0.315973  -0.575699  -0.036928  2.401792  -0.059
O  O136  1  0.99403386  0.02872544  0.91583809  1  -0.875285  -0.160642  1.982383  -0.255  -0.907069  -0.10108  2.300581  -0.161  -0.969419  -0.077727  2.277158  -0.127  -0.546458  -0.852954  -0.121966  2.313341  -0.19
O  O137  1  0.49617614  0.47270277  0.08421580  1  -0.869024  -0.076742  1.979459  -0.121  -0.899755  -0.045133  2.295515  -0.072  -0.964087  -0.033302  2.274513  -0.055  -0.541133  -0.84193  -0.057003  2.307007  -0.089
O  O138  1  0.00323586  0.97248082  0.08460166  1  -0.871314  -0.044427  1.981736  -0.07  -0.900913  -0.027481  2.297523  -0.043  -0.965114  -0.021402  2.276461  -0.035  -0.541915  -0.843327  -0.032176  2.309053  -0.049
O  O139  1  0.50403072  0.52733118  0.91574313  1  -0.868272  0.07958  1.979831  0.122  -0.899132  0.04614  2.296083  0.073  -0.963536  0.034229  2.274974  0.055  -0.541083  -0.841201  0.057973  2.307611  0.09
