# generated using pymatgen
data_CuH8C11N2Cl2O
_symmetry_space_group_name_H-M   'P 1'
_cell_length_a   7.35861474
_cell_length_b   8.54667557
_cell_length_c   9.83307852
_cell_angle_alpha   84.76697256
_cell_angle_beta   70.58151435
_cell_angle_gamma   73.39155943
_symmetry_Int_Tables_number   1
_chemical_formula_structural   CuH8C11N2Cl2O
_chemical_formula_sum   'Cu2 H16 C22 N4 Cl4 O2'
_cell_volume   558.90295419
_cell_formula_units_Z   2
loop_
 _symmetry_equiv_pos_site_id
 _symmetry_equiv_pos_as_xyz
  1  'x, y, z'
loop_
 _atom_site_type_symbol
 _atom_site_label
 _atom_site_symmetry_multiplicity
 _atom_site_fract_x
 _atom_site_fract_y
 _atom_site_fract_z
 _atom_site_occupancy
 _atom_site_hle17_ddec_charge
 _atom_site_hle17_ddec_spin_density
 _atom_site_hle17_ddec_sum_bond_order
 _atom_site_hle17_magmom
 _atom_site_hse06_10hf_ddec_charge
 _atom_site_hse06_10hf_ddec_spin_density
 _atom_site_hse06_10hf_ddec_sum_bond_order
 _atom_site_hse06_10hf_magmom
 _atom_site_hse06_ddec_charge
 _atom_site_hse06_ddec_spin_density
 _atom_site_hse06_ddec_sum_bond_order
 _atom_site_hse06_magmom
 _atom_site_pbe_cm5_charge
 _atom_site_pbe_ddec_charge
 _atom_site_pbe_ddec_spin_density
 _atom_site_pbe_ddec_sum_bond_order
 _atom_site_pbe_magmom
Cu  Cu0  1  0.22737389  0.53494844  0.05593528  1  0.717397  -0.648902  1.960038  -0.447  0.707651  -0.745818  2.348914  -0.564  0.799039  -0.831832  2.272994  -0.652  0.583755  0.657098  -0.685983  2.395459  -0.508
Cu  Cu1  1  0.77263308  0.46505675  0.94406084  1  0.717436  0.648901  1.960045  0.447  0.707756  0.745833  2.348941  0.564  0.79906  0.831833  2.273006  0.652  0.583775  0.657152  0.68598  2.395479  0.508
H  H2  1  0.22841966  0.23185904  0.21680069  1  0.084842  -0.000438  0.944678  -0.001  0.093739  -0.00062  1.007162  -0.001  0.096314  -0.000485  1.004145  -0.001  0.113065  0.091867  -0.000729  1.009327  -0.001
H  H3  1  0.77158374  0.76814004  0.78318760  1  0.084898  0.000438  0.944694  0.001  0.093787  0.00062  1.007164  0.001  0.096363  0.000485  1.004144  0.001  0.113065  0.09192  0.000729  1.00933  0.001
H  H4  1  0.29016667  0.11302944  0.44296034  1  0.114516  -0.0006  0.953424  -0.001  0.124162  -0.000636  1.012631  -0.001  0.127023  -0.00046  1.012379  -0.001  0.109991  0.121971  -0.000639  1.013029  -0.001
H  H5  1  0.70982746  0.88696718  0.55703140  1  0.114561  0.000601  0.953374  0.001  0.124153  0.000636  1.012647  0.001  0.127011  0.00046  1.012402  0.001  0.109991  0.121966  0.000639  1.013043  0.001
H  H6  1  0.33354606  0.29790639  0.61271930  1  0.113539  -0.00027  0.930384  -0.001  0.122657  -0.000107  0.989505  0.0  0.125619  -4.2e-05  0.987398  0.0  0.109888  0.12063  -0.000257  0.990887  0.0
H  H7  1  0.66643811  0.70208532  0.38728133  1  0.113501  0.000271  0.9304  0.001  0.12258  0.000107  0.989593  0.0  0.125542  4.2e-05  0.987484  0.0  0.109931  0.12056  0.000257  0.99097  0.0
H  H8  1  0.29523755  0.59171903  0.54751230  1  0.11653  -0.001467  0.964013  0.0  0.125769  -0.001459  1.025441  0.0  0.129532  -0.001149  1.023564  0.0  0.104485  0.123048  -0.001402  1.027504  -0.001
H  H9  1  0.70474325  0.40827389  0.45249413  1  0.116553  0.001468  0.963979  0.0  0.125878  0.001458  1.025317  0.0  0.129637  0.001149  1.02345  0.0  0.104532  0.123154  0.001402  1.027387  0.001
H  H10  1  0.97196072  0.04210774  0.37502601  1  0.115181  -0.000557  0.955298  -0.001  0.122232  -0.00054  1.020154  -0.001  0.125625  -0.00039  1.018613  0.0  0.110066  0.119716  -0.000649  1.021544  -0.001
H  H11  1  0.02804634  0.95789257  0.62497860  1  0.115115  0.000555  0.955363  0.001  0.122213  0.000539  1.020167  0.001  0.125606  0.00039  1.018627  0.0  0.110052  0.119694  0.000649  1.021559  0.001
H  H12  1  0.69083817  0.18074708  0.27783695  1  0.100544  -0.000469  0.968335  -0.001  0.110774  -0.000137  1.027691  0.0  0.113547  -5.9e-05  1.025673  0.0  0.099232  0.108671  -0.000239  1.029442  0.0
H  H13  1  0.30917178  0.81925323  0.72216595  1  0.100512  0.000469  0.968383  0.001  0.110758  0.000137  1.027736  0.0  0.113529  5.9e-05  1.02572  0.0  0.099224  0.108658  0.000239  1.029478  0.0
H  H14  1  0.63176052  0.03016999  0.09506274  1  0.114614  -0.001184  0.954999  -0.001  0.123369  -0.001063  1.016644  -0.001  0.127616  -0.000762  1.014161  0.0  0.09947  0.120395  -0.001298  1.018396  -0.001
H  H15  1  0.36823938  0.96983885  0.90493990  1  0.114568  0.001185  0.955037  0.001  0.123359  0.001063  1.016632  0.001  0.127605  0.000761  1.014151  0.0  0.099484  0.120388  0.001298  1.018382  0.001
H  H16  1  0.86887109  0.75713592  0.00818992  1  0.071905  -0.000839  1.011651  -0.001  0.075461  -0.000843  1.085779  -0.001  0.077628  -0.000661  1.08274  -0.001  0.095833  0.07346  -0.000983  1.088469  -0.002
H  H17  1  0.13112983  0.24287415  0.99181339  1  0.071808  0.000838  1.011668  0.001  0.075409  0.000843  1.085761  0.001  0.07758  0.000661  1.082721  0.001  0.095811  0.073397  0.000983  1.088487  0.002
C  C18  1  0.24379848  0.30720985  0.29351236  1  0.14394  0.005073  3.674235  0.005  0.115456  0.000219  3.926687  0.0  0.124625  0.001351  3.944232  0.002  0.049709  0.109338  -0.000236  3.915001  0.0
C  C19  1  0.75620570  0.69278679  0.70647899  1  0.143856  -0.005072  3.674218  -0.005  0.115426  -0.000218  3.926678  0.0  0.124593  -0.001351  3.944217  -0.002  0.049765  0.109299  0.000236  3.914999  0.0
C  C20  1  0.27942154  0.24189044  0.42031399  1  -0.113563  -0.007069  3.700271  -0.007  -0.127205  -0.003481  3.95064  -0.004  -0.134227  -0.003271  3.970815  -0.004  -0.077439  -0.122201  -0.003783  3.936774  -0.004
C  C21  1  0.72057505  0.75810740  0.57967808  1  -0.113632  0.007069  3.700223  0.007  -0.127235  0.003481  3.950593  0.004  -0.134259  0.003271  3.970772  0.004  -0.077519  -0.122237  0.003784  3.936736  0.004
C  C22  1  0.30213027  0.34332104  0.51331749  1  0.011125  0.005657  3.671647  0.005  -0.008146  0.001465  3.925578  0.001  -0.003127  0.001947  3.940546  0.002  -0.060409  -0.011628  0.001629  3.91538  0.002
C  C23  1  0.69785591  0.65667311  0.48668551  1  0.011161  -0.005658  3.671567  -0.005  -0.008086  -0.001465  3.925568  -0.001  -0.003065  -0.001947  3.940532  -0.002  -0.060472  -0.011571  -0.00163  3.915367  -0.002
C  C24  1  0.28379801  0.50701577  0.47672686  1  -0.10012  -0.008337  3.661223  -0.008  -0.12266  -0.004381  3.906293  -0.005  -0.127831  -0.003969  3.925184  -0.004  -0.070405  -0.119278  -0.005732  3.894206  -0.006
C  C25  1  0.71619270  0.49297351  0.52327542  1  -0.100027  0.008336  3.661054  0.008  -0.122694  0.00438  3.906077  0.005  -0.127863  0.003971  3.92496  0.004  -0.07039  -0.119325  0.005733  3.894029  0.006
C  C26  1  0.24717190  0.56454397  0.34796287  1  0.140905  0.003958  3.713543  0.005  0.141073  0.000156  3.95486  0.001  0.145198  0.001386  3.97609  0.003  0.114755  0.138077  -0.001595  3.94161  -0.001
C  C27  1  0.75282637  0.43545265  0.65204008  1  0.140692  -0.003958  3.713854  -0.005  0.141016  -0.000154  3.95504  -0.001  0.14515  -0.001389  3.976277  -0.003  0.114725  0.138014  0.001595  3.94178  0.001
C  C28  1  0.21154278  0.74499588  0.32011275  1  0.339001  -0.002449  3.716548  -0.003  0.319061  -0.002235  3.978774  -0.004  0.340449  -0.001784  3.97768  -0.003  0.164274  0.30367  -0.002377  3.980058  -0.003
C  C29  1  0.78845362  0.25500195  0.67989259  1  0.339064  0.002451  3.716658  0.003  0.319129  0.002235  3.97883  0.004  0.340477  0.001785  3.977794  0.003  0.164227  0.303745  0.002378  3.980101  0.003
C  C30  1  0.06439967  0.82859440  0.24325501  1  0.131239  0.003615  3.727333  0.003  0.131149  -0.00034  3.969103  0.0  0.135386  0.000945  3.990639  0.001  0.108315  0.128798  -0.00157  3.955  -0.002
C  C31  1  0.93560617  0.17140957  0.75674860  1  0.131306  -0.003618  3.727186  -0.003  0.131147  0.000341  3.969054  0.0  0.135393  -0.00095  3.990598  -0.001  0.108385  0.128795  0.00157  3.954941  0.002
C  C32  1  0.94406838  0.98447205  0.29257905  1  -0.116735  -0.007791  3.685979  -0.008  -0.138028  -0.003934  3.932698  -0.005  -0.143688  -0.003537  3.95186  -0.004  -0.074629  -0.134114  -0.003892  3.919781  -0.005
C  C33  1  0.05594041  0.01553193  0.70741875  1  -0.116628  0.007797  3.685743  0.008  -0.137947  0.003933  3.9325  0.005  -0.143609  0.003539  3.951662  0.004  -0.074605  -0.134034  0.003892  3.919583  0.005
C  C34  1  0.78578187  0.05948619  0.24053563  1  0.007999  0.007197  3.703222  0.007  -0.007374  0.002597  3.947251  0.002  -0.002898  0.002843  3.963386  0.003  -0.064749  -0.010468  0.002342  3.936362  0.002
C  C35  1  0.21422586  0.94051655  0.75946558  1  0.008046  -0.007198  3.703077  -0.007  -0.007356  -0.002595  3.947117  -0.002  -0.002884  -0.002844  3.963265  -0.003  -0.064746  -0.010448  -0.002342  3.93622  -0.002
C  C36  1  0.75369076  0.97684183  0.13894091  1  -0.085222  -0.008028  3.666448  -0.008  -0.09941  -0.003781  3.91174  -0.004  -0.105766  -0.003532  3.930114  -0.004  -0.074994  -0.095276  -0.003787  3.89942  -0.004
C  C37  1  0.24630790  0.02316212  0.86106341  1  -0.085239  0.008029  3.666492  0.008  -0.099424  0.003779  3.911774  0.004  -0.105784  0.003534  3.930152  0.004  -0.075003  -0.095291  0.003787  3.899453  0.004
C  C38  1  0.88413670  0.82444227  0.09031645  1  0.143375  0.006097  3.686589  0.006  0.115331  0.000806  3.936531  0.001  0.124543  0.002064  3.955258  0.003  0.047874  0.109545  -0.000214  3.924664  0.0
C  C39  1  0.11586625  0.17556169  0.90968888  1  0.143492  -0.006098  3.686572  -0.006  0.115372  -0.000806  3.936563  -0.001  0.12458  -0.002066  3.95529  -0.003  0.047862  0.109581  0.000214  3.924687  0.0
N  N40  1  0.22980860  0.46462805  0.25732467  1  -0.304343  -0.067606  3.352844  -0.082  -0.253514  -0.054927  3.629037  -0.071  -0.28341  -0.047574  3.6537  -0.065  -0.337085  -0.234826  -0.060174  3.613912  -0.075
N  N41  1  0.77019142  0.53537225  0.74267046  1  -0.30422  0.067607  3.352883  0.082  -0.253532  0.054924  3.629136  0.071  -0.283404  0.047574  3.653759  0.065  -0.33709  -0.23483  0.060176  3.613989  0.075
N  N42  1  0.03560121  0.75147393  0.14117259  1  -0.308765  -0.0747  3.347947  -0.09  -0.257723  -0.06016  3.623608  -0.078  -0.289107  -0.051413  3.649522  -0.07  -0.338675  -0.23992  -0.065097  3.608443  -0.081
N  N43  1  0.96439988  0.24853125  0.85883308  1  -0.308868  0.074699  3.347933  0.09  -0.257791  0.060154  3.623641  0.078  -0.289147  0.051412  3.649509  0.07  -0.338724  -0.239974  0.065095  3.608455  0.081
Cl  Cl44  1  0.48274658  0.30322118  0.96822497  1  -0.498231  -0.130617  1.093505  -0.145  -0.502268  -0.081527  1.392592  -0.095  -0.541061  -0.065201  1.371192  -0.078  -0.269622  -0.47904  -0.089632  1.407572  -0.101
Cl  Cl45  1  0.51725466  0.69677545  0.03177115  1  -0.498256  0.130612  1.093534  0.145  -0.502324  0.081522  1.392666  0.095  -0.541104  0.065198  1.371255  0.078  -0.269654  -0.479094  0.089629  1.407638  0.101
Cl  Cl46  1  0.17280938  0.56946314  0.84038859  1  -0.506969  -0.130616  1.022194  -0.145  -0.519508  -0.078055  1.32548  -0.09  -0.553634  -0.06157  1.304021  -0.074  -0.294194  -0.49838  -0.086824  1.341494  -0.099
Cl  Cl47  1  0.82719881  0.43054695  0.15960788  1  -0.506932  0.130622  1.02216  0.145  -0.519508  0.078056  1.325497  0.09  -0.553623  0.061574  1.304038  0.074  -0.294195  -0.498366  0.086827  1.341511  0.099
O  O48  1  0.27078806  0.82738835  0.38427513  1  -0.432724  2.5e-05  1.941993  0.0  -0.392047  -3.9e-05  2.148223  0.0  -0.407375  0.000773  2.144026  0.001  -0.248493  -0.381134  -0.001502  2.151084  -0.002
O  O49  1  0.72921176  0.17261194  0.61573428  1  -0.432746  -2.5e-05  1.942089  0.0  -0.392088  3.8e-05  2.148322  0.0  -0.407403  -0.000767  2.144152  -0.001  -0.24845  -0.381173  0.001503  2.151178  0.002
