# generated using pymatgen
data_AgB6H15C10N3
_symmetry_space_group_name_H-M   'P 1'
_cell_length_a   7.20556149
_cell_length_b   9.67893778
_cell_length_c   11.22642270
_cell_angle_alpha   111.94643321
_cell_angle_beta   112.97918812
_cell_angle_gamma   89.06143664
_symmetry_Int_Tables_number   1
_chemical_formula_structural   AgB6H15C10N3
_chemical_formula_sum   'Ag2 B12 H30 C20 N6'
_cell_volume   660.85351635
_cell_formula_units_Z   2
loop_
 _symmetry_equiv_pos_site_id
 _symmetry_equiv_pos_as_xyz
  1  'x, y, z'
loop_
 _atom_site_type_symbol
 _atom_site_label
 _atom_site_symmetry_multiplicity
 _atom_site_fract_x
 _atom_site_fract_y
 _atom_site_fract_z
 _atom_site_occupancy
 _atom_site_hle17_bader_spin_density
 _atom_site_hle17_ddec_charge
 _atom_site_hle17_ddec_spin_density
 _atom_site_hle17_ddec_sum_bond_order
 _atom_site_hle17_magmom
 _atom_site_hse06_10hf_bader_spin_density
 _atom_site_hse06_10hf_ddec_charge
 _atom_site_hse06_10hf_ddec_spin_density
 _atom_site_hse06_10hf_ddec_sum_bond_order
 _atom_site_hse06_10hf_magmom
 _atom_site_hse06_bader_spin_density
 _atom_site_hse06_ddec_charge
 _atom_site_hse06_ddec_spin_density
 _atom_site_hse06_ddec_sum_bond_order
 _atom_site_hse06_magmom
 _atom_site_pbe_bader_spin_density
 _atom_site_pbe_cm5_charge
 _atom_site_pbe_ddec_charge
 _atom_site_pbe_ddec_spin_density
 _atom_site_pbe_ddec_sum_bond_order
 _atom_site_pbe_magmom
Ag  Ag0  1  0.95481405  0.25704617  0.30554091  1  0  0.562746  0  1.511511  0  0  0.436679  0  1.943029  0  0  0.458516  0  1.906232  0  0  0.552958  0.421498  0  1.967976  0
Ag  Ag1  1  0.04520866  0.74293662  0.69445026  1  0  0.5628  0  1.511469  0  0  0.436731  0  1.942978  0  0  0.458576  0  1.906187  0  0  0.55295  0.421557  0  1.967903  0
B  B2  1  0.26738115  0.43938008  0.47865440  1  0  -0.057767  0  3.43363  0  0  -0.061879  0  3.620751  0  0  -0.062266  0  3.632683  0  0  -0.207124  -0.061657  0  3.61273  0
B  B3  1  0.73260989  0.56061816  0.52134615  1  0  -0.057789  0  3.433671  0  0  -0.061857  0  3.620705  0  0  -0.062291  0  3.632731  0  0  -0.207109  -0.061642  0  3.6127  0
B  B4  1  0.34652292  0.37426267  0.33854390  1  0  -0.049389  0  3.465265  0  0  -0.068631  0  3.662902  0  0  -0.068284  0  3.67238  0  0  -0.200282  -0.069124  0  3.656894  0
B  B5  1  0.65347168  0.62573775  0.66145819  1  0  -0.049509  0  3.465405  0  0  -0.068761  0  3.663081  0  0  -0.068403  0  3.67256  0  0  -0.200332  -0.069262  0  3.65708  0
B  B6  1  0.30037640  0.56381309  0.40247212  1  0  0.004525  0  3.382503  0  0  -0.02095  0  3.584248  0  0  -0.020538  0  3.596501  0  0  -0.172351  -0.021297  0  3.576474  0
B  B7  1  0.69961638  0.43618625  0.59752830  1  0  0.004491  0  3.382554  0  0  -0.020962  0  3.58424  0  0  -0.020541  0  3.596494  0  0  -0.172363  -0.021309  0  3.576463  0
B  B8  1  0.38801780  0.62784744  0.58766148  1  0  0.003421  0  3.389739  0  0  -0.020289  0  3.590937  0  0  -0.021063  0  3.604337  0  0  -0.174551  -0.019633  0  3.581504  0
B  B9  1  0.61197614  0.37215074  0.41233793  1  0  0.003487  0  3.389628  0  0  -0.020214  0  3.590803  0  0  -0.020994  0  3.604204  0  0  -0.174532  -0.019558  0  3.58137  0
B  B10  1  0.48492798  0.47810697  0.63866596  1  0  0.012297  0  3.380186  0  0  -0.014865  0  3.584622  0  0  -0.01475  0  3.596999  0  0  -0.171136  -0.015098  0  3.576401  0
B  B11  1  0.51506606  0.52189120  0.36133525  1  0  0.012308  0  3.380184  0  0  -0.014817  0  3.584523  0  0  -0.014629  0  3.596773  0  0  -0.171143  -0.015052  0  3.576311  0
B  B12  1  0.45920806  0.32084643  0.48474928  1  0  -0.013261  0  3.414837  0  0  -0.037221  0  3.618586  0  0  -0.036633  0  3.62993  0  0  -0.178133  -0.037871  0  3.610917  0
B  B13  1  0.54078505  0.67915402  0.51525247  1  0  -0.013194  0  3.41478  0  0  -0.037166  0  3.618565  0  0  -0.036583  0  3.629908  0  0  -0.1781  -0.037819  0  3.61091  0
H  H14  1  0.67242404  0.85674135  0.88207973  1  0  0.291937  0  0.910015  0  0  0.279529  0  0.96744  0  0  0.284891  0  0.964551  0  0  0.31489  0.275776  0  0.969572  0
H  H15  1  0.32756749  0.14326365  0.11792851  1  0  0.291943  0  0.910045  0  0  0.279516  0  0.967497  0  0  0.28488  0  0.964607  0  0  0.314879  0.275761  0  0.969631  0
H  H16  1  0.88427177  0.04741693  0.42828797  1  0  0.066186  0  0.955933  0  0  0.076813  0  1.020581  0  0  0.078598  0  1.019072  0  0  0.11328  0.075592  0  1.021556  0
H  H17  1  0.11572637  0.95257204  0.57171739  1  0  0.066202  0  0.955917  0  0  0.076807  0  1.020586  0  0  0.078593  0  1.019074  0  0  0.113256  0.075585  0  1.021564  0
H  H18  1  0.78336242  0.77841503  0.37899589  1  0  0.109877  0  0.960583  0  0  0.118506  0  1.026028  0  0  0.120956  0  1.026318  0  0  0.111595  0.116519  0  1.026301  0
H  H19  1  0.21663279  0.22157632  0.62100067  1  0  0.109883  0  0.960573  0  0  0.118518  0  1.02603  0  0  0.120968  0  1.026317  0  0  0.111582  0.116529  0  1.0263  0
H  H20  1  0.64806606  0.58975203  0.12723184  1  0  0.087301  0  0.953892  0  0  0.099794  0  1.013526  0  0  0.101744  0  1.012282  0  0  0.106626  0.098434  0  1.01419  0
H  H21  1  0.35191616  0.41024873  0.87276037  1  0  0.087337  0  0.953882  0  0  0.099858  0  1.013491  0  0  0.101801  0  1.012246  0  0  0.106646  0.098495  0  1.014159  0
H  H22  1  0.61908967  0.67689887  0.93865190  1  0  0.120972  0  0.956758  0  0  0.130622  0  1.018768  0  0  0.133479  0  1.018534  0  0  0.11387  0.128817  0  1.018545  0
H  H23  1  0.38090447  0.32311407  0.06134441  1  0  0.120963  0  0.956678  0  0  0.130626  0  1.01867  0  0  0.133481  0  1.018436  0  0  0.113861  0.128818  0  1.018453  0
H  H24  1  0.65314869  0.95277189  0.73414412  1  0  0.119393  0  0.976153  0  0  0.129797  0  1.037421  0  0  0.132438  0  1.037369  0  0  0.112925  0.127861  0  1.037629  0
H  H25  1  0.34685882  0.04722711  0.26585513  1  0  0.119394  0  0.976093  0  0  0.129772  0  1.037388  0  0  0.132406  0  1.037349  0  0  0.112923  0.127843  0  1.037585  0
H  H26  1  0.69979056  0.18055633  0.68893523  1  0  0.101883  0  0.936014  0  0  0.115377  0  0.990602  0  0  0.117149  0  0.989871  0  0  0.115855  0.114545  0  0.989952  0
H  H27  1  0.30022935  0.81943217  0.31106252  1  0  0.10197  0  0.935922  0  0  0.115466  0  0.990523  0  0  0.117242  0  0.989798  0  0  0.115892  0.11463  0  0.989877  0
H  H28  1  0.82905324  0.43257252  0.89377352  1  0  0.105444  0  0.968619  0  0  0.115225  0  1.032293  0  0  0.117319  0  1.033522  0  0  0.10866  0.114178  0  1.03062  0
H  H29  1  0.17097014  0.56742164  0.10620997  1  0  0.105417  0  0.96865  0  0  0.115233  0  1.032314  0  0  0.117283  0  1.033596  0  0  0.108668  0.114228  0  1.030596  0
H  H30  1  0.91379370  0.44240611  0.13569034  1  0  0.068511  0  0.963951  0  0  0.077293  0  1.032588  0  0  0.079235  0  1.03063  0  0  0.113259  0.075917  0  1.033735  0
H  H31  1  0.08619916  0.55760351  0.86429656  1  0  0.068513  0  0.964035  0  0  0.0773  0  1.032639  0  0  0.079244  0  1.030684  0  0  0.11326  0.075925  0  1.033788  0
H  H32  1  0.10493001  0.40510715  0.48318673  1  0  -0.090865  0  1.038042  0  0  -0.047405  0  1.120518  0  0  -0.050921  0  1.120737  0  0  0.07628  -0.045041  0  1.120079  0
H  H33  1  0.89505745  0.59489007  0.51680731  1  0  -0.090836  0  1.037992  0  0  -0.047405  0  1.120521  0  0  -0.050923  0  1.120745  0  0  0.07627  -0.04504  0  1.120085  0
H  H34  1  0.23831446  0.28651774  0.22183375  1  0  -0.121242  0  1.025972  0  0  -0.091539  0  1.102784  0  0  -0.092262  0  1.102786  0  0  0.070936  -0.091217  0  1.103039  0
H  H35  1  0.76167686  0.71348163  0.77816724  1  0  -0.121198  0  1.025919  0  0  -0.091509  0  1.102745  0  0  -0.092229  0  1.102743  0  0  0.070953  -0.091179  0  1.102999  0
H  H36  1  0.15879051  0.60907242  0.33482420  1  0  -0.106975  0  0.958873  0  0  -0.075009  0  1.030534  0  0  -0.076881  0  1.032591  0  0  0.067813  -0.074111  0  1.029682  0
H  H37  1  0.84120376  0.39092688  0.66517655  1  0  -0.106978  0  0.958905  0  0  -0.075012  0  1.030562  0  0  -0.076882  0  1.032618  0  0  0.067808  -0.074114  0  1.029708  0
H  H38  1  0.31310202  0.72203736  0.65351796  1  0  -0.12456  0  1.048723  0  0  -0.092229  0  1.142312  0  0  -0.093423  0  1.140616  0  0  0.057107  -0.091149  0  1.14326  0
H  H39  1  0.68689754  0.27796521  0.34648420  1  0  -0.12457  0  1.048702  0  0  -0.092258  0  1.142307  0  0  -0.093453  0  1.140613  0  0  0.057096  -0.091179  0  1.143257  0
H  H40  1  0.47240853  0.46535754  0.73740866  1  0  -0.109577  0  0.966811  0  0  -0.075842  0  1.037297  0  0  -0.077539  0  1.039079  0  0  0.069035  -0.074552  0  1.036253  0
H  H41  1  0.52758429  0.53464179  0.26259265  1  0  -0.109591  0  0.966751  0  0  -0.075845  0  1.037231  0  0  -0.077549  0  1.039003  0  0  0.069055  -0.074554  0  1.03619  0
H  H42  1  0.42806758  0.19436741  0.47405100  1  0  -0.107341  0  0.956388  0  0  -0.077141  0  1.026941  0  0  -0.07832  0  1.027357  0  0  0.06753  -0.075365  0  1.024353  0
H  H43  1  0.57192646  0.80563076  0.52595022  1  0  -0.107331  0  0.956371  0  0  -0.077144  0  1.026939  0  0  -0.078324  0  1.027358  0  0  0.067529  -0.075365  0  1.024353  0
C  C44  1  0.83000438  0.96007917  0.32175276  1  0  0.118688  0  3.764328  0  0  0.092651  0  4.00994  0  0  0.099669  0  4.029678  0  0  0.036111  0.087721  0  3.996075  0
C  C45  1  0.16999792  0.03991423  0.67825592  1  0  0.118661  0  3.764275  0  0  0.092638  0  4.00989  0  0  0.099657  0  4.029624  0  0  0.036191  0.087705  0  3.996025  0
C  C46  1  0.77411365  0.81175839  0.29460510  1  0  -0.147118  0  3.764053  0  0  -0.161034  0  4.015498  0  0  -0.170357  0  4.039969  0  0  -0.093276  -0.154279  0  3.998894  0
C  C47  1  0.22588568  0.18824871  0.70540117  1  0  -0.147078  0  3.76391  0  0  -0.161007  0  4.015353  0  0  -0.17033  0  4.039819  0  0  -0.093224  -0.154249  0  3.998741  0
C  C48  1  0.69791375  0.70721864  0.15397247  1  0  0.011273  0  3.766272  0  0  -0.007402  0  4.014617  0  0  -0.002158  0  4.033858  0  0  -0.068647  -0.010436  0  4.000705  0
C  C49  1  0.30207903  0.29278635  0.84603160  1  0  0.011274  0  3.766455  0  0  -0.007433  0  4.014799  0  0  -0.002179  0  4.03405  0  0  -0.0687  -0.010464  0  4.000884  0
C  C50  1  0.68130807  0.75501370  0.04930037  1  0  -0.217564  0  3.69499  0  0  -0.232913  0  3.947368  0  0  -0.242783  0  3.968138  0  0  -0.090299  -0.227224  0  3.932875  0
C  C51  1  0.31869075  0.24499680  0.95070959  1  0  -0.217642  0  3.694872  0  0  -0.232975  0  3.947275  0  0  -0.242847  0  3.968045  0  0  -0.090287  -0.227281  0  3.932786  0
C  C52  1  0.74369174  0.90884030  0.08645064  1  0  0.423639  0  3.781788  0  0  0.392492  0  4.046193  0  0  0.410715  0  4.060344  0  0  0.228537  0.380903  0  4.036315  0
C  C53  1  0.25631635  0.09117110  0.91356175  1  0  0.423984  0  3.781611  0  0  0.392751  0  4.046084  0  0  0.410973  0  4.060234  0  0  0.228651  0.381152  0  4.036218  0
C  C54  1  0.75445201  0.07991815  0.95981377  1  0  0.419295  0  3.782841  0  0  0.389562  0  4.046434  0  0  0.40764  0  4.060411  0  0  0.226358  0.378149  0  4.036613  0
C  C55  1  0.24555193  0.92009114  0.04018627  1  0  0.419168  0  3.783124  0  0  0.389526  0  4.046584  0  0  0.407573  0  4.060605  0  0  0.226285  0.378138  0  4.036723  0
C  C56  1  0.70974825  0.06381158  0.82048152  1  0  -0.219165  0  3.689795  0  0  -0.236226  0  3.942275  0  0  -0.246059  0  3.962506  0  0  -0.091006  -0.231138  0  3.929894  0
C  C57  1  0.29025045  0.93618312  0.17951071  1  0  -0.219078  0  3.689976  0  0  -0.236122  0  3.942448  0  0  -0.245941  0  3.962699  0  0  -0.090949  -0.231048  0  3.930048  0
C  C58  1  0.73633730  0.18990843  0.79569757  1  0  0.020767  0  3.737994  0  0  0.003135  0  3.984395  0  0  0.008457  0  4.003468  0  0  -0.062899  0.000126  0  3.971593  0
C  C59  1  0.26367427  0.81008369  0.20429589  1  0  0.020472  0  3.737748  0  0  0.002802  0  3.98423  0  0  0.00812  0  4.003287  0  0  -0.063017  -0.000204  0  3.971443  0
C  C60  1  0.80867580  0.33066171  0.90956714  1  0  -0.15209  0  3.76851  0  0  -0.16735  0  4.024174  0  0  -0.176499  0  4.048672  0  0  -0.096696  -0.162107  0  4.007545  0
C  C61  1  0.19132670  0.66932730  0.09040982  1  0  -0.15199  0  3.768639  0  0  -0.167305  0  4.024352  0  0  -0.176419  0  4.048876  0  0  -0.096712  -0.162095  0  4.007707  0
C  C62  1  0.85223809  0.33644885  0.04288612  1  0  0.116064  0  3.758847  0  0  0.087731  0  4.01233  0  0  0.094924  0  4.031142  0  0  0.034841  0.083266  0  3.998983  0
C  C63  1  0.14776448  0.66355596  0.95710768  1  0  0.116143  0  3.75922  0  0  0.087835  0  4.012709  0  0  0.095024  0  4.031514  0  0  0.03489  0.083359  0  3.999378  0
N  N64  1  0.81856888  0.00927779  0.22133202  1  0  -0.406452  0  3.231314  0  0  -0.338306  0  3.514696  0  0  -0.357058  0  3.527042  0  0  -0.349035  -0.324594  0  3.505428  0
N  N65  1  0.18144452  0.99072892  0.77868807  1  0  -0.406713  0  3.231481  0  0  -0.338517  0  3.514842  0  0  -0.35727  0  3.527187  0  0  -0.349195  -0.324805  0  3.505578  0
N  N66  1  0.82554420  0.21466907  0.06944483  1  0  -0.400693  0  3.214697  0  0  -0.333155  0  3.495794  0  0  -0.351386  0  3.507605  0  0  -0.348369  -0.320599  0  3.487246  0
N  N67  1  0.17445900  0.78534249  0.93055936  1  0  -0.400684  0  3.214641  0  0  -0.333199  0  3.49573  0  0  -0.351422  0  3.507552  0  0  -0.348358  -0.320635  0  3.487154  0
N  N68  1  0.72037633  0.94862881  0.97571131  1  0  -0.440157  0  3.319666  0  0  -0.385811  0  3.5614  0  0  -0.406557  0  3.570815  0  0  -0.39465  -0.372804  0  3.554603  0
N  N69  1  0.27963170  0.05138376  0.02429521  1  0  -0.440235  0  3.319761  0  0  -0.385879  0  3.561515  0  0  -0.406605  0  3.570912  0  0  -0.394638  -0.372878  0  3.554718  0
