# generated using pymatgen
data_H8PbC14(SN2)2
_symmetry_space_group_name_H-M   'P 1'
_cell_length_a   6.75709130
_cell_length_b   10.77889709
_cell_length_c   10.77840739
_cell_angle_alpha   77.33900756
_cell_angle_beta   74.44936300
_cell_angle_gamma   74.42649912
_symmetry_Int_Tables_number   1
_chemical_formula_structural   H8PbC14(SN2)2
_chemical_formula_sum   'H16 Pb2 C28 S4 N8'
_cell_volume   719.30745696
_cell_formula_units_Z   2
loop_
 _symmetry_equiv_pos_site_id
 _symmetry_equiv_pos_as_xyz
  1  'x, y, z'
loop_
 _atom_site_type_symbol
 _atom_site_label
 _atom_site_symmetry_multiplicity
 _atom_site_fract_x
 _atom_site_fract_y
 _atom_site_fract_z
 _atom_site_occupancy
 _atom_site_hle17_bader_spin_density
 _atom_site_hle17_ddec_charge
 _atom_site_hle17_ddec_spin_density
 _atom_site_hle17_ddec_sum_bond_order
 _atom_site_hle17_magmom
 _atom_site_hse06_10hf_bader_spin_density
 _atom_site_hse06_10hf_ddec_charge
 _atom_site_hse06_10hf_ddec_spin_density
 _atom_site_hse06_10hf_ddec_sum_bond_order
 _atom_site_hse06_10hf_magmom
 _atom_site_hse06_bader_spin_density
 _atom_site_hse06_ddec_charge
 _atom_site_hse06_ddec_spin_density
 _atom_site_hse06_ddec_sum_bond_order
 _atom_site_hse06_magmom
 _atom_site_pbe_bader_spin_density
 _atom_site_pbe_cm5_charge
 _atom_site_pbe_ddec_charge
 _atom_site_pbe_ddec_spin_density
 _atom_site_pbe_ddec_sum_bond_order
 _atom_site_pbe_magmom
H  H0  1  0.59146133  0.04286909  0.58398533  1  0  0.066572  0  0.971176  0  0  0.073521  0  1.04034  0  0  0.075623  0  1.039083  0  0  0.105712  0.07162  0  1.041976  0
H  H1  1  0.90842723  0.41588766  0.95700909  1  0  0.066712  0  0.971373  0  0  0.073604  0  1.040597  0  0  0.075685  0  1.039351  0  0  0.105771  0.071707  0  1.042225  0
H  H2  1  0.40858677  0.95713208  0.41593198  1  0  0.066764  0  0.971479  0  0  0.073614  0  1.040683  0  0  0.075705  0  1.039432  0  0  0.105749  0.071715  0  1.042315  0
H  H3  1  0.09184381  0.58397011  0.04308063  1  0  0.066663  0  0.971335  0  0  0.073542  0  1.040581  0  0  0.075636  0  1.03934  0  0  0.105712  0.071648  0  1.042202  0
H  H4  1  0.70400854  0.11136159  0.34235063  1  0  0.108515  0  0.973996  0  0  0.114734  0  1.041221  0  0  0.117332  0  1.041414  0  0  0.10077  0.11321  0  1.040293  0
H  H5  1  0.79604514  0.65760154  0.88867264  1  0  0.108631  0  0.973894  0  0  0.114871  0  1.04107  0  0  0.117462  0  1.041265  0  0  0.100821  0.113355  0  1.040129  0
H  H6  1  0.29583987  0.88866155  0.65749740  1  0  0.108581  0  0.974173  0  0  0.114802  0  1.041433  0  0  0.117388  0  1.041592  0  0  0.100835  0.113273  0  1.040513  0
H  H7  1  0.20403625  0.34230425  0.11146132  1  0  0.1085  0  0.973962  0  0  0.114783  0  1.041085  0  0  0.117347  0  1.041317  0  0  0.10072  0.113274  0  1.040147  0
H  H8  1  0.57262720  0.34246770  0.24607142  1  0  0.100143  0  0.947024  0  0  0.109908  0  1.009514  0  0  0.112917  0  1.007672  0  0  0.10221  0.107854  0  1.010594  0
H  H9  1  0.92735774  0.75397987  0.65763537  1  0  0.100183  0  0.946727  0  0  0.109946  0  1.009241  0  0  0.112942  0  1.0074  0  0  0.102266  0.107891  0  1.010325  0
H  H10  1  0.42719645  0.65761779  0.75390516  1  0  0.100245  0  0.94715  0  0  0.110106  0  1.009456  0  0  0.113029  0  1.007703  0  0  0.102293  0.108059  0  1.010531  0
H  H11  1  0.07263255  0.24593209  0.34246403  1  0  0.100489  0  0.946691  0  0  0.110213  0  1.009197  0  0  0.113216  0  1.007369  0  0  0.102312  0.108155  0  1.010279  0
H  H12  1  0.37032165  0.56955078  0.28227043  1  0  0.113507  0  0.948297  0  0  0.12262  0  1.011391  0  0  0.125201  0  1.010853  0  0  0.104632  0.120766  0  1.012098  0
H  H13  1  0.12956747  0.71785688  0.43063780  1  0  0.113921  0  0.94836  0  0  0.122984  0  1.011426  0  0  0.125576  0  1.010867  0  0  0.104899  0.121124  0  1.012146  0
H  H14  1  0.62949317  0.43053030  0.71778210  1  0  0.113689  0  0.948308  0  0  0.122911  0  1.01128  0  0  0.125493  0  1.010735  0  0  0.104828  0.121052  0  1.011998  0
H  H15  1  0.87020178  0.28215139  0.56952852  1  0  0.113673  0  0.947822  0  0  0.122652  0  1.011114  0  0  0.125238  0  1.010563  0  0  0.104737  0.120795  0  1.011829  0
Pb  Pb16  1  0.24996087  0.14354948  0.85619463  1  0  1.069942  0  1.67014  0  0  0.865918  0  2.09938  0  0  0.91909  0  2.068177  0  0  0.547695  0.830312  0  2.117457  0
Pb  Pb17  1  0.74991063  0.85651000  0.14345123  1  0  1.070136  0  1.669878  0  0  0.866319  0  2.0988  0  0  0.919413  0  2.067812  0  0  0.547634  0.830624  0  2.117018  0
C  C18  1  0.87752387  0.03180866  0.76413403  1  0  0.300138  0  4.016637  0  0  0.279375  0  4.318879  0  0  0.301172  0  4.333387  0  0  0.140798  0.26461  0  4.308877  0
C  C19  1  0.62229549  0.23579964  0.96807638  1  0  0.301155  0  4.015413  0  0  0.280528  0  4.317585  0  0  0.302315  0  4.332079  0  0  0.140849  0.265772  0  4.307593  0
C  C20  1  0.12272759  0.96813055  0.23577060  1  0  0.299857  0  4.016995  0  0  0.279127  0  4.319272  0  0  0.300905  0  4.333779  0  0  0.140158  0.26438  0  4.309263  0
C  C21  1  0.37771243  0.76411535  0.03197091  1  0  0.301348  0  4.015621  0  0  0.280673  0  4.31776  0  0  0.302508  0  4.332209  0  0  0.141171  0.265893  0  4.30778  0
C  C22  1  0.53220770  0.14191773  0.53778575  1  0  0.142948  0  3.696973  0  0  0.113373  0  3.943185  0  0  0.121376  0  3.961009  0  0  0.058071  0.108132  0  3.93208  0
C  C23  1  0.96778978  0.46214966  0.85803686  1  0  0.142883  0  3.695989  0  0  0.113154  0  3.942436  0  0  0.121184  0  3.960223  0  0  0.057886  0.107906  0  3.931346  0
C  C24  1  0.46777297  0.85808678  0.46213804  1  0  0.142162  0  3.69644  0  0  0.112715  0  3.942765  0  0  0.120728  0  3.960569  0  0  0.057845  0.107479  0  3.931654  0
C  C25  1  0.03240781  0.53780321  0.14208004  1  0  0.143039  0  3.696473  0  0  0.113253  0  3.942921  0  0  0.121263  0  3.960727  0  0  0.057979  0.108015  0  3.931809  0
C  C26  1  0.59661804  0.18123192  0.40290824  1  0  -0.120189  0  3.727978  0  0  -0.132111  0  3.981207  0  0  -0.139231  0  4.002362  0  0  -0.084916  -0.127012  0  3.966356  0
C  C27  1  0.90338216  0.59705126  0.81879636  1  0  -0.120591  0  3.728488  0  0  -0.132435  0  3.981727  0  0  -0.139552  0  4.00287  0  0  -0.085198  -0.127339  0  3.966888  0
C  C28  1  0.40336346  0.81881203  0.59702167  1  0  -0.120431  0  3.728648  0  0  -0.132482  0  3.981912  0  0  -0.13957  0  4.003043  0  0  -0.085261  -0.127375  0  3.967045  0
C  C29  1  0.09661607  0.40286879  0.18130990  1  0  -0.120171  0  3.728021  0  0  -0.132127  0  3.981498  0  0  -0.139204  0  4.002616  0  0  -0.085041  -0.127052  0  3.966667  0
C  C30  1  0.52359380  0.30917683  0.35040238  1  0  -0.035814  0  3.69009  0  0  -0.061226  0  3.938335  0  0  -0.058543  0  3.956142  0  0  -0.061226  -0.062734  0  3.925723  0
C  C31  1  0.97638088  0.64961399  0.69089769  1  0  -0.035681  0  3.690297  0  0  -0.061143  0  3.938669  0  0  -0.058451  0  3.956488  0  0  -0.061189  -0.062651  0  3.926035  0
C  C32  1  0.47627452  0.69087953  0.64956776  1  0  -0.036037  0  3.690835  0  0  -0.061344  0  3.939027  0  0  -0.058598  0  3.956875  0  0  -0.061401  -0.06286  0  3.9264  0
C  C33  1  0.02366540  0.35032244  0.30921560  1  0  -0.036588  0  3.690686  0  0  -0.062084  0  3.938884  0  0  -0.059409  0  3.956692  0  0  -0.061454  -0.063586  0  3.926277  0
C  C34  1  0.38730142  0.39726944  0.43239459  1  0  0.016982  0  3.796374  0  0  0.035202  0  4.024445  0  0  0.032726  0  4.048601  0  0  -0.002151  0.037324  0  4.008079  0
C  C35  1  0.11259428  0.56762876  0.60278693  1  0  0.017085  0  3.79648  0  0  0.035309  0  4.024553  0  0  0.032815  0  4.048739  0  0  -0.001957  0.037451  0  4.008163  0
C  C36  1  0.61256923  0.60276584  0.56760064  1  0  0.01704  0  3.796318  0  0  0.034915  0  4.024631  0  0  0.032426  0  4.048797  0  0  -0.002083  0.037054  0  4.008243  0
C  C37  1  0.88735374  0.43235424  0.39730095  1  0  0.016813  0  3.796694  0  0  0.035502  0  4.024183  0  0  0.033026  0  4.048358  0  0  -0.002113  0.037608  0  4.00784  0
C  C38  1  0.32308010  0.34730699  0.56689193  1  0  0.1362  0  3.73798  0  0  0.128387  0  3.973961  0  0  0.133375  0  3.995226  0  0  0.125022  0.124854  0  3.959837  0
C  C39  1  0.17684355  0.43309431  0.65268414  1  0  0.13639  0  3.738591  0  0  0.128492  0  3.974546  0  0  0.13349  0  3.995816  0  0  0.124841  0.12495  0  3.960423  0
C  C40  1  0.67687872  0.65271029  0.43309018  1  0  0.136022  0  3.738527  0  0  0.128538  0  3.97434  0  0  0.133534  0  3.995615  0  0  0.1249  0.124999  0  3.960211  0
C  C41  1  0.82312974  0.56688025  0.34736233  1  0  0.136474  0  3.738754  0  0  0.128281  0  3.974677  0  0  0.133269  0  3.99594  0  0  0.124708  0.12476  0  3.960544  0
C  C42  1  0.31590305  0.53253707  0.38523806  1  0  -0.089705  0  3.70915  0  0  -0.114738  0  3.96912  0  0  -0.117779  0  3.991773  0  0  -0.082461  -0.113354  0  3.954882  0
C  C43  1  0.18405574  0.61486714  0.46758327  1  0  -0.090662  0  3.710216  0  0  -0.115575  0  3.970056  0  0  -0.118609  0  3.992708  0  0  -0.083056  -0.114207  0  3.955824  0
C  C44  1  0.68403744  0.46752573  0.61481614  1  0  -0.090548  0  3.709867  0  0  -0.115593  0  3.969946  0  0  -0.118622  0  3.992593  0  0  -0.082986  -0.114218  0  3.955707  0
C  C45  1  0.81582233  0.38515059  0.53250954  1  0  -0.089724  0  3.709369  0  0  -0.114799  0  3.969309  0  0  -0.117836  0  3.991953  0  0  -0.082765  -0.113416  0  3.955083  0
S  S46  1  0.70155473  0.94317590  0.81924270  1  0  -0.401548  0  2.194894  0  0  -0.353934  0  2.518054  0  0  -0.376671  0  2.517609  0  0  -0.12198  -0.338232  0  2.516942  0
S  S47  1  0.79837651  0.18086857  0.05670487  1  0  -0.401498  0  2.193883  0  0  -0.353882  0  2.516712  0  0  -0.376604  0  2.516256  0  0  -0.121786  -0.338195  0  2.515611  0
S  S48  1  0.29857995  0.05684990  0.18068027  1  0  -0.401718  0  2.194399  0  0  -0.354138  0  2.517573  0  0  -0.376871  0  2.51712  0  0  -0.122138  -0.33841  0  2.516413  0
S  S49  1  0.20166332  0.81916391  0.94335205  1  0  -0.401323  0  2.194375  0  0  -0.35381  0  2.517464  0  0  -0.376538  0  2.516971  0  0  -0.121711  -0.338119  0  2.516372  0
N  N50  1  0.00850935  0.09447807  0.72396319  1  0  -0.543041  0  2.749463  0  0  -0.492929  0  3.000507  0  0  -0.512012  0  3.00882  0  0  -0.367748  -0.4798  0  2.994166  0
N  N51  1  0.49148434  0.27600616  0.90521992  1  0  -0.544572  0  2.747901  0  0  -0.494683  0  2.998967  0  0  -0.513757  0  3.007287  0  0  -0.368513  -0.481555  0  2.992621  0
N  N52  1  0.99154956  0.90560585  0.27595823  1  0  -0.543134  0  2.749163  0  0  -0.493212  0  3.000149  0  0  -0.512278  0  3.008497  0  0  -0.367494  -0.480094  0  2.993797  0
N  N53  1  0.50880915  0.72408585  0.09463950  1  0  -0.544555  0  2.74982  0  0  -0.49451  0  3.000992  0  0  -0.513623  0  3.009296  0  0  -0.368545  -0.481362  0  2.994667  0
N  N54  1  0.39809124  0.22158801  0.61672756  1  0  -0.32913  0  3.223742  0  0  -0.254516  0  3.47093  0  0  -0.274412  0  3.493167  0  0  -0.289919  -0.241745  0  3.455882  0
N  N55  1  0.10183118  0.38320186  0.77832654  1  0  -0.32901  0  3.223088  0  0  -0.254147  0  3.470046  0  0  -0.274038  0  3.492273  0  0  -0.289617  -0.241381  0  3.455004  0
N  N56  1  0.60192844  0.77841478  0.38318789  1  0  -0.32834  0  3.222016  0  0  -0.253998  0  3.469214  0  0  -0.273868  0  3.491406  0  0  -0.289537  -0.24123  0  3.454159  0
N  N57  1  0.89821366  0.61676637  0.22170973  1  0  -0.329388  0  3.222892  0  0  -0.254457  0  3.469801  0  0  -0.274328  0  3.492  0  0  -0.289579  -0.241696  0  3.454748  0
