# generated using pymatgen
data_ZnH13C19N5O4
_symmetry_space_group_name_H-M   'P 1'
_cell_length_a   9.26897228
_cell_length_b   10.83643512
_cell_length_c   11.22145011
_cell_angle_alpha   86.14967302
_cell_angle_beta   72.83697148
_cell_angle_gamma   69.66804410
_symmetry_Int_Tables_number   1
_chemical_formula_structural   ZnH13C19N5O4
_chemical_formula_sum   'Zn2 H26 C38 N10 O8'
_cell_volume   1009.03540839
_cell_formula_units_Z   2
loop_
 _symmetry_equiv_pos_site_id
 _symmetry_equiv_pos_as_xyz
  1  'x, y, z'
loop_
 _atom_site_type_symbol
 _atom_site_label
 _atom_site_symmetry_multiplicity
 _atom_site_fract_x
 _atom_site_fract_y
 _atom_site_fract_z
 _atom_site_occupancy
 _atom_site_hle17_bader_spin_density
 _atom_site_hle17_ddec_charge
 _atom_site_hle17_ddec_spin_density
 _atom_site_hle17_ddec_sum_bond_order
 _atom_site_hle17_magmom
 _atom_site_hse06_10hf_bader_spin_density
 _atom_site_hse06_10hf_ddec_charge
 _atom_site_hse06_10hf_ddec_spin_density
 _atom_site_hse06_10hf_ddec_sum_bond_order
 _atom_site_hse06_10hf_magmom
 _atom_site_hse06_bader_spin_density
 _atom_site_hse06_ddec_charge
 _atom_site_hse06_ddec_spin_density
 _atom_site_hse06_ddec_sum_bond_order
 _atom_site_hse06_magmom
 _atom_site_pbe_bader_spin_density
 _atom_site_pbe_cm5_charge
 _atom_site_pbe_ddec_charge
 _atom_site_pbe_ddec_spin_density
 _atom_site_pbe_ddec_sum_bond_order
 _atom_site_pbe_magmom
Zn  Zn0  1  0.58814221  0.71752308  0.68121594  1  0  1.006161  0  1.87878  0  0  0.815582  0  2.357567  0  0  0.862373  0  2.302219  0  0  0.691379  0.782841  0  2.395884  0
Zn  Zn1  1  0.41185577  0.28247598  0.31878359  1  0  1.00617  0  1.87879  0  0  0.8156  0  2.357572  0  0  0.862389  0  2.302226  0  0  0.691369  0.782862  0  2.39589  0
H  H2  1  0.61659232  0.62830248  0.95883493  1  0  0.127496  0  0.948427  0  0  0.130392  0  1.017085  0  0  0.134774  0  1.010701  0  0  0.142452  0.127219  0  1.021556  0
H  H3  1  0.38341006  0.37169953  0.04116514  1  0  0.127472  0  0.948413  0  0  0.130371  0  1.017075  0  0  0.134753  0  1.01069  0  0  0.14245  0.127199  0  1.021546  0
H  H4  1  0.86653427  0.43134332  0.60584815  1  0  0.113524  0  0.992303  0  0  0.118291  0  1.060473  0  0  0.121738  0  1.057532  0  0  0.117948  0.115825  0  1.062466  0
H  H5  1  0.13346474  0.56865868  0.39415364  1  0  0.113541  0  0.992253  0  0  0.118313  0  1.060405  0  0  0.12176  0  1.057464  0  0  0.117962  0.115846  0  1.062398  0
H  H6  1  0.99797157  0.28284332  0.77872991  1  0  0.124019  0  0.944807  0  0  0.135781  0  0.999879  0  0  0.138422  0  0.998997  0  0  0.131015  0.133846  0  1.00066  0
H  H7  1  0.00202927  0.71715968  0.22127050  1  0  0.124006  0  0.944808  0  0  0.135762  0  0.999886  0  0  0.138404  0  0.999001  0  0  0.130989  0.133827  0  1.000667  0
H  H8  1  0.08729989  0.25745070  0.93444335  1  0  0.122707  0  0.938293  0  0  0.135744  0  0.99109  0  0  0.138851  0  0.990676  0  0  0.116663  0.133463  0  0.99165  0
H  H9  1  0.91270332  0.74254935  0.06555574  1  0  0.12273  0  0.938311  0  0  0.135754  0  0.991118  0  0  0.138862  0  0.990702  0  0  0.116666  0.133473  0  0.99168  0
H  H10  1  0.15272752  0.21595854  0.13677807  1  0  0.112729  0  0.909613  0  0  0.127932  0  0.956733  0  0  0.129771  0  0.956297  0  0  0.12312  0.126511  0  0.957212  0
H  H11  1  0.84727498  0.78404054  0.86322036  1  0  0.112687  0  0.909647  0  0  0.127913  0  0.95675  0  0  0.129744  0  0.956311  0  0  0.123116  0.126491  0  0.957228  0
H  H12  1  0.95926628  0.35121399  0.32749107  1  0  0.125895  0  0.996712  0  0  0.131572  0  1.06306  0  0  0.13482  0  1.062549  0  0  0.109697  0.129281  0  1.063483  0
H  H13  1  0.04073664  0.64878409  0.67250821  1  0  0.125884  0  0.996727  0  0  0.131595  0  1.063037  0  0  0.134843  0  1.062527  0  0  0.109693  0.129303  0  1.063461  0
H  H14  1  0.84521951  0.54250752  0.43643006  1  0  0.111685  0  0.960929  0  0  0.118397  0  1.02836  0  0  0.121223  0  1.024756  0  0  0.140448  0.116304  0  1.030923  0
H  H15  1  0.15477906  0.45749548  0.56356911  1  0  0.111758  0  0.960964  0  0  0.118471  0  1.028368  0  0  0.121299  0  1.024765  0  0  0.140473  0.116379  0  1.030932  0
H  H16  1  0.45995219  0.60161548  0.28317046  1  0  0.125386  0  0.952894  0  0  0.133142  0  1.01521  0  0  0.136021  0  1.013789  0  0  0.127213  0.131017  0  1.016387  0
H  H17  1  0.54004985  0.39837669  0.71682936  1  0  0.125432  0  0.952868  0  0  0.133181  0  1.015191  0  0  0.136059  0  1.013774  0  0  0.127258  0.131055  0  1.016367  0
H  H18  1  0.34438291  0.73341644  0.51718114  1  0  0.114627  0  0.949944  0  0  0.12467  0  1.008061  0  0  0.127028  0  1.007545  0  0  0.122954  0.122924  0  1.008558  0
H  H19  1  0.65561590  0.26658068  0.48281651  1  0  0.114618  0  0.949957  0  0  0.124687  0  1.008043  0  0  0.127014  0  1.007568  0  0  0.122944  0.122943  0  1.00854  0
H  H20  1  0.20031754  0.90029348  0.11689934  1  0  0.099203  0  0.950834  0  0  0.107651  0  1.013993  0  0  0.111563  0  1.011293  0  0  0.100002  0.104786  0  1.016037  0
H  H21  1  0.79968104  0.09970951  0.88310072  1  0  0.099209  0  0.950811  0  0  0.107654  0  1.013974  0  0  0.111569  0  1.011272  0  0  0.100005  0.104789  0  1.016018  0
H  H22  1  0.08633561  0.96569278  0.76888400  1  0  0.101084  0  0.95319  0  0  0.108981  0  1.016698  0  0  0.11235  0  1.015359  0  0  0.099789  0.10668  0  1.017598  0
H  H23  1  0.91366351  0.03430628  0.23111615  1  0  0.101075  0  0.953204  0  0  0.108968  0  1.016715  0  0  0.112337  0  1.015375  0  0  0.099777  0.106668  0  1.017616  0
H  H24  1  0.12830924  0.77348400  0.40497942  1  0  0.082806  0  0.987936  0  0  0.091746  0  1.055802  0  0  0.094371  0  1.055145  0  0  0.096177  0.089753  0  1.056442  0
H  H25  1  0.87168483  0.22651898  0.59502174  1  0  0.082812  0  0.987969  0  0  0.091775  0  1.0558  0  0  0.094397  0  1.05515  0  0  0.096189  0.089789  0  1.056436  0
H  H26  1  0.73159313  0.06101570  0.65890481  1  0  0.106533  0  0.939837  0  0  0.115393  0  0.998595  0  0  0.119426  0  0.995961  0  0  0.106522  0.112432  0  1.000643  0
H  H27  1  0.26840178  0.93898531  0.34109625  1  0  0.106528  0  0.939877  0  0  0.115402  0  0.998614  0  0  0.119435  0  0.995978  0  0  0.106524  0.112441  0  1.000662  0
C  C28  1  0.69975743  0.55476045  0.88687674  1  0  0.199964  0  3.590647  0  0  0.134662  0  3.858112  0  0  0.150764  0  3.866867  0  0  0.158066  0.124289  0  3.851772  0
C  C29  1  0.30024536  0.44524059  0.11312240  1  0  0.200065  0  3.590475  0  0  0.134762  0  3.857944  0  0  0.150866  0  3.866696  0  0  0.158119  0.124388  0  3.851607  0
C  C30  1  0.83074935  0.45064136  0.70561908  1  0  0.000833  0  3.750735  0  0  -0.033769  0  4.022199  0  0  -0.032339  0  4.041885  0  0  -0.000706  -0.03444  0  4.008397  0
C  C31  1  0.16924923  0.54936164  0.29438098  1  0  0.000733  0  3.750856  0  0  -0.033876  0  4.022326  0  0  -0.032447  0  4.042013  0  0  -0.000762  -0.034546  0  4.008524  0
C  C32  1  0.90058133  0.37627182  0.79022476  1  0  -0.054029  0  3.659614  0  0  -0.09629  0  3.921011  0  0  -0.095292  0  3.940507  0  0  0.00502  -0.096667  0  3.907646  0
C  C33  1  0.09942218  0.62373020  0.20977504  1  0  -0.054038  0  3.659703  0  0  -0.096272  0  3.921087  0  0  -0.095276  0  3.940585  0  0  0.005035  -0.096649  0  3.907721  0
C  C34  1  0.85883916  0.41179398  0.01810228  1  0  0.355208  0  3.788764  0  0  0.331485  0  4.053574  0  0  0.344941  0  4.071012  0  0  0.230082  0.32245  0  4.042015  0
C  C35  1  0.14116406  0.58820606  0.98189771  1  0  0.355279  0  3.788714  0  0  0.331559  0  4.053509  0  0  0.345021  0  4.070936  0  0  0.230149  0.322522  0  4.04195  0
C  C36  1  0.00455281  0.31439758  0.01850074  1  0  -0.195547  0  3.699679  0  0  -0.221639  0  3.960224  0  0  -0.230566  0  3.981191  0  0  -0.083092  -0.215685  0  3.946346  0
C  C37  1  0.99545266  0.68560247  0.98149869  1  0  -0.195633  0  3.699774  0  0  -0.221695  0  3.960308  0  0  -0.230626  0  3.981273  0  0  -0.08309  -0.215743  0  3.946432  0
C  C38  1  0.04110335  0.29190599  0.13160957  1  0  0.040426  0  3.707865  0  0  0.022831  0  3.961175  0  0  0.027625  0  3.979814  0  0  -0.056604  0.019831  0  3.948539  0
C  C39  1  0.95890028  0.70809307  0.86839036  1  0  0.040471  0  3.70783  0  0  0.022831  0  3.961187  0  0  0.027638  0  3.979813  0  0  -0.056606  0.019833  0  3.948548  0
C  C40  1  0.93405324  0.36685003  0.23785658  1  0  -0.201935  0  3.685352  0  0  -0.225314  0  3.94174  0  0  -0.234905  0  3.963216  0  0  -0.088057  -0.218979  0  3.927331  0
C  C41  1  0.06594926  0.63314904  0.76214274  1  0  -0.201957  0  3.685397  0  0  -0.225395  0  3.941756  0  0  -0.234986  0  3.963229  0  0  -0.088098  -0.21906  0  3.927347  0
C  C42  1  0.79360631  0.46285942  0.22472284  1  0  0.358558  0  3.79127  0  0  0.335032  0  4.054783  0  0  0.349315  0  4.070345  0  0  0.230019  0.325473  0  4.044232  0
C  C43  1  0.20639549  0.53713865  0.77527760  1  0  0.358554  0  3.791304  0  0  0.335118  0  4.054689  0  0  0.3494  0  4.070252  0  0  0.230036  0.325557  0  4.04414  0
C  C44  1  0.72350018  0.57309458  0.43000387  1  0  0.176761  0  3.631267  0  0  0.11461  0  3.894627  0  0  0.129041  0  3.906727  0  0  0.150668  0.10511  0  3.886469  0
C  C45  1  0.27649810  0.42690644  0.56999638  1  0  0.176695  0  3.631284  0  0  0.11456  0  3.894645  0  0  0.128989  0  3.906746  0  0  0.150627  0.10506  0  3.886489  0
C  C46  1  0.51926035  0.60928913  0.35077816  1  0  -0.037593  0  3.634707  0  0  -0.079875  0  3.894713  0  0  -0.078063  0  3.912873  0  0  0.008451  -0.081188  0  3.882596  0
C  C47  1  0.48074197  0.39070501  0.64922058  1  0  -0.037708  0  3.634785  0  0  -0.079984  0  3.89482  0  0  -0.078171  0  3.912971  0  0  0.008377  -0.081296  0  3.882701  0
C  C48  1  0.46490574  0.67263302  0.46562590  1  0  0.014034  0  3.709639  0  0  -0.019785  0  3.972856  0  0  -0.018549  0  3.993508  0  0  0.005537  -0.020439  0  3.958851  0
C  C49  1  0.53509390  0.32736212  0.53437166  1  0  0.014009  0  3.709697  0  0  -0.019831  0  3.972928  0  0  -0.018569  0  3.993593  0  0  0.005559  -0.020486  0  3.958923  0
C  C50  1  0.32883799  0.84170572  0.87169130  1  0  0.63125  0  3.93559  0  0  0.58581  0  4.223608  0  0  0.619586  0  4.216422  0  0  0.191408  0.562961  0  4.227539  0
C  C51  1  0.67115917  0.15829531  0.12830922  1  0  0.631187  0  3.935683  0  0  0.585751  0  4.223702  0  0  0.619528  0  4.216515  0  0  0.191362  0.562902  0  4.227635  0
C  C52  1  0.15911891  0.92541530  0.93687828  1  0  -0.055423  0  3.76136  0  0  -0.03154  0  3.989161  0  0  -0.038021  0  4.012246  0  0  -0.020554  -0.027407  0  3.973613  0
C  C53  1  0.84088051  0.07458570  0.06312347  1  0  -0.055401  0  3.761225  0  0  -0.031523  0  3.989033  0  0  -0.038004  0  4.01212  0  0  -0.020569  -0.027392  0  3.97349  0
C  C54  1  0.11089127  0.94423252  0.06709336  1  0  -0.091183  0  3.761967  0  0  -0.115106  0  4.015517  0  0  -0.116769  0  4.036501  0  0  -0.091424  -0.113684  0  4.001375  0
C  C55  1  0.88910857  0.05576751  0.93290745  1  0  -0.091163  0  3.761838  0  0  -0.11508  0  4.015385  0  0  -0.116744  0  4.036371  0  0  -0.091412  -0.113658  0  4.001243  0
C  C56  1  0.04735272  0.98204186  0.86994740  1  0  -0.091249  0  3.761945  0  0  -0.11359  0  4.013893  0  0  -0.114819  0  4.034812  0  0  -0.092994  -0.112605  0  3.999701  0
C  C57  1  0.95264682  0.01795620  0.13005359  1  0  -0.09125  0  3.761944  0  0  -0.113589  0  4.013896  0  0  -0.114817  0  4.034814  0  0  -0.092986  -0.112606  0  3.999708  0
C  C58  1  0.84047857  0.80727516  0.57352728  1  0  0.628324  0  3.934989  0  0  0.581015  0  4.225063  0  0  0.61493  0  4.217666  0  0  0.199597  0.558081  0  4.229106  0
C  C59  1  0.15951477  0.19272686  0.42647144  1  0  0.628394  0  3.935051  0  0  0.581084  0  4.225123  0  0  0.614999  0  4.217722  0  0  0.19966  0.55815  0  4.229168  0
C  C60  1  0.92228209  0.90740800  0.53590936  1  0  -0.053571  0  3.755105  0  0  -0.0311  0  3.984079  0  0  -0.037675  0  4.006745  0  0  -0.016933  -0.026659  0  3.968763  0
C  C61  1  0.07771238  0.09259403  0.46408908  1  0  -0.053644  0  3.755266  0  0  -0.031186  0  3.984284  0  0  -0.037761  0  4.006949  0  0  -0.017046  -0.026745  0  3.968968  0
C  C62  1  0.07322328  0.87307414  0.44625467  1  0  -0.088133  0  3.759244  0  0  -0.108317  0  4.005108  0  0  -0.109537  0  4.026222  0  0  -0.089684  -0.107539  0  3.990841  0
C  C63  1  0.92677586  0.12692488  0.55374815  1  0  -0.088131  0  3.759413  0  0  -0.108334  0  4.005306  0  0  -0.10955  0  4.026416  0  0  -0.089641  -0.107565  0  3.991042  0
C  C64  1  0.84919661  0.03538946  0.58965177  1  0  -0.071277  0  3.732839  0  0  -0.093021  0  3.979324  0  0  -0.093928  0  3.999122  0  0  -0.082908  -0.09245  0  3.965954  0
C  C65  1  0.15080014  0.96461255  0.41034879  1  0  -0.071195  0  3.732833  0  0  -0.092946  0  3.979297  0  0  -0.093853  0  3.9991  0  0  -0.082837  -0.092373  0  3.965924  0
N  N66  1  0.70610209  0.56099356  0.76681918  1  0  -0.380918  0  3.309022  0  0  -0.299314  0  3.611072  0  0  -0.319659  0  3.622701  0  0  -0.35104  -0.285618  0  3.602915  0
N  N67  1  0.29389874  0.43900943  0.23318122  1  0  -0.38098  0  3.308942  0  0  -0.299361  0  3.610985  0  0  -0.319706  0  3.622611  0  0  -0.351045  -0.285665  0  3.602831  0
N  N68  1  0.81701837  0.44311560  0.90511337  1  0  -0.115242  0  3.564474  0  0  -0.026115  0  3.777755  0  0  -0.042587  0  3.802393  0  0  -0.216775  -0.015266  0  3.761009  0
N  N69  1  0.18298401  0.55688642  0.09488582  1  0  -0.115128  0  3.564371  0  0  -0.026033  0  3.777668  0  0  -0.042507  0  3.802304  0  0  -0.216771  -0.015183  0  3.760922  0
N  N70  1  0.75417873  0.48530016  0.11847458  1  0  -0.427192  0  3.033826  0  0  -0.400179  0  3.300386  0  0  -0.414076  0  3.311669  0  0  -0.311202  -0.391104  0  3.29291  0
N  N71  1  0.24582489  0.51469892  0.88152358  1  0  -0.427192  0  3.033718  0  0  -0.400194  0  3.300231  0  0  -0.414095  0  3.311513  0  0  -0.311205  -0.391119  0  3.292756  0
N  N72  1  0.68353813  0.54525709  0.32972395  1  0  -0.118994  0  3.571147  0  0  -0.029596  0  3.784004  0  0  -0.045519  0  3.807439  0  0  -0.218375  -0.018927  0  3.767998  0
N  N73  1  0.31646379  0.45473802  0.67027662  1  0  -0.11896  0  3.571199  0  0  -0.029592  0  3.784032  0  0  -0.045514  0  3.807466  0  0  -0.218348  -0.018922  0  3.768025  0
N  N74  1  0.59352201  0.64961119  0.51336040  1  0  -0.367401  0  3.284243  0  0  -0.286846  0  3.578308  0  0  -0.306281  0  3.590602  0  0  -0.347158  -0.273851  0  3.570029  0
N  N75  1  0.40647485  0.35038787  0.48663941  1  0  -0.367356  0  3.284278  0  0  -0.28683  0  3.578382  0  0  -0.306263  0  3.590665  0  0  -0.347175  -0.273837  0  3.570106  0
O  O76  1  0.35662570  0.80980857  0.75508493  1  0  -0.649687  0  2.004563  0  0  -0.576934  0  2.266984  0  0  -0.60505  0  2.251423  0  0  -0.346306  -0.557165  0  2.27684  0
O  O77  1  0.64337301  0.19019146  0.24491615  1  0  -0.649689  0  2.004597  0  0  -0.576935  0  2.267011  0  0  -0.605053  0  2.251451  0  0  -0.346303  -0.557164  0  2.276865  0
O  O78  1  0.43232048  0.80625912  0.92949184  1  0  -0.616834  0  1.89137  0  0  -0.572344  0  2.101019  0  0  -0.594405  0  2.090392  0  0  -0.333291  -0.556945  0  2.107766  0
O  O79  1  0.56767892  0.19374193  0.07050634  1  0  -0.616806  0  1.891467  0  0  -0.572317  0  2.101113  0  0  -0.594378  0  2.090484  0  0  -0.333249  -0.556917  0  2.107861  0
O  O80  1  0.69547092  0.85054095  0.64681144  1  0  -0.625068  0  2.02599  0  0  -0.553345  0  2.283525  0  0  -0.581029  0  2.267533  0  0  -0.329193  -0.534074  0  2.293962  0
O  O81  1  0.30452624  0.14946006  0.35318996  1  0  -0.625101  0  2.026044  0  0  -0.553373  0  2.283579  0  0  -0.581059  0  2.267586  0  0  -0.329211  -0.534103  0  2.294018  0
O  O82  1  0.91531213  0.68909018  0.53455865  1  0  -0.63794  0  1.954486  0  0  -0.586711  0  2.18458  0  0  -0.609876  0  2.175742  0  0  -0.327951  -0.570395  0  2.189736  0
O  O83  1  0.08468390  0.31091082  0.46544303  1  0  -0.637975  0  1.954562  0  0  -0.586753  0  2.18468  0  0  -0.609917  0  2.175839  0  0  -0.327966  -0.570437  0  2.189839  0
