# generated using pymatgen
data_CdH32C48N3O4
_symmetry_space_group_name_H-M   'P 1'
_cell_length_a   8.81437396
_cell_length_b   19.67063170
_cell_length_c   26.02864447
_cell_angle_alpha   89.99992276
_cell_angle_beta   96.79002841
_cell_angle_gamma   90.00008861
_symmetry_Int_Tables_number   1
_chemical_formula_structural   CdH32C48N3O4
_chemical_formula_sum   'Cd4 H128 C192 N12 O16'
_cell_volume   4481.30496210
_cell_formula_units_Z   4
loop_
 _symmetry_equiv_pos_site_id
 _symmetry_equiv_pos_as_xyz
  1  'x, y, z'
loop_
 _atom_site_type_symbol
 _atom_site_label
 _atom_site_symmetry_multiplicity
 _atom_site_fract_x
 _atom_site_fract_y
 _atom_site_fract_z
 _atom_site_occupancy
 _atom_site_pbe_bader_charge
 _atom_site_pbe_bader_spin_density
 _atom_site_pbe_cm5_charge
 _atom_site_pbe_ddec_charge
 _atom_site_pbe_ddec_spin_density
 _atom_site_pbe_ddec_sum_bond_order
 _atom_site_pbe_magmom
Cd  Cd0  1  0.27472935  0.11950930  0.47893494  1  1.223507  0  0.762385  0.821577  0  2.174685  0
Cd  Cd1  1  0.72527266  0.61950703  0.02106348  1  1.223519  0  0.762363  0.821574  0  2.174663  0
Cd  Cd2  1  0.72526960  0.88049159  0.52106340  1  1.22348  0  0.762386  0.821578  0  2.174599  0
Cd  Cd3  1  0.27474115  0.38048980  0.97893585  1  1.223563  0  0.762398  0.821613  0  2.174665  0
H  H4  1  0.38609749  0.97848730  0.53361678  1  0.142557  0  0.122099  0.103987  0  0.994908  0
H  H5  1  0.61388958  0.47848678  0.96638141  1  0.142535  0  0.122083  0.103911  0  0.994858  0
H  H6  1  0.61389232  0.02151512  0.46638158  1  0.142534  0  0.122102  0.103993  0  0.99475  0
H  H7  1  0.38609567  0.52151208  0.03361715  1  0.142521  0  0.122074  0.103945  0  0.994809  0
H  H8  1  0.47223283  0.93075467  0.61893637  1  0.126086  0  0.110563  0.122868  0  1.02199  0
H  H9  1  0.52775637  0.43075221  0.88106196  1  0.126048  0  0.110534  0.122868  0  1.022093  0
H  H10  1  0.52775356  0.06924470  0.38106147  1  0.126065  0  0.110536  0.122879  0  1.022149  0
H  H11  1  0.47223801  0.56924563  0.11893543  1  0.126061  0  0.110528  0.122857  0  1.02212  0
H  H12  1  0.39986533  0.12915705  0.68460065  1  0.049061  0  0.108895  0.115829  0  0.996564  0
H  H13  1  0.60012979  0.62915365  0.81539669  1  0.049078  0  0.108906  0.115759  0  0.99663  0
H  H14  1  0.60013591  0.87084283  0.31539778  1  0.049096  0  0.108887  0.115794  0  0.99655  0
H  H15  1  0.39987716  0.37084521  0.18460313  1  0.049166  0  0.1089  0.115784  0  0.996588  0
H  H16  1  0.32118454  0.16957217  0.59524151  1  0.085057  0  0.111596  0.077013  0  1.012491  0
H  H17  1  0.67880842  0.66956969  0.90475455  1  0.085151  0  0.111556  0.076966  0  1.012604  0
H  H18  1  0.67881213  0.83043075  0.40475674  1  0.085147  0  0.111597  0.077018  0  1.012654  0
H  H19  1  0.32119167  0.33042815  0.09524538  1  0.085128  0  0.111605  0.077031  0  1.012507  0
H  H20  1  0.40941561  0.89663011  0.69435217  1  0.080789  0  0.108504  0.109798  0  0.993373  0
H  H21  1  0.59057806  0.39662732  0.80564676  1  0.08081  0  0.108531  0.109834  0  0.993384  0
H  H22  1  0.59058106  0.10336977  0.30564762  1  0.080819  0  0.108498  0.109794  0  0.993359  0
H  H23  1  0.40942775  0.60337205  0.19435186  1  0.080597  0  0.108547  0.10982  0  0.993316  0
H  H24  1  0.47205190  0.85304172  0.78307565  1  0.04231  0  0.106442  0.11663  0  0.993338  0
H  H25  1  0.52794620  0.35303955  0.71692312  1  0.042179  0  0.106448  0.11664  0  0.993412  0
H  H26  1  0.52795619  0.14695968  0.21692383  1  0.042213  0  0.106472  0.116664  0  0.993367  0
H  H27  1  0.47206075  0.64695676  0.28307670  1  0.04232  0  0.106513  0.116743  0  0.993443  0
H  H28  1  0.64133396  0.05064147  0.83347292  1  0.086591  0  0.102865  0.107112  0  1.036755  0
H  H29  1  0.35866319  0.55063919  0.66652574  1  0.086796  0  0.102892  0.107177  0  1.036718  0
H  H30  1  0.35865814  0.94936196  0.16652515  1  0.086795  0  0.102891  0.107153  0  1.036708  0
H  H31  1  0.64134148  0.44935611  0.33347207  1  0.086558  0  0.102879  0.107143  0  1.036695  0
H  H32  1  0.58119213  0.09384401  0.74474221  1  0.055814  0  0.1026  0.097578  0  1.009883  0
H  H33  1  0.41880401  0.59384008  0.75525674  1  0.055928  0  0.102607  0.097599  0  1.009898  0
H  H34  1  0.41880111  0.90615790  0.25525590  1  0.055834  0  0.102606  0.097555  0  1.009936  0
H  H35  1  0.58120409  0.40615776  0.24474005  1  0.05615  0  0.102619  0.097567  0  1.00991  0
H  H36  1  0.28372689  0.94601776  0.85400718  1  0.06942  0  0.102805  0.109225  0  1.026333  0
H  H37  1  0.71626922  0.44601788  0.64599218  1  0.069539  0  0.102815  0.109226  0  1.026252  0
H  H38  1  0.71627435  0.05398313  0.14599279  1  0.069406  0  0.102798  0.109205  0  1.026311  0
H  H39  1  0.28373431  0.55398453  0.35400558  1  0.069571  0  0.102808  0.109226  0  1.026287  0
H  H40  1  0.08699259  0.87248876  0.88583918  1  0.106868  0  0.099852  0.099684  0  1.032384  0
H  H41  1  0.91300899  0.37248857  0.61416201  1  0.106867  0  0.09985  0.099682  0  1.032477  0
H  H42  1  0.91301549  0.12751213  0.11416491  1  0.106807  0  0.099855  0.099684  0  1.032398  0
H  H43  1  0.08699224  0.62750927  0.38583796  1  0.106866  0  0.099862  0.099671  0  1.032504  0
H  H44  1  0.43733708  0.73041764  0.94541731  1  0.070134  0  0.10347  0.103738  0  1.032036  0
H  H45  1  0.56266634  0.23041477  0.55458295  1  0.069783  0  0.103454  0.103771  0  1.031972  0
H  H46  1  0.56267329  0.26958274  0.05458495  1  0.069948  0  0.103488  0.103809  0  1.032002  0
H  H47  1  0.43733489  0.76958358  0.44541779  1  0.069823  0  0.103462  0.103785  0  1.031939  0
H  H48  1  0.63312544  0.80395478  0.91315293  1  0.109487  0  0.1042  0.110278  0  1.016161  0
H  H49  1  0.36687479  0.30395070  0.58684674  1  0.109742  0  0.104216  0.11036  0  1.016156  0
H  H50  1  0.36687923  0.19604764  0.08684718  1  0.10961  0  0.104195  0.11026  0  1.016096  0
H  H51  1  0.63312416  0.69605223  0.41315275  1  0.109867  0  0.104241  0.11036  0  1.016153  0
H  H52  1  0.99251017  0.84217173  0.95770685  1  0.126089  0  0.105484  0.11267  0  1.02772  0
H  H53  1  0.00749589  0.34217308  0.54229187  1  0.126047  0  0.10547  0.11264  0  1.027752  0
H  H54  1  0.00749792  0.15783069  0.04229263  1  0.125975  0  0.105434  0.112618  0  1.027773  0
H  H55  1  0.99250763  0.65782883  0.45770820  1  0.125931  0  0.10544  0.112612  0  1.027773  0
H  H56  1  0.79986807  0.76984147  0.99503132  1  0.125935  0  0.116318  0.095721  0  1.032791  0
H  H57  1  0.20013206  0.26984149  0.50496570  1  0.125846  0  0.116287  0.095727  0  1.032774  0
H  H58  1  0.20013203  0.23016400  0.00496861  1  0.125866  0  0.116306  0.095815  0  1.032761  0
H  H59  1  0.79986803  0.73016093  0.49503423  1  0.125882  0  0.116283  0.095742  0  1.032773  0
H  H60  1  0.03710865  0.59327344  0.96913738  1  0.112729  0  0.120023  0.095408  0  0.984533  0
H  H61  1  0.96288863  0.09327444  0.53086239  1  0.112779  0  0.120062  0.095479  0  0.984484  0
H  H62  1  0.96288573  0.40673000  0.03086155  1  0.11266  0  0.120018  0.095413  0  0.9844  0
H  H63  1  0.03711146  0.90672797  0.46913869  1  0.112718  0  0.120031  0.095425  0  0.984489  0
H  H64  1  0.23862075  0.65691054  0.93197442  1  0.078421  0  0.111442  0.120606  0  1.005004  0
H  H65  1  0.76138130  0.15691287  0.56802624  1  0.078474  0  0.111482  0.120629  0  1.004961  0
H  H66  1  0.76138276  0.34308934  0.06802680  1  0.078404  0  0.111462  0.120608  0  1.004995  0
H  H67  1  0.23861994  0.84308904  0.43197488  1  0.078414  0  0.111475  0.120602  0  1.005015  0
H  H68  1  0.56821498  0.93313154  0.96698778  1  0.088739  0  0.103981  0.115728  0  1.0064  0
H  H69  1  0.43176853  0.43312506  0.53300916  1  0.088896  0  0.103986  0.115752  0  1.006345  0
H  H70  1  0.43178854  0.06687138  0.03301305  1  0.088715  0  0.103974  0.115717  0  1.006519  0
H  H71  1  0.56820758  0.56687430  0.46698596  1  0.088671  0  0.103979  0.115737  0  1.006488  0
H  H72  1  0.77111476  0.96842059  0.03295355  1  0.071256  0  0.098668  0.096502  0  1.031171  0
H  H73  1  0.22886777  0.46841421  0.46704603  1  0.071219  0  0.098687  0.096516  0  1.031124  0
H  H74  1  0.22888990  0.03158488  0.96704656  1  0.071203  0  0.098684  0.096506  0  1.031251  0
H  H75  1  0.77110147  0.53158363  0.53295419  1  0.071325  0  0.098677  0.096489  0  1.031218  0
H  H76  1  0.06539594  0.00500769  0.91419527  1  0.053618  0  0.099264  0.097411  0  1.033456  0
H  H77  1  0.93460334  0.50501154  0.58580697  1  0.054066  0  0.099318  0.097512  0  1.033386  0
H  H78  1  0.93460987  0.99499371  0.08580297  1  0.053697  0  0.099249  0.097423  0  1.033496  0
H  H79  1  0.06538874  0.49499392  0.41419993  1  0.053656  0  0.099225  0.097412  0  1.033622  0
H  H80  1  0.86475619  0.96650079  0.84872837  1  0.066078  0  0.105158  0.117173  0  1.005039  0
H  H81  1  0.13524454  0.46650304  0.65127346  1  0.066045  0  0.105125  0.117137  0  1.005109  0
H  H82  1  0.13525076  0.03349350  0.15127183  1  0.065785  0  0.105124  0.117172  0  1.005035  0
H  H83  1  0.86475440  0.53349582  0.34872949  1  0.065855  0  0.105144  0.11719  0  1.00498  0
H  H84  1  0.54410620  0.33684662  0.44496670  1  0.084497  0  0.100241  0.102724  0  1.014227  0
H  H85  1  0.45590448  0.83684309  0.05503608  1  0.083354  0  0.100206  0.102602  0  1.014268  0
H  H86  1  0.45590302  0.66315325  0.55503821  1  0.084343  0  0.100238  0.102672  0  1.014196  0
H  H87  1  0.54410019  0.16315526  0.94496365  1  0.084377  0  0.100263  0.102735  0  1.014317  0
H  H88  1  0.75632157  0.39933633  0.40931863  1  0.020445  0  0.090956  0.092262  0  1.05489  0
H  H89  1  0.24368816  0.89933309  0.09068365  1  0.020523  0  0.090981  0.092294  0  1.054788  0
H  H90  1  0.24368080  0.60066507  0.59068330  1  0.020495  0  0.090968  0.092323  0  1.054808  0
H  H91  1  0.75631879  0.10066424  0.90931809  1  0.020433  0  0.090949  0.092288  0  1.054894  0
H  H92  1  0.97999984  0.20798874  0.38781356  1  0.123965  0  0.102476  0.120562  0  1.024274  0
H  H93  1  0.01999673  0.70798581  0.11218493  1  0.124  0  0.10247  0.120601  0  1.024173  0
H  H94  1  0.02000140  0.79201368  0.61218718  1  0.12395  0  0.102462  0.120577  0  1.024324  0
H  H95  1  0.98000336  0.29201050  0.88781538  1  0.123902  0  0.102512  0.120601  0  1.024288  0
H  H96  1  0.76692496  0.14731646  0.42204267  1  0.112927  0  0.102407  0.104456  0  1.012206  0
H  H97  1  0.23307370  0.64731374  0.07795790  1  0.112837  0  0.1024  0.104461  0  1.012399  0
H  H98  1  0.23307741  0.85268494  0.57795812  1  0.112885  0  0.102375  0.104406  0  1.012234  0
H  H99  1  0.76692411  0.35268410  0.92204271  1  0.112949  0  0.102358  0.104342  0  1.012227  0
H  H100  1  0.19155370  0.31444663  0.42457815  1  0.097521  0  0.099998  0.109407  0  1.035043  0
H  H101  1  0.80844435  0.81444737  0.07542222  1  0.097553  0  0.100014  0.109431  0  1.034995  0
H  H102  1  0.80844411  0.68555426  0.57542284  1  0.097523  0  0.09999  0.109395  0  1.035048  0
H  H103  1  0.19155117  0.18554997  0.92458021  1  0.097468  0  0.1  0.109377  0  1.035128  0
H  H104  1  0.38030672  0.37922249  0.38073171  1  0.071885  0  0.095575  0.092919  0  1.02531  0
H  H105  1  0.61970066  0.87922403  0.11927012  1  0.071973  0  0.095567  0.092946  0  1.025386  0
H  H106  1  0.61969565  0.62077790  0.61926908  1  0.071893  0  0.095545  0.092901  0  1.025402  0
H  H107  1  0.38030285  0.12077584  0.88073264  1  0.071923  0  0.0956  0.09299  0  1.025279  0
H  H108  1  0.30032139  0.44105786  0.29908671  1  0.063654  0  0.090475  0.088402  0  1.067649  0
H  H109  1  0.69968961  0.94105830  0.20091443  1  0.063714  0  0.09048  0.08838  0  1.067601  0
H  H110  1  0.69968098  0.55894201  0.70091331  1  0.063647  0  0.090534  0.088501  0  1.067678  0
H  H111  1  0.30031276  0.05894361  0.79908635  1  0.06376  0  0.090474  0.088403  0  1.06759  0
H  H112  1  0.83572554  0.37841593  0.30671492  1  0.069467  0  0.096309  0.095261  0  1.037923  0
H  H113  1  0.16428186  0.87841346  0.19328307  1  0.069403  0  0.096278  0.095239  0  1.037905  0
H  H114  1  0.16427684  0.62158548  0.69328509  1  0.069461  0  0.09631  0.095248  0  1.037884  0
H  H115  1  0.83571709  0.12158590  0.80671758  1  0.069161  0  0.096276  0.095252  0  1.037877  0
H  H116  1  0.16004614  0.53409502  0.26054408  1  0.066953  0  0.093633  0.091984  0  1.035137  0
H  H117  1  0.83995787  0.03409049  0.23945719  1  0.067111  0  0.093607  0.091864  0  1.035166  0
H  H118  1  0.83994823  0.46590536  0.73945676  1  0.066948  0  0.093655  0.091982  0  1.035101  0
H  H119  1  0.16004908  0.96590938  0.76054262  1  0.067061  0  0.093652  0.091972  0  1.035075  0
H  H120  1  0.07118695  0.58911059  0.17626131  1  0.084758  0  0.1035  0.107007  0  1.003975  0
H  H121  1  0.92881152  0.08910444  0.32374046  1  0.084486  0  0.103528  0.107068  0  1.003965  0
H  H122  1  0.92880171  0.41088929  0.82373816  1  0.084324  0  0.103496  0.107023  0  1.003969  0
H  H123  1  0.07120115  0.91089543  0.67625844  1  0.082523  0  0.103526  0.107072  0  1.003905  0
H  H124  1  0.77504358  0.42019967  0.13434794  1  0.092476  0  0.098185  0.097128  0  1.029432  0
H  H125  1  0.22496508  0.92019542  0.36565159  1  0.092369  0  0.098146  0.097112  0  1.029494  0
H  H126  1  0.22495765  0.57979716  0.86565241  1  0.092462  0  0.098181  0.097069  0  1.029464  0
H  H127  1  0.77503387  0.07980039  0.63434906  1  0.092404  0  0.098141  0.097067  0  1.029549  0
H  H128  1  0.86097437  0.36451509  0.21892316  1  0.059375  0  0.097891  0.097089  0  1.00706  0
H  H129  1  0.13903640  0.86451398  0.28107652  1  0.059253  0  0.097912  0.097088  0  1.007096  0
H  H130  1  0.13903029  0.63548174  0.78107811  1  0.059452  0  0.097892  0.097098  0  1.007067  0
H  H131  1  0.86095797  0.13548387  0.71892471  1  0.059289  0  0.097907  0.09704  0  1.007069  0
C  C132  1  0.39170311  0.01066324  0.56789116  1  0.388403  0  0.052775  0.111865  0  3.926815  0
C  C133  1  0.60828477  0.51066269  0.93210716  1  0.388678  0  0.052861  0.112095  0  3.926459  0
C  C134  1  0.60828899  0.98933663  0.43210652  1  0.388817  0  0.052827  0.111935  0  3.926681  0
C  C135  1  0.39170504  0.48933667  0.06789159  1  0.388489  0  0.052814  0.111992  0  3.926533  0
C  C136  1  0.43843445  0.98398020  0.61656252  1  0.036046  0  -0.077757  -0.161894  0  3.911482  0
C  C137  1  0.56155607  0.48397776  0.88343542  1  0.035992  0  -0.077722  -0.16199  0  3.911389  0
C  C138  1  0.56155537  0.01602272  0.38343545  1  0.03592  0  -0.077747  -0.161995  0  3.911315  0
C  C139  1  0.43844060  0.51602160  0.11656283  1  0.03599  0  -0.077693  -0.1619  0  3.911367  0
C  C140  1  0.44434645  0.02569879  0.66048942  1  0.027198  0  0.016127  0.115039  0  3.995479  0
C  C141  1  0.55564720  0.52569583  0.83950911  1  0.027435  0  0.016095  0.115032  0  3.995391  0
C  C142  1  0.55564794  0.97429956  0.33950797  1  0.027181  0  0.016073  0.114957  0  3.995368  0
C  C143  1  0.44435404  0.47430201  0.16048971  1  0.027231  0  0.016005  0.114858  0  3.99548  0
C  C144  1  0.40211725  0.09419531  0.65223312  1  -0.015002  0  -0.086685  -0.179639  0  3.958262  0
C  C145  1  0.59787547  0.59419237  0.84776415  1  -0.015488  0  -0.086676  -0.179494  0  3.958053  0
C  C146  1  0.59788056  0.90580761  0.34776594  1  -0.014987  0  -0.086692  -0.179551  0  3.958426  0
C  C147  1  0.40212691  0.40580649  0.15223433  1  -0.015482  0  -0.08665  -0.179528  0  3.958272  0
C  C148  1  0.35696218  0.11698109  0.60240894  1  0.438642  0  0.036831  0.084971  0  4.003177  0
C  C149  1  0.64302833  0.61698012  0.89758822  1  0.438871  0  0.036825  0.084862  0  4.003025  0
C  C150  1  0.64303449  0.88301879  0.39758892  1  0.43842  0  0.036789  0.084835  0  4.003202  0
C  C151  1  0.35697062  0.38301823  0.10241166  1  0.438873  0  0.036809  0.084989  0  4.003102  0
C  C152  1  0.48917690  0.99897304  0.71272347  1  -0.002775  0  -0.014157  0.039314  0  4.011428  0
C  C153  1  0.51082053  0.49896820  0.78727397  1  -0.002925  0  -0.014055  0.039454  0  4.011329  0
C  C154  1  0.51081749  0.00103039  0.28727546  1  -0.003148  0  -0.01408  0.039436  0  4.011382  0
C  C155  1  0.48918072  0.50102914  0.21272331  1  -0.002594  0  -0.01408  0.039523  0  4.011284  0
C  C156  1  0.46192353  0.93058020  0.72451024  1  -0.050671  0  -0.079818  -0.095853  0  3.978501  0
C  C157  1  0.53807938  0.43057794  0.77549095  1  -0.050796  0  -0.07991  -0.095994  0  3.978316  0
C  C158  1  0.53807199  0.06941917  0.27549027  1  -0.050364  0  -0.07984  -0.095891  0  3.978586  0
C  C159  1  0.46192757  0.56941889  0.22450926  1  -0.050527  0  -0.079856  -0.095858  0  3.978503  0
C  C160  1  0.49651673  0.90582753  0.77440465  1  0.018527  0  -0.095933  -0.177375  0  3.999698  0
C  C161  1  0.50348269  0.40582279  0.72559066  1  0.018193  0  -0.095945  -0.177398  0  3.999327  0
C  C162  1  0.50348108  0.09417641  0.22559442  1  0.018543  0  -0.096018  -0.177511  0  3.999602  0
C  C163  1  0.49652084  0.59417403  0.27440594  1  0.018647  0  -0.096053  -0.177666  0  3.999852  0
C  C164  1  0.56021381  0.94875751  0.81457444  1  0.371145  0  0.097281  0.187698  0  4.033855  0
C  C165  1  0.43978573  0.44875686  0.68542429  1  0.370829  0  0.097393  0.188017  0  4.033775  0
C  C166  1  0.43977943  0.05124237  0.18542521  1  0.370493  0  0.097395  0.188022  0  4.03371  0
C  C167  1  0.56021779  0.55124047  0.31457462  1  0.370527  0  0.097315  0.187818  0  4.033816  0
C  C168  1  0.59207810  0.01662326  0.80293098  1  -0.086791  0  -0.096241  -0.17637  0  3.990789  0
C  C169  1  0.40792009  0.51661841  0.69706545  1  -0.086749  0  -0.096335  -0.176622  0  3.990868  0
C  C170  1  0.40791171  0.98338323  0.19706661  1  -0.086771  0  -0.096324  -0.176598  0  3.990967  0
C  C171  1  0.59208230  0.48337841  0.30293111  1  -0.086826  0  -0.096324  -0.176446  0  3.990906  0
C  C172  1  0.55649826  0.04089450  0.75283460  1  -0.02401  0  -0.083121  -0.102812  0  3.995717  0
C  C173  1  0.44350001  0.54089264  0.74716488  1  -0.024029  0  -0.083143  -0.102828  0  3.995255  0
C  C174  1  0.44348928  0.95910538  0.24716290  1  -0.02415  0  -0.083095  -0.102703  0  3.995248  0
C  C175  1  0.55650581  0.45910469  0.25283374  1  -0.02458  0  -0.083102  -0.10283  0  3.995483  0
C  C176  1  0.47052654  0.87924770  0.88148983  1  0.308946  0  0.092203  0.17642  0  4.048928  0
C  C177  1  0.52947164  0.37924470  0.61851007  1  0.309132  0  0.092226  0.176591  0  4.048841  0
C  C178  1  0.52948268  0.12075421  0.11851315  1  0.309163  0  0.092253  0.176574  0  4.048891  0
C  C179  1  0.47052847  0.62075620  0.38148602  1  0.309429  0  0.092159  0.176486  0  4.049045  0
C  C180  1  0.31627506  0.89827145  0.87357885  1  0.006653  0  -0.094917  -0.169651  0  3.993364  0
C  C181  1  0.68372090  0.39826904  0.62642055  1  0.006306  0  -0.094914  -0.169641  0  3.993233  0
C  C182  1  0.68373188  0.10172995  0.12642443  1  0.006529  0  -0.094873  -0.169689  0  3.993253  0
C  C183  1  0.31628035  0.60173185  0.37357673  1  0.006293  0  -0.094926  -0.169698  0  3.993196  0
C  C184  1  0.20650971  0.85705716  0.89176845  1  -0.073788  0  -0.086833  -0.105022  0  3.976454  0
C  C185  1  0.79349068  0.35705639  0.60823309  1  -0.073752  0  -0.086801  -0.104987  0  3.9765  0
C  C186  1  0.79349837  0.14294577  0.10823602  1  -0.073655  0  -0.086899  -0.104966  0  3.976419  0
C  C187  1  0.20650827  0.64294552  0.39176717  1  -0.073712  0  -0.086766  -0.104921  0  3.976533  0
C  C188  1  0.24782862  0.79624517  0.91816259  1  -0.096976  0  -0.013044  0.046558  0  4.004478  0
C  C189  1  0.75217502  0.29624340  0.58183684  1  -0.096913  0  -0.013054  0.046536  0  4.004549  0
C  C190  1  0.75218061  0.20375877  0.08184116  1  -0.097911  0  -0.012934  0.04651  0  4.004647  0
C  C191  1  0.24782393  0.70375749  0.41816265  1  -0.097835  0  -0.013026  0.046569  0  4.004674  0
C  C192  1  0.40222415  0.77682033  0.92455683  1  0.017071  0  -0.083291  -0.101837  0  3.975661  0
C  C193  1  0.59777713  0.27681795  0.57544406  1  0.017481  0  -0.083285  -0.101892  0  3.975513  0
C  C194  1  0.59778279  0.22318260  0.07544798  1  0.018006  0  -0.083315  -0.101947  0  3.975496  0
C  C195  1  0.40221839  0.72318243  0.42455415  1  0.018083  0  -0.083301  -0.101901  0  3.975142  0
C  C196  1  0.51271772  0.81798327  0.90662716  1  -0.046434  0  -0.093076  -0.16994  0  3.996468  0
C  C197  1  0.48728369  0.31798028  0.59337370  1  -0.046809  0  -0.093176  -0.170177  0  3.996629  0
C  C198  1  0.48728921  0.18201813  0.09337727  1  -0.046611  0  -0.093151  -0.169971  0  3.996304  0
C  C199  1  0.51271756  0.68202011  0.40662320  1  -0.046999  0  -0.093182  -0.170172  0  3.99634  0
C  C200  1  0.13181928  0.75556111  0.94023394  1  -0.033658  0  0.014833  0.117221  0  3.986354  0
C  C201  1  0.86818080  0.25556099  0.55976462  1  -0.033996  0  0.014873  0.117318  0  3.986377  0
C  C202  1  0.86818539  0.24443978  0.05976617  1  -0.033726  0  0.014822  0.117349  0  3.986135  0
C  C203  1  0.13181815  0.74443889  0.44023526  1  -0.033906  0  0.01484  0.117278  0  3.986278  0
C  C204  1  0.00552505  0.78705623  0.95853476  1  -0.03679  0  -0.083049  -0.168895  0  3.935564  0
C  C205  1  0.99447970  0.28705724  0.54146242  1  -0.036484  0  -0.083079  -0.168915  0  3.935784  0
C  C206  1  0.99447505  0.21294568  0.04146286  1  -0.036543  0  -0.082993  -0.16892  0  3.935732  0
C  C207  1  0.00552382  0.71294518  0.45853726  1  -0.03637  0  -0.082987  -0.16888  0  3.935781  0
C  C208  1  0.89857944  0.74755550  0.97973973  1  0.444575  0  0.038697  0.075373  0  3.983399  0
C  C209  1  0.10141834  0.24755695  0.52025798  1  0.444547  0  0.038682  0.075249  0  3.983657  0
C  C210  1  0.10142295  0.25244743  0.02025875  1  0.444274  0  0.038651  0.075268  0  3.983433  0
C  C211  1  0.89858290  0.75244394  0.47974199  1  0.444542  0  0.038692  0.07531  0  3.983442  0
C  C212  1  0.03028741  0.64857364  0.96603000  1  0.464367  0  0.051332  0.10186  0  3.952202  0
C  C213  1  0.96970434  0.14857567  0.53396910  1  0.464254  0  0.051186  0.101689  0  3.952417  0
C  C214  1  0.96970926  0.35142623  0.03396748  1  0.464663  0  0.051278  0.101767  0  3.952406  0
C  C215  1  0.03029347  0.85142523  0.46603073  1  0.464169  0  0.051208  0.101685  0  3.952483  0
C  C216  1  0.14317558  0.68461016  0.94488183  1  0.043325  0  -0.07746  -0.167462  0  3.930911  0
C  C217  1  0.85683114  0.18461207  0.55511592  1  0.043322  0  -0.077405  -0.167387  0  3.93124  0
C  C218  1  0.85682223  0.31539276  0.05511685  1  0.04338  0  -0.077424  -0.167397  0  3.930719  0
C  C219  1  0.14317353  0.81539085  0.44488419  1  0.043446  0  -0.077415  -0.167323  0  3.93097  0
C  C220  1  0.70101813  0.94623341  0.90274684  1  0.278522  0  0.090619  0.179918  0  4.04405  0
C  C221  1  0.29897683  0.44622977  0.59725209  1  0.278473  0  0.090622  0.180047  0  4.044051  0
C  C222  1  0.29897967  0.05376646  0.09725338  1  0.27852  0  0.090629  0.180072  0  4.044122  0
C  C223  1  0.70101870  0.55376705  0.40274496  1  0.27857  0  0.090634  0.179958  0  4.044226  0
C  C224  1  0.67811785  0.94821906  0.95536498  1  -0.055635  0  -0.10196  -0.181013  0  4.002577  0
C  C225  1  0.32187027  0.44821350  0.54463482  1  -0.055664  0  -0.102001  -0.181068  0  4.002483  0
C  C226  1  0.32189025  0.05178336  0.04463488  1  -0.055059  0  -0.101915  -0.180973  0  4.00236  0
C  C227  1  0.67810812  0.55178434  0.45536461  1  -0.055107  0  -0.101962  -0.181065  0  4.002455  0
C  C228  1  0.79445561  0.96856208  0.99278333  1  -0.06945  0  -0.090436  -0.107781  0  3.9933  0
C  C229  1  0.20553142  0.46855752  0.50721718  1  -0.069196  0  -0.090534  -0.107925  0  3.993022  0
C  C230  1  0.20554449  0.03143983  0.00721583  1  -0.070102  0  -0.090485  -0.107872  0  3.993258  0
C  C231  1  0.79444810  0.53144032  0.49278269  1  -0.070215  0  -0.090334  -0.107644  0  3.993156  0
C  C232  1  0.93846037  0.98922645  0.97998091  1  -0.042675  0  -0.018057  0.044332  0  4.011619  0
C  C233  1  0.06153244  0.48922635  0.52002096  1  -0.042943  0  -0.01805  0.044451  0  4.011665  0
C  C234  1  0.06154887  0.01077546  0.02001861  1  -0.003876  0  -0.018149  0.044372  0  4.011613  0
C  C235  1  0.93844479  0.51077607  0.47998304  1  -0.003865  0  -0.018208  0.044291  0  4.011676  0
C  C236  1  0.95805499  0.98846700  0.92696687  1  0.01662  0  -0.089914  -0.115941  0  4.001774  0
C  C237  1  0.04194010  0.48846882  0.57303395  1  0.016137  0  -0.089933  -0.116072  0  4.001915  0
C  C238  1  0.04194395  0.01153186  0.07303340  1  0.016646  0  -0.089849  -0.115904  0  4.001632  0
C  C239  1  0.95805428  0.51153207  0.42696805  1  0.01677  0  -0.089859  -0.115961  0  4.001776  0
C  C240  1  0.84362098  0.96689575  0.88915476  1  -0.012444  0  -0.102526  -0.193118  0  4.020553  0
C  C241  1  0.15637748  0.46689504  0.61084659  1  -0.012376  0  -0.10245  -0.193038  0  4.020413  0
C  C242  1  0.15638712  0.03310260  0.11084510  1  -0.012126  0  -0.102512  -0.193183  0  4.020641  0
C  C243  1  0.84361347  0.53310382  0.38915604  1  -0.012149  0  -0.102507  -0.193172  0  4.020687  0
C  C244  1  0.50894579  0.20143255  0.45292804  1  1.473742  0  0.186946  0.551005  0  4.241595  0
C  C245  1  0.49105876  0.70142854  0.04707270  1  1.47399  0  0.186988  0.551053  0  4.241431  0
C  C246  1  0.49105545  0.79856834  0.54707232  1  1.473823  0  0.187029  0.551156  0  4.241375  0
C  C247  1  0.50894706  0.29856879  0.95292438  1  1.473736  0  0.186879  0.550905  0  4.241413  0
C  C248  1  0.64005778  0.23838821  0.43419206  1  0.00802  0  -0.024492  -0.041111  0  3.990704  0
C  C249  1  0.35994802  0.73838611  0.06580793  1  0.007938  0  -0.024394  -0.041  0  3.990554  0
C  C250  1  0.35994688  0.76161115  0.56580843  1  0.008069  0  -0.02442  -0.041061  0  3.990753  0
C  C251  1  0.64005665  0.26161122  0.93418988  1  0.008003  0  -0.024518  -0.041255  0  3.990683  0
C  C252  1  0.63911156  0.30951964  0.43127775  1  0.040016  0  -0.089753  -0.093407  0  3.999463  0
C  C253  1  0.36089218  0.80951448  0.06872439  1  0.041204  0  -0.089799  -0.093346  0  3.999607  0
C  C254  1  0.36089309  0.69048278  0.56872544  1  0.040178  0  -0.089796  -0.09336  0  3.999598  0
C  C255  1  0.63910677  0.19048031  0.93127664  1  0.040083  0  -0.089774  -0.093308  0  3.999391  0
C  C256  1  0.75700465  0.34391717  0.41123225  1  -0.13613  0  -0.100611  -0.149772  0  3.993431  0
C  C257  1  0.24300263  0.84391495  0.08876884  1  -0.135843  0  -0.10067  -0.149814  0  3.993353  0
C  C258  1  0.24299772  0.65608423  0.58877007  1  -0.136164  0  -0.100628  -0.14985  0  3.99344  0
C  C259  1  0.75700203  0.15608188  0.91123242  1  -0.136098  0  -0.100603  -0.149876  0  3.993395  0
C  C260  1  0.87985587  0.30790160  0.39446978  1  0.019533  0  -0.005222  0.078745  0  3.993344  0
C  C261  1  0.12014558  0.80789724  0.10552997  1  0.019386  0  -0.005253  0.078644  0  3.993437  0
C  C262  1  0.12014422  0.69210234  0.60553092  1  0.019699  0  -0.00518  0.078743  0  3.99349  0
C  C263  1  0.87985679  0.19209908  0.89447159  1  0.019498  0  -0.005222  0.078782  0  3.993384  0
C  C264  1  0.88432596  0.23686525  0.39965867  1  -0.062008  0  -0.09268  -0.138815  0  3.960001  0
C  C265  1  0.11567527  0.73686444  0.10034037  1  -0.062323  0  -0.092602  -0.138746  0  3.959835  0
C  C266  1  0.11567870  0.76313616  0.60034298  1  -0.062333  0  -0.092699  -0.138892  0  3.960393  0
C  C267  1  0.88433053  0.26313442  0.89966055  1  -0.061999  0  -0.092713  -0.138827  0  3.960078  0
C  C268  1  0.76479108  0.20257447  0.41888677  1  -0.114578  0  -0.086994  -0.088202  0  3.983664  0
C  C269  1  0.23520776  0.70257023  0.08111259  1  -0.114531  0  -0.087027  -0.088272  0  3.983692  0
C  C270  1  0.23521129  0.79742693  0.58111441  1  -0.114419  0  -0.086998  -0.088164  0  3.983726  0
C  C271  1  0.76479462  0.29742507  0.91888704  1  -0.114551  0  -0.08693  -0.088013  0  3.983563  0
C  C272  1  0.99893921  0.34408454  0.36933723  1  -0.01297  0  -0.006168  0.076662  0  4.009362  0
C  C273  1  0.00106121  0.84408360  0.13066167  1  -0.012971  0  -0.006144  0.076698  0  4.009502  0
C  C274  1  0.00105631  0.65591635  0.63066251  1  -0.013039  0  -0.006203  0.076664  0  4.009403  0
C  C275  1  0.99893773  0.15591729  0.86933936  1  -0.012914  0  -0.006168  0.076616  0  4.009392  0
C  C276  1  0.15368191  0.34339590  0.38969197  1  -0.085238  0  -0.089053  -0.129126  0  3.946171  0
C  C277  1  0.84632194  0.84339609  0.11030898  1  -0.085232  0  -0.089022  -0.129098  0  3.946315  0
C  C278  1  0.84631819  0.65660500  0.61030834  1  -0.085245  0  -0.089002  -0.129031  0  3.946346  0
C  C279  1  0.15368157  0.15660480  0.88969377  1  -0.085229  0  -0.088978  -0.129009  0  3.946143  0
C  C280  1  0.26010369  0.37970491  0.36483146  1  -0.012534  0  -0.097061  -0.07797  0  4.041678  0
C  C281  1  0.73989913  0.87970600  0.13516826  1  -0.012528  0  -0.097038  -0.077999  0  4.041697  0
C  C282  1  0.73989298  0.62029599  0.63516755  1  -0.012551  0  -0.096982  -0.077955  0  4.041652  0
C  C283  1  0.26010096  0.12029540  0.86483167  1  -0.012509  0  -0.097112  -0.078108  0  4.041691  0
C  C284  1  0.21527909  0.41489801  0.31903351  1  -0.117258  0  -0.101722  -0.149931  0  3.996986  0
C  C285  1  0.78472841  0.91489854  0.18096713  1  -0.117378  0  -0.101855  -0.150057  0  3.996958  0
C  C286  1  0.78472100  0.58510136  0.68096680  1  -0.117112  0  -0.101841  -0.150106  0  3.997112  0
C  C287  1  0.21527169  0.08510439  0.81903280  1  -0.117344  0  -0.101761  -0.149998  0  3.996946  0
C  C288  1  0.06208633  0.41356604  0.29674656  1  -0.014768  0  -0.01304  0.068237  0  4.026735  0
C  C289  1  0.93792003  0.91356511  0.20325327  1  -0.014582  0  -0.012888  0.068484  0  4.026601  0
C  C290  1  0.93791034  0.58643333  0.70325399  1  -0.014812  0  -0.013058  0.068258  0  4.026554  0
C  C291  1  0.06208121  0.08643527  0.79674709  1  -0.014666  0  -0.01296  0.068409  0  4.026633  0
C  C292  1  0.95548630  0.37895127  0.32301032  1  -0.055556  0  -0.092097  -0.183536  0  3.945672  0
C  C293  1  0.04452224  0.87894926  0.17698887  1  -0.055689  0  -0.092127  -0.183608  0  3.945592  0
C  C294  1  0.04451037  0.62104962  0.67698986  1  -0.055542  0  -0.09209  -0.183531  0  3.945462  0
C  C295  1  0.95548242  0.12105061  0.82301124  1  -0.055376  0  -0.09215  -0.183616  0  3.945629  0
C  C296  1  0.01452363  0.44588277  0.24618931  1  -0.044947  0  -0.009051  0.070256  0  4.005121  0
C  C297  1  0.98548739  0.94588128  0.25381221  1  -0.045132  0  -0.009056  0.070148  0  4.004993  0
C  C298  1  0.98547760  0.55411660  0.75381258  1  -0.044578  0  -0.008958  0.070484  0  4.004917  0
C  C299  1  0.01451270  0.05411758  0.74618886  1  -0.044736  0  -0.009035  0.070231  0  4.005144  0
C  C300  1  0.07573785  0.50866777  0.23300401  1  -0.012315  0  -0.095592  -0.136994  0  3.989071  0
C  C301  1  0.92427066  0.00866274  0.26699748  1  -0.012158  0  -0.095482  -0.136678  0  3.988946  0
C  C302  1  0.92425767  0.49133261  0.76699650  1  -0.012724  0  -0.095648  -0.137093  0  3.988945  0
C  C303  1  0.07573172  0.99133713  0.73300408  1  -0.012597  0  -0.095555  -0.136904  0  3.988968  0
C  C304  1  0.02715696  0.53948684  0.18582725  1  -0.043593  0  -0.085154  -0.08767  0  3.981774  0
C  C305  1  0.97284707  0.03948227  0.31417517  1  -0.043651  0  -0.085255  -0.08793  0  3.981952  0
C  C306  1  0.97283627  0.46051151  0.81417393  1  -0.043138  0  -0.085201  -0.087707  0  3.98175  0
C  C307  1  0.02715759  0.96051761  0.68582648  1  -0.041271  0  -0.085272  -0.087895  0  3.981864  0
C  C308  1  0.91829490  0.50770732  0.15005594  1  -0.057254  0  -0.019991  -0.026076  0  3.971194  0
C  C309  1  0.08171360  0.00770155  0.34994593  1  -0.056795  0  -0.01998  -0.025829  0  3.971024  0
C  C310  1  0.08170062  0.49229053  0.84994572  1  -0.057529  0  -0.01993  -0.026069  0  3.971325  0
C  C311  1  0.91829106  0.99229527  0.65005495  1  -0.057215  0  -0.019899  -0.025837  0  3.970976  0
C  C312  1  0.85974813  0.44435192  0.16234392  1  -0.013148  0  -0.088444  -0.094971  0  4.002777  0
C  C313  1  0.14026175  0.94434969  0.33765833  1  -0.017047  0  -0.08841  -0.09507  0  4.002753  0
C  C314  1  0.14024968  0.55564440  0.83765668  1  -0.013089  0  -0.088427  -0.094723  0  4.002885  0
C  C315  1  0.85973491  0.05564764  0.66234338  1  -0.016977  0  -0.088397  -0.094876  0  4.002547  0
C  C316  1  0.90655916  0.41407935  0.20984799  1  -0.088274  0  -0.095442  -0.138406  0  4.000835  0
C  C317  1  0.09345519  0.91407616  0.29015331  1  -0.084358  0  -0.095495  -0.138398  0  4.000684  0
C  C318  1  0.09344207  0.58591798  0.79015313  1  -0.088232  0  -0.095518  -0.13867  0  4.001003  0
C  C319  1  0.90654375  0.08592015  0.70985002  1  -0.084406  0  -0.095536  -0.138473  0  4.000766  0
C  C320  1  0.85852935  0.54255879  0.10072975  1  1.52779  0  0.184527  0.552184  0  4.236872  0
C  C321  1  0.14147240  0.04255704  0.39927411  1  1.527987  0  0.184479  0.551929  0  4.236942  0
C  C322  1  0.14146960  0.45743448  0.89927166  1  1.528051  0  0.184508  0.552136  0  4.236884  0
C  C323  1  0.85853112  0.95744334  0.60072672  1  1.527931  0  0.184531  0.552004  0  4.237146  0
N  N324  1  0.58376486  0.92323770  0.86540332  1  -1.227219  0  -0.253839  -0.152172  0  3.682633  0
N  N325  1  0.41623232  0.42323459  0.63459496  1  -1.226697  0  -0.253824  -0.152439  0  3.682678  0
N  N326  1  0.41623980  0.07676472  0.13459564  1  -1.226553  0  -0.253881  -0.152453  0  3.682445  0
N  N327  1  0.58376321  0.57676529  0.36540286  1  -1.226681  0  -0.253788  -0.152141  0  3.682643  0
N  N328  1  0.35116899  0.07623866  0.56058888  1  -1.232934  0  -0.338059  -0.258116  0  3.539899  0
N  N329  1  0.64882139  0.57623711  0.93940832  1  -1.23299  0  -0.338101  -0.258147  0  3.539811  0
N  N330  1  0.64882768  0.92376529  0.43940975  1  -1.232986  0  -0.338094  -0.258079  0  3.539828  0
N  N331  1  0.35117185  0.42376124  0.06059056  1  -1.232769  0  -0.338084  -0.258252  0  3.539931  0
N  N332  1  0.90959549  0.67939806  0.98318288  1  -1.264248  0  -0.337239  -0.254513  0  3.554663  0
N  N333  1  0.09040207  0.17939849  0.51681374  1  -1.26412  0  -0.337177  -0.254418  0  3.554471  0
N  N334  1  0.09040004  0.32060640  0.01681494  1  -1.264268  0  -0.337171  -0.254451  0  3.55465  0
N  N335  1  0.90959688  0.82060444  0.48318576  1  -1.264175  0  -0.337177  -0.254424  0  3.554496  0
O  O336  1  0.39496543  0.23456158  0.46547034  1  -1.180017  0  -0.335037  -0.569538  0  2.177074  0
O  O337  1  0.60503238  0.73456327  0.03452549  1  -1.180036  0  -0.335121  -0.569679  0  2.176822  0
O  O338  1  0.60502782  0.76543423  0.53452470  1  -1.180016  0  -0.335143  -0.569715  0  2.176808  0
O  O339  1  0.39497001  0.26544118  0.96547261  1  -1.179941  0  -0.33506  -0.569566  0  2.177056  0
O  O340  1  0.51638116  0.13625569  0.45548855  1  -1.126471  0  -0.333595  -0.558605  0  2.24071  0
O  O341  1  0.48362889  0.63625473  0.04451440  1  -1.126618  0  -0.333594  -0.558555  0  2.2408  0
O  O342  1  0.48362351  0.86374317  0.54451195  1  -1.126526  0  -0.333592  -0.558591  0  2.240732  0
O  O343  1  0.51637922  0.36374667  0.95548047  1  -1.126604  0  -0.333544  -0.558499  0  2.240557  0
O  O344  1  0.78673583  0.50866004  0.06376294  1  -1.171211  0  -0.343635  -0.570347  0  2.119893  0
O  O345  1  0.21325438  0.00865726  0.43624280  1  -1.171527  0  -0.343586  -0.57026  0  2.119813  0
O  O346  1  0.21326083  0.49133526  0.93623992  1  -1.171255  0  -0.34362  -0.57043  0  2.119968  0
O  O347  1  0.78674570  0.99134312  0.56375982  1  -1.171391  0  -0.34365  -0.570323  0  2.119946  0
O  O348  1  0.87841199  0.60704224  0.09843646  1  -1.147181  0  -0.33813  -0.54949  0  2.19237  0
O  O349  1  0.12158997  0.10703793  0.40156466  1  -1.147167  0  -0.338139  -0.549406  0  2.192614  0
O  O350  1  0.12159039  0.39295459  0.90156355  1  -1.147361  0  -0.33813  -0.549399  0  2.192379  0
O  O351  1  0.87841126  0.89296194  0.59843609  1  -1.147154  0  -0.338106  -0.549406  0  2.192603  0
