# generated using pymatgen
data_Ni2H21C26NO10
_symmetry_space_group_name_H-M   'P 1'
_cell_length_a   12.56317866
_cell_length_b   14.06743864
_cell_length_c   15.78935884
_cell_angle_alpha   89.99994416
_cell_angle_beta   98.10840082
_cell_angle_gamma   89.99997260
_symmetry_Int_Tables_number   1
_chemical_formula_structural   Ni2H21C26NO10
_chemical_formula_sum   'Ni8 H84 C104 N4 O40'
_cell_volume   2762.58446802
_cell_formula_units_Z   4
loop_
 _symmetry_equiv_pos_site_id
 _symmetry_equiv_pos_as_xyz
  1  'x, y, z'
loop_
 _atom_site_type_symbol
 _atom_site_label
 _atom_site_symmetry_multiplicity
 _atom_site_fract_x
 _atom_site_fract_y
 _atom_site_fract_z
 _atom_site_occupancy
 _atom_site_pbe_bader_charge
 _atom_site_pbe_bader_spin_density
 _atom_site_pbe_cm5_charge
 _atom_site_pbe_ddec_charge
 _atom_site_pbe_ddec_spin_density
 _atom_site_pbe_ddec_sum_bond_order
 _atom_site_pbe_magmom
Ni  Ni0  1  0.99999925  0.99999917  0.00000006  1  1.27766  1.604602  0.646314  1.008707  1.788491  2.217637  1.596
Ni  Ni1  1  0.50000018  0.50000038  0.49999984  1  1.277707  1.604604  0.646316  1.008689  1.788492  2.217675  1.596
Ni  Ni2  1  0.97795993  0.25113595  0.98324223  1  1.244405  1.587998  0.638102  0.974806  1.772334  2.362546  1.577
Ni  Ni3  1  0.52204078  0.75113635  0.51675881  1  1.244402  1.587998  0.6381  0.974786  1.772335  2.362542  1.577
Ni  Ni4  1  0.02204042  0.74886410  0.01675809  1  1.244408  1.587999  0.638105  0.974824  1.772335  2.362549  1.577
Ni  Ni5  1  0.47795958  0.24886299  0.48324215  1  1.244481  1.588  0.638111  0.974862  1.772332  2.362481  1.577
Ni  Ni6  1  0.00000063  0.50000005  0.99999985  1  1.254961  1.603993  0.634417  1.021745  1.794455  2.33231  1.594
Ni  Ni7  1  0.50000035  0.00000104  0.50000008  1  1.255045  1.603989  0.634459  1.021764  1.794455  2.332253  1.594
H  H8  1  0.26881977  0.05260216  0.20567314  1  0.080119  0.000291  0.102223  0.096661  0.00015  1.050271  0.0
H  H9  1  0.23118037  0.55260288  0.29432602  1  0.080114  0.000291  0.102214  0.096658  0.00015  1.050296  0.0
H  H10  1  0.73117898  0.94739647  0.79432637  1  0.08014  0.000291  0.102229  0.096705  0.00015  1.050279  0.0
H  H11  1  0.76881999  0.44739718  0.70567367  1  0.080124  0.000291  0.102222  0.096674  0.00015  1.05028  0.0
H  H12  1  0.45983397  0.04674956  0.26932692  1  0.092459  3.8e-05  0.101821  0.1064  -5.9e-05  1.028577  0.0
H  H13  1  0.04016779  0.54675114  0.23067180  1  0.092456  3.8e-05  0.101824  0.106428  -5.9e-05  1.02856  0.0
H  H14  1  0.54016639  0.95324836  0.73067214  1  0.092462  3.8e-05  0.10181  0.106382  -5.9e-05  1.028575  0.0
H  H15  1  0.95983418  0.45324962  0.76932617  1  0.092489  3.8e-05  0.101822  0.106388  -5.9e-05  1.028583  0.0
H  H16  1  0.53408555  0.25201445  0.08316306  1  0.059915  0.000213  0.102359  0.103044  8.1e-05  1.000713  0.0
H  H17  1  0.96591406  0.75201422  0.41683708  1  0.059914  0.000213  0.102359  0.103042  8.1e-05  1.000702  0.0
H  H18  1  0.46591400  0.74798490  0.91683781  1  0.059896  0.000213  0.102329  0.103016  8.1e-05  1.000661  0.0
H  H19  1  0.03408469  0.24798583  0.58316180  1  0.059913  0.000213  0.102363  0.103059  8.1e-05  1.000726  0.0
H  H20  1  0.34143268  0.25709149  0.02085790  1  0.07171  0.000177  0.10368  0.107845  6.3e-05  1.000058  0.0
H  H21  1  0.15856651  0.75709062  0.47914224  1  0.071708  0.000177  0.103685  0.107845  6.3e-05  1.000059  0.0
H  H22  1  0.65856687  0.74290856  0.97914296  1  0.071693  0.000177  0.103682  0.107837  6.3e-05  1.000055  0.0
H  H23  1  0.84143144  0.24290801  0.52085781  1  0.071696  0.000177  0.103684  0.107829  6.3e-05  1.000019  0.0
H  H24  1  0.80119927  0.09894300  0.39717982  1  0.060805  0.000373  0.100966  0.100984  0.000113  1.020288  0.0
H  H25  1  0.69880125  0.59894323  0.10281929  1  0.060789  0.000373  0.100952  0.100964  0.000113  1.020288  0.0
H  H26  1  0.19880189  0.90105776  0.60281933  1  0.060795  0.000373  0.100961  0.100987  0.000113  1.020279  0.0
H  H27  1  0.30119750  0.40105753  0.89717958  1  0.060822  0.000373  0.100977  0.101008  0.000113  1.020266  0.0
H  H28  1  0.67798529  0.15210568  0.08976952  1  0.059642  0.000422  0.105553  0.112461  0.000133  1.002087  0.0
H  H29  1  0.82201438  0.65210552  0.41023008  1  0.059658  0.000422  0.105544  0.112441  0.000133  1.002072  0.0
H  H30  1  0.32201506  0.84789509  0.91023080  1  0.059647  0.000422  0.105562  0.112471  0.000133  1.002066  0.0
H  H31  1  0.17798517  0.34789524  0.58976889  1  0.059647  0.000422  0.105559  0.112494  0.000133  1.002033  0.0
H  H32  1  0.94738853  0.00020431  0.40337630  1  0.064674  0.000226  0.101255  0.099444  8.3e-05  1.014059  0.0
H  H33  1  0.55261045  0.50020318  0.09662400  1  0.06467  0.000226  0.101253  0.099444  8.3e-05  1.014026  0.0
H  H34  1  0.05261183  0.99979646  0.59662403  1  0.064666  0.000226  0.101258  0.099477  8.3e-05  1.014017  0.0
H  H35  1  0.44738910  0.49979545  0.90337560  1  0.064703  0.000226  0.101255  0.099464  8.3e-05  1.013983  0.0
H  H36  1  0.14107675  0.99523065  0.46352454  1  0.07443  0.000171  0.101301  0.101205  5.2e-05  1.01478  0.0
H  H37  1  0.35892147  0.49523007  0.03647718  1  0.074463  0.000171  0.10132  0.101234  5.2e-05  1.014771  0.0
H  H38  1  0.85892200  0.00477012  0.53647686  1  0.074455  0.000171  0.101312  0.101218  5.2e-05  1.01479  0.0
H  H39  1  0.64107728  0.50476927  0.96352233  1  0.074467  0.000171  0.10132  0.101238  5.2e-05  1.014796  0.0
H  H40  1  0.20869557  0.20503002  0.28179494  1  0.041429  0.000266  0.101109  0.095682  0.000119  1.053733  0.0
H  H41  1  0.29130607  0.70503151  0.21820615  1  0.041361  0.000266  0.101103  0.095636  0.000119  1.053777  0.0
H  H42  1  0.79130559  0.79496790  0.71820547  1  0.041363  0.000266  0.101098  0.095638  0.000119  1.053755  0.0
H  H43  1  0.70869429  0.29496855  0.78179417  1  0.041408  0.000266  0.101109  0.095653  0.000119  1.053765  0.0
H  H44  1  0.01672769  0.20959596  0.21949173  1  0.066496  0.000115  0.098219  0.100606  1.3e-05  1.041043  0.0
H  H45  1  0.48327395  0.70959658  0.28050810  1  0.066525  0.000115  0.098222  0.100605  1.3e-05  1.041023  0.0
H  H46  1  0.98327508  0.79040338  0.78050887  1  0.066514  0.000115  0.098214  0.100587  1.3e-05  1.041045  0.0
H  H47  1  0.51672721  0.29040276  0.71949105  1  0.066505  0.000115  0.09821  0.10057  1.3e-05  1.041055  0.0
H  H48  1  0.92510018  0.11201128  0.71227210  1  0.052716  5.7e-05  0.090803  0.138451  1.2e-05  1.041554  0.0
H  H49  1  0.57489983  0.61201065  0.78772898  1  0.052694  5.8e-05  0.090796  0.138459  1.2e-05  1.041611  0.0
H  H50  1  0.07490098  0.88798948  0.28772895  1  0.052694  5.7e-05  0.090801  0.138444  1.2e-05  1.041571  0.0
H  H51  1  0.42509973  0.38799011  0.21227188  1  0.052701  5.8e-05  0.090803  0.138449  1.2e-05  1.041598  0.0
H  H52  1  0.02500444  0.05943825  0.79111533  1  0.105062  0.000711  0.107688  0.17859  0.000312  0.999116  0.001
H  H53  1  0.47499519  0.55943895  0.70888518  1  0.10507  0.000711  0.107686  0.17858  0.000312  0.999129  0.001
H  H54  1  0.97499511  0.94056109  0.20888491  1  0.105062  0.000711  0.107684  0.178568  0.000312  0.999151  0.001
H  H55  1  0.52500437  0.44056252  0.29111569  1  0.104836  0.000711  0.107683  0.178568  0.000312  0.999134  0.001
H  H56  1  0.01540464  0.18440059  0.78351225  1  0.124102  0.000818  0.108121  0.178862  0.000348  1.005685  0.001
H  H57  1  0.48459491  0.68440129  0.71648814  1  0.124091  0.000818  0.108109  0.178855  0.000348  1.005705  0.001
H  H58  1  0.98459492  0.81559946  0.21648862  1  0.124104  0.000818  0.108117  0.178864  0.000348  1.005674  0.001
H  H59  1  0.51540464  0.31560090  0.28351146  1  0.124135  0.000818  0.108131  0.17887  0.000348  1.005681  0.001
H  H60  1  0.77444948  0.11440749  0.95715711  1  0.120041  -7.1e-05  0.115787  0.141172  -0.000279  1.021919  0.0
H  H61  1  0.72555052  0.61440706  0.54284334  1  0.120046  -7.1e-05  0.115797  0.141182  -0.000279  1.02194  0.0
H  H62  1  0.22555007  0.88559256  0.04284312  1  0.120042  -7.1e-05  0.115795  0.141176  -0.000279  1.02195  0.0
H  H63  1  0.27444903  0.38559299  0.45715753  1  0.120044  -7.1e-05  0.115793  0.141184  -0.000279  1.021912  0.0
H  H64  1  0.66745918  0.06132113  0.88638626  1  0.079197  0.001559  0.100919  0.117082  0.000667  1.019756  0.001
H  H65  1  0.83254086  0.56132058  0.61361424  1  0.0792  0.001559  0.10092  0.117076  0.000667  1.019756  0.001
H  H66  1  0.33254037  0.93867821  0.11361398  1  0.079213  0.001559  0.100927  0.117087  0.000667  1.019755  0.001
H  H67  1  0.16745869  0.43867876  0.38638663  1  0.079199  0.001559  0.100913  0.117075  0.000667  1.019751  0.001
H  H68  1  0.67891260  0.18847149  0.89342277  1  0.07441  0.001963  0.100504  0.116437  0.000847  1.025769  0.001
H  H69  1  0.82108655  0.68847238  0.60657688  1  0.074427  0.001963  0.100505  0.116439  0.000847  1.025757  0.001
H  H70  1  0.32108615  0.81152714  0.10657673  1  0.074418  0.001963  0.100519  0.116447  0.000847  1.025821  0.001
H  H71  1  0.17891300  0.31152768  0.39342336  1  0.074419  0.001963  0.100511  0.116441  0.000847  1.025824  0.001
H  H72  1  0.75939939  0.18428318  0.70451350  1  0.08932  0.001993  0.103918  0.117004  0.000823  1.024677  0.001
H  H73  1  0.74060056  0.68428318  0.79548624  1  0.089323  0.001993  0.103918  0.116993  0.000823  1.024678  0.001
H  H74  1  0.24060016  0.81571616  0.29548673  1  0.089307  0.001993  0.103918  0.117002  0.000823  1.024627  0.001
H  H75  1  0.25939979  0.31571616  0.20451345  1  0.089316  0.001994  0.103925  0.117017  0.000823  1.024612  0.001
H  H76  1  0.65010729  0.12422463  0.74223863  1  0.066365  0.000298  0.110958  0.126251  0.000116  0.987034  0.0
H  H77  1  0.84989270  0.62422463  0.75776118  1  0.066369  0.000298  0.110952  0.126237  0.000116  0.987065  0.0
H  H78  1  0.34989226  0.87577471  0.25776161  1  0.06639  0.000298  0.110929  0.126202  0.000116  0.987098  0.0
H  H79  1  0.15010765  0.37577400  0.24223851  1  0.066388  0.000298  0.110939  0.126197  0.000116  0.987097  0.0
H  H80  1  0.75358238  0.05784936  0.70383265  1  0.085905  0.002118  0.104363  0.121083  0.000912  1.032362  0.001
H  H81  1  0.74641686  0.55784936  0.79616713  1  0.085861  0.002118  0.104361  0.121091  0.000912  1.032335  0.001
H  H82  1  0.24641637  0.94214998  0.29616686  1  0.085872  0.002118  0.104346  0.121058  0.000912  1.032353  0.001
H  H83  1  0.25358269  0.44214998  0.20383311  1  0.085868  0.002118  0.104366  0.121095  0.000912  1.032339  0.001
H  H84  1  0.96441015  0.36107257  0.10881535  1  0.64368  0.00042  0.349374  0.440151  0.000356  0.817979  0.001
H  H85  1  0.53559019  0.86107256  0.39118541  1  0.643674  0.00042  0.349323  0.44003  0.000356  0.818002  0.001
H  H86  1  0.03559101  0.63892748  0.89118443  1  0.643672  0.00042  0.349337  0.440063  0.000356  0.817965  0.001
H  H87  1  0.46441017  0.13892678  0.60881491  1  0.643674  0.00042  0.349318  0.440043  0.000356  0.817986  0.001
H  H88  1  0.08431314  0.34488290  0.08754595  1  0.666592  4e-06  0.332595  0.425962  -3.6e-05  0.861618  0.001
H  H89  1  0.41568761  0.84488342  0.41245556  1  0.666633  4e-06  0.33257  0.425904  -3.5e-05  0.861682  0.001
H  H90  1  0.91568803  0.65511715  0.91245510  1  0.666639  4e-06  0.332556  0.425887  -3.6e-05  0.861656  0.001
H  H91  1  0.58431275  0.15511664  0.58754540  1  0.666643  4e-06  0.332581  0.425919  -3.5e-05  0.861654  0.001
C  C92  1  0.29280032  0.15337322  0.10851549  1  -0.026464  0.011991  -0.01751  -0.03695  0.007124  3.976166  0.01
C  C93  1  0.20719975  0.65337384  0.39148421  1  -0.026504  0.011991  -0.017511  -0.037024  0.007124  3.976226  0.01
C  C94  1  0.70719924  0.84662755  0.89148348  1  -0.026305  0.011991  -0.017536  -0.037  0.007124  3.976216  0.01
C  C95  1  0.79279980  0.34662621  0.60851602  1  -0.02645  0.011991  -0.017516  -0.037006  0.007124  3.976187  0.01
C  C96  1  0.32776525  0.09609906  0.17946949  1  -0.088759  0.001615  -0.090912  -0.103141  0.0008  4.01931  0.001
C  C97  1  0.17223567  0.59609978  0.32053036  1  -0.088757  0.001615  -0.090902  -0.103088  0.0008  4.019331  0.001
C  C98  1  0.67223430  0.90389957  0.82053011  1  -0.088788  0.001615  -0.090915  -0.103205  0.0008  4.019445  0.001
C  C99  1  0.82776550  0.40390027  0.67947006  1  -0.088777  0.001615  -0.090902  -0.103106  0.0008  4.019379  0.001
C  C100  1  0.43520068  0.09359608  0.21515007  1  -0.087897  0.000775  -0.091065  -0.128422  0.000369  3.957756  0.0
C  C101  1  0.06479943  0.59359688  0.28484969  1  -0.087879  0.000775  -0.091048  -0.128449  0.000369  3.957819  0.0
C  C102  1  0.56479888  0.90640184  0.78485017  1  -0.08788  0.000775  -0.091021  -0.128309  0.000369  3.957749  0.0
C  C103  1  0.93520012  0.40640318  0.71514864  1  -0.087922  0.000775  -0.09105  -0.128371  0.000369  3.957931  0.0
C  C104  1  0.51239065  0.14788172  0.18021113  1  0.027868  0.001609  -0.004799  0.072689  0.000872  3.997773  0.001
C  C105  1  0.98760903  0.64788231  0.31978784  1  0.027827  0.001609  -0.00476  0.072729  0.000871  3.997762  0.001
C  C106  1  0.48760890  0.85211762  0.81978847  1  0.027851  0.00161  -0.004772  0.072675  0.000872  3.997782  0.001
C  C107  1  0.01238891  0.35211917  0.68020968  1  0.027864  0.00161  -0.00482  0.07261  0.000872  3.997971  0.001
C  C108  1  0.47634802  0.20732969  0.11018214  1  -0.017271  0.000568  -0.086893  -0.127807  0.000299  3.975303  0.0
C  C109  1  0.02365121  0.70732898  0.38981742  1  -0.017268  0.000568  -0.086951  -0.127866  0.000299  3.9753  0.0
C  C110  1  0.52365153  0.79266965  0.88981746  1  -0.017253  0.000568  -0.086946  -0.127897  0.000298  3.975306  0.0
C  C111  1  0.97634754  0.29267179  0.61018082  1  -0.017243  0.000568  -0.086909  -0.127834  0.000298  3.975387  0.0
C  C112  1  0.36802697  0.21098641  0.07527390  1  -0.061919  0.001891  -0.088413  -0.102749  0.000986  3.991919  0.001
C  C113  1  0.13197225  0.71098845  0.42472502  1  -0.06186  0.001891  -0.088428  -0.102721  0.000986  3.99189  0.001
C  C114  1  0.63197258  0.78901222  0.92472570  1  -0.061894  0.001891  -0.088411  -0.102694  0.000986  3.99184  0.001
C  C115  1  0.86802650  0.28901232  0.57527385  1  -0.061932  0.001891  -0.088416  -0.102692  0.000986  3.99182  0.001
C  C116  1  0.62782246  0.13923263  0.21431996  1  0.014865  0.004738  -0.003101  0.044831  0.002613  3.980201  0.003
C  C117  1  0.87217723  0.63923259  0.28567966  1  0.015022  0.004738  -0.003098  0.044794  0.002613  3.98023  0.003
C  C118  1  0.37217709  0.86076813  0.78567964  1  0.014997  0.004738  -0.003113  0.044797  0.002613  3.980258  0.003
C  C119  1  0.12782233  0.36076889  0.71431931  1  0.014728  0.004738  -0.003113  0.044813  0.002613  3.980254  0.003
C  C120  1  0.66525437  0.12222806  0.30164130  1  0.012933  0.017246  -0.010992  -0.05465  0.010131  3.93699  0.013
C  C121  1  0.83474613  0.62222955  0.19835842  1  0.012946  0.017245  -0.011029  -0.054628  0.010131  3.936974  0.013
C  C122  1  0.33474599  0.87777199  0.69835902  1  0.012957  0.017246  -0.010983  -0.054607  0.010131  3.936978  0.013
C  C123  1  0.16525342  0.37777264  0.80163992  1  0.012949  0.017246  -0.01096  -0.054597  0.010131  3.937102  0.013
C  C124  1  0.77469905  0.10925053  0.32897520  1  -0.062664  0.001703  -0.085884  -0.146025  0.00077  3.96521  0.001
C  C125  1  0.72530146  0.60925210  0.17102390  1  -0.062667  0.001704  -0.085846  -0.146006  0.00077  3.965072  0.001
C  C126  1  0.22530050  0.89074952  0.67102440  1  -0.062659  0.001703  -0.08585  -0.145972  0.00077  3.965139  0.001
C  C127  1  0.27469890  0.39075009  0.82897453  1  -0.062646  0.001703  -0.085884  -0.146047  0.00077  3.965129  0.001
C  C128  1  0.85169908  0.11346951  0.27288814  1  -0.055286  0.004833  -0.006834  0.040804  0.002615  3.986195  0.003
C  C129  1  0.64830142  0.61346963  0.22711095  1  -0.055296  0.004833  -0.006802  0.040828  0.002615  3.986157  0.003
C  C130  1  0.14829967  0.88653125  0.72711073  1  -0.055284  0.004834  -0.006871  0.040683  0.002615  3.98631  0.003
C  C131  1  0.35170054  0.38652972  0.77288891  1  -0.05528  0.004834  -0.006852  0.04077  0.002615  3.986212  0.003
C  C132  1  0.81442870  0.12965233  0.18541704  1  0.006598  0.01659  -0.009673  -0.053002  0.009768  3.926228  0.013
C  C133  1  0.68557099  0.62965304  0.31458195  1  0.006613  0.01659  -0.009682  -0.052963  0.009767  3.926203  0.013
C  C134  1  0.18557085  0.87034844  0.81458256  1  0.006608  0.016589  -0.009655  -0.052918  0.009767  3.926178  0.013
C  C135  1  0.31442857  0.37034843  0.68541702  1  0.006615  0.01659  -0.00967  -0.052968  0.009768  3.926141  0.013
C  C136  1  0.70483366  0.14248484  0.15803971  1  0.003715  0.002475  -0.084826  -0.145597  0.001339  3.948476  0.001
C  C137  1  0.79516683  0.64248476  0.34195936  1  0.003569  0.002475  -0.084784  -0.145535  0.001339  3.948423  0.001
C  C138  1  0.29516670  0.85751664  0.84195998  1  0.003576  0.002475  -0.084795  -0.145558  0.001339  3.948429  0.001
C  C139  1  0.20483272  0.35751742  0.65803897  1  0.003835  0.002475  -0.084842  -0.145649  0.001339  3.948414  0.001
C  C140  1  0.96696227  0.10637009  0.30743853  1  -0.076796  0.002503  -0.003989  0.075297  0.001337  3.998332  0.001
C  C141  1  0.53303825  0.60636958  0.19256184  1  -0.076837  0.002503  -0.003979  0.075304  0.001337  3.998435  0.001
C  C142  1  0.03303648  0.89363138  0.69256162  1  -0.076908  0.002503  -0.003989  0.075325  0.001336  3.998561  0.001
C  C143  1  0.46696372  0.39362905  0.80743866  1  -0.076906  0.002503  -0.003971  0.075329  0.001336  3.99847  0.001
C  C144  1  0.00413303  0.04655482  0.37695798  1  -0.039485  0.00049  -0.090341  -0.132663  0.000221  3.97972  0.0
C  C145  1  0.49586712  0.54655561  0.12304308  1  -0.039453  0.00049  -0.090353  -0.132648  0.000221  3.979764  0.0
C  C146  1  0.99586653  0.95344594  0.62304288  1  -0.039407  0.00049  -0.090336  -0.132692  0.000221  3.979772  0.0
C  C147  1  0.50413404  0.45344444  0.87695670  1  -0.039389  0.00049  -0.09032  -0.132658  0.000221  3.979712  0.0
C  C148  1  0.11284510  0.04312914  0.41077632  1  -0.032524  0.002616  -0.090041  -0.110918  0.001391  4.0008  0.002
C  C149  1  0.38715425  0.54312930  0.08922656  1  -0.032509  0.002616  -0.090032  -0.110958  0.001391  4.000861  0.002
C  C150  1  0.88715446  0.95687162  0.58922581  1  -0.032533  0.002616  -0.090075  -0.110975  0.001391  4.000866  0.002
C  C151  1  0.61284611  0.45687075  0.91077440  1  -0.032527  0.002616  -0.090067  -0.110974  0.001391  4.000879  0.002
C  C152  1  0.18699840  0.10174536  0.37743485  1  -0.052503  0.012793  -0.016774  -0.027304  0.0075  3.975155  0.01
C  C153  1  0.31300090  0.60174481  0.12256734  1  -0.052505  0.012792  -0.016804  -0.02737  0.007499  3.975137  0.01
C  C154  1  0.81300115  0.89825541  0.62256728  1  -0.052493  0.012793  -0.016788  -0.027358  0.007499  3.975137  0.01
C  C155  1  0.68699946  0.39825383  0.87743298  1  -0.052477  0.012793  -0.016794  -0.027381  0.007499  3.975135  0.01
C  C156  1  0.15062882  0.16060402  0.30795763  1  -0.034855  0.002285  -0.091095  -0.104916  0.001176  4.022474  0.001
C  C157  1  0.34937286  0.66060409  0.19204414  1  -0.034805  0.002285  -0.091099  -0.104872  0.001176  4.022606  0.001
C  C158  1  0.84937315  0.83939603  0.69204414  1  -0.034791  0.002285  -0.091085  -0.104847  0.001176  4.022558  0.001
C  C159  1  0.65062830  0.33939454  0.80795627  1  -0.034881  0.002285  -0.091143  -0.104932  0.001176  4.022582  0.001
C  C160  1  0.04301686  0.16245301  0.27302679  1  -0.008084  0.000633  -0.093858  -0.128114  0.000268  3.96437  0.0
C  C161  1  0.45698400  0.66245229  0.22697299  1  -0.008134  0.000633  -0.093854  -0.128085  0.000268  3.96448  0.0
C  C162  1  0.95698430  0.83754775  0.72697362  1  -0.008138  0.000633  -0.093832  -0.128061  0.000268  3.964484  0.0
C  C163  1  0.54301635  0.33754634  0.77302670  1  -0.008141  0.000633  -0.093805  -0.127993  0.000268  3.964431  0.0
C  C164  1  0.17759365  0.14695063  0.06757282  1  1.572494  -0.002428  0.22481  0.615547  -0.003595  4.151197  -0.003
C  C165  1  0.32240643  0.64695116  0.43242689  1  1.572082  -0.002429  0.224777  0.615473  -0.003595  4.151302  -0.003
C  C166  1  0.82240671  0.85304942  0.93242750  1  1.572378  -0.002428  0.224832  0.615569  -0.003596  4.151194  -0.003
C  C167  1  0.67759313  0.35304889  0.56757335  1  1.572076  -0.002429  0.224786  0.615464  -0.003595  4.151344  -0.003
C  C168  1  0.59361314  0.12262825  0.37048070  1  1.585555  -0.001922  0.219576  0.604097  -0.003058  4.191174  -0.003
C  C169  1  0.90638737  0.62262907  0.12951965  1  1.585513  -0.001922  0.219568  0.604099  -0.003057  4.191222  -0.003
C  C170  1  0.40638722  0.87737180  0.62951962  1  1.58553  -0.001922  0.219533  0.604049  -0.003057  4.191298  -0.003
C  C171  1  0.09361299  0.37737240  0.87047941  1  1.585586  -0.001923  0.219501  0.604047  -0.003057  4.191392  -0.003
C  C172  1  0.30289800  0.10776631  0.41644740  1  1.594034  -0.00195  0.217672  0.597863  -0.002754  4.175902  -0.002
C  C173  1  0.19710210  0.60776869  0.08355488  1  1.594368  -0.001954  0.217684  0.597887  -0.002753  4.175842  -0.002
C  C174  1  0.69710236  0.89223303  0.58355482  1  1.594366  -0.001954  0.217684  0.59785  -0.002753  4.175793  -0.002
C  C175  1  0.80289906  0.39223136  0.91644554  1  1.594379  -0.001954  0.217685  0.59787  -0.002754  4.175718  -0.002
C  C176  1  0.88634965  0.12848369  0.11641768  1  1.570569  -0.002194  0.220821  0.603952  -0.003308  4.180764  -0.003
C  C177  1  0.61365085  0.62848294  0.38358140  1  1.570745  -0.002196  0.220818  0.603906  -0.003309  4.18086  -0.003
C  C178  1  0.11365071  0.87151707  0.88358137  1  1.570555  -0.002194  0.220848  0.603945  -0.003308  4.180802  -0.003
C  C179  1  0.38634950  0.37151640  0.61641766  1  1.57057  -0.002194  0.220814  0.603933  -0.003308  4.180812  -0.003
C  C180  1  0.96806657  0.11843529  0.77706761  1  -0.101719  0.001137  -0.243765  -0.51842  0.000324  3.863095  0.001
C  C181  1  0.53193343  0.61843546  0.72293409  1  -0.101725  0.001137  -0.24377  -0.51845  0.000324  3.863147  0.001
C  C182  1  0.03193299  0.88156476  0.22293325  1  -0.101717  0.001137  -0.243768  -0.51842  0.000324  3.863072  0.001
C  C183  1  0.46806692  0.38156601  0.27706686  1  -0.101518  0.001137  -0.243779  -0.518407  0.000324  3.863099  0.001
C  C184  1  0.89866766  0.11980225  0.84600095  1  1.341551  0.011769  0.263285  0.557202  0.008534  3.937763  0.011
C  C185  1  0.60133154  0.61980318  0.65399940  1  1.341556  0.011769  0.263291  0.557226  0.008534  3.937731  0.011
C  C186  1  0.10133109  0.88019709  0.15399856  1  1.341497  0.011771  0.263283  0.557221  0.008534  3.937612  0.011
C  C187  1  0.39866802  0.38019829  0.34600146  1  1.341566  0.011769  0.263291  0.55721  0.008534  3.937634  0.011
C  C188  1  0.72352049  0.12132706  0.89568387  1  0.230703  -7.1e-05  -0.140664  -0.274222  -0.00029  3.875188  -0.001
C  C189  1  0.77647871  0.62132726  0.60431648  1  0.230705  -7.1e-05  -0.140649  -0.274206  -0.00029  3.875188  -0.001
C  C190  1  0.27647907  0.87867228  0.10431636  1  0.230695  -7.1e-05  -0.140686  -0.274252  -0.00029  3.875215  -0.001
C  C191  1  0.22352004  0.37867208  0.39568367  1  0.23069  -7.1e-05  -0.140667  -0.274222  -0.00029  3.875201  -0.001
C  C192  1  0.73664242  0.12171243  0.73952438  1  0.203439  0.000162  -0.133118  -0.279658  0.000171  3.883446  -0.001
C  C193  1  0.76335758  0.62171246  0.76047542  1  0.203485  0.000162  -0.13314  -0.279672  0.000171  3.883496  -0.001
C  C194  1  0.26335713  0.87828691  0.26047521  1  0.203477  0.000162  -0.1331  -0.279638  0.000171  3.883459  -0.001
C  C195  1  0.23664278  0.37828759  0.23952490  1  0.203471  0.000162  -0.133122  -0.279647  0.000171  3.88349  -0.001
N  N196  1  0.79163194  0.12039230  0.82783890  1  -1.191705  0.036989  -0.261672  0.002479  0.019913  3.617829  0.03
N  N197  1  0.70836726  0.62039387  0.67216145  1  -1.191705  0.036989  -0.261677  0.002501  0.019912  3.617821  0.03
N  N198  1  0.20836681  0.87960562  0.17216124  1  -1.191695  0.03699  -0.261653  0.002587  0.019913  3.617722  0.03
N  N199  1  0.29163230  0.37960618  0.32783879  1  -1.191705  0.036989  -0.261668  0.002492  0.019913  3.617844  0.03
O  O200  1  0.12897416  0.22525631  0.04683977  1  -1.166988  0.063815  -0.320747  -0.592934  0.034868  2.368748  0.06
O  O201  1  0.37102667  0.72525679  0.45316059  1  -1.166994  0.063816  -0.320749  -0.592898  0.034868  2.36873  0.06
O  O202  1  0.87102781  0.77474375  0.95315947  1  -1.167034  0.063814  -0.320753  -0.592935  0.034868  2.368717  0.06
O  O203  1  0.62897128  0.27474326  0.54684073  1  -1.167062  0.063814  -0.320759  -0.592918  0.034868  2.368773  0.06
O  O204  1  0.13947093  0.06389003  0.05727549  1  -1.134556  0.058227  -0.294154  -0.540891  0.031662  2.355642  0.054
O  O205  1  0.36053242  0.56389125  0.44272466  1  -1.134138  0.058227  -0.294136  -0.540843  0.031662  2.355744  0.054
O  O206  1  0.86053024  0.93610931  0.94272619  1  -1.134525  0.058229  -0.294137  -0.54085  0.031664  2.355756  0.054
O  O207  1  0.63946874  0.43610951  0.55727512  1  -1.134139  0.058227  -0.294118  -0.540812  0.031662  2.35578  0.054
O  O208  1  0.55251796  0.20192129  0.38580223  1  -1.138056  0.063221  -0.301564  -0.547474  0.03433  2.388619  0.059
O  O209  1  0.94748248  0.70192069  0.11419805  1  -1.138074  0.063219  -0.301566  -0.547463  0.034329  2.388621  0.059
O  O210  1  0.44748320  0.79807947  0.61419882  1  -1.138067  0.063221  -0.301544  -0.547443  0.03433  2.388632  0.059
O  O211  1  0.05251787  0.29807865  0.88579974  1  -1.138114  0.063223  -0.30151  -0.547428  0.03433  2.388613  0.059
O  O212  1  0.58522510  0.04337642  0.40792145  1  -1.150053  0.06501  -0.322725  -0.581115  0.035399  2.359192  0.061
O  O213  1  0.91477465  0.54337586  0.09208079  1  -1.150027  0.065011  -0.322745  -0.58117  0.0354  2.359199  0.061
O  O214  1  0.41477365  0.95662434  0.59208059  1  -1.150054  0.065008  -0.322723  -0.581125  0.035398  2.359182  0.061
O  O215  1  0.08522570  0.45662348  0.90792017  1  -1.150037  0.065008  -0.322709  -0.581119  0.035398  2.359278  0.061
O  O216  1  0.35326222  0.02986014  0.43224065  1  -1.149423  0.064398  -0.318252  -0.570554  0.035048  2.344109  0.06
O  O217  1  0.14673713  0.52986327  0.06776161  1  -1.149685  0.064398  -0.318262  -0.570554  0.035046  2.344259  0.06
O  O218  1  0.64673814  0.97013992  0.56776221  1  -1.14974  0.0644  -0.318253  -0.570539  0.035047  2.344  0.06
O  O219  1  0.85326483  0.47013820  0.93223826  1  -1.149701  0.064401  -0.318289  -0.570613  0.035047  2.344081  0.06
O  O220  1  0.33762829  0.19216119  0.42917131  1  -1.138686  0.060591  -0.306211  -0.550364  0.032974  2.395558  0.056
O  O221  1  0.16237176  0.69216360  0.07083025  1  -1.138735  0.060592  -0.306197  -0.550333  0.032975  2.395401  0.056
O  O222  1  0.66237288  0.80783815  0.57083164  1  -1.138671  0.060591  -0.306224  -0.550325  0.032974  2.39554  0.056
O  O223  1  0.83762860  0.30783716  0.92917071  1  -1.138744  0.06059  -0.306196  -0.550274  0.032974  2.395404  0.056
O  O224  1  0.91798758  0.04741634  0.09569538  1  -1.12461  0.060377  -0.293789  -0.540126  0.032745  2.346214  0.056
O  O225  1  0.58201458  0.54741488  0.40430333  1  -1.124809  0.060381  -0.293772  -0.540142  0.032746  2.34635  0.056
O  O226  1  0.08201036  0.95258442  0.90430341  1  -1.124618  0.060379  -0.29382  -0.540164  0.032747  2.346258  0.056
O  O227  1  0.41798658  0.45258447  0.59569518  1  -1.124614  0.060381  -0.293771  -0.540126  0.032747  2.346265  0.056
O  O228  1  0.90364171  0.20931861  0.08422396  1  -1.158484  0.062957  -0.320955  -0.591872  0.034424  2.372011  0.059
O  O229  1  0.59635873  0.70931854  0.41577504  1  -1.15846  0.062955  -0.320973  -0.591874  0.034423  2.371942  0.059
O  O230  1  0.09635945  0.79068145  0.91577582  1  -1.158455  0.062957  -0.320967  -0.591885  0.034425  2.371932  0.059
O  O231  1  0.40364163  0.29068151  0.58422401  1  -1.158492  0.062955  -0.32096  -0.591868  0.034423  2.372026  0.059
O  O232  1  0.94428542  0.12201227  0.92430025  1  -1.159238  0.071039  -0.314066  -0.594768  0.038914  2.541325  0.061
O  O233  1  0.55571056  0.62201330  0.57570101  1  -1.159238  0.071038  -0.314045  -0.59475  0.038914  2.541376  0.061
O  O234  1  0.05571253  0.87798707  0.07569981  1  -1.159204  0.071037  -0.314059  -0.594802  0.038914  2.541363  0.061
O  O235  1  0.44428739  0.37798817  0.42429968  1  -1.159246  0.071038  -0.314073  -0.594783  0.038914  2.541289  0.061
O  O236  1  0.01287589  0.37162767  0.06633674  1  -1.196119  0.09706  -0.529461  -0.745544  0.055487  2.3707  0.086
O  O237  1  0.48712403  0.87162955  0.43366402  1  -1.196222  0.097062  -0.529393  -0.74535  0.055486  2.370617  0.086
O  O238  1  0.98712607  0.62837238  0.93366503  1  -1.196145  0.097062  -0.529387  -0.745385  0.055488  2.37063  0.086
O  O239  1  0.51287633  0.12837121  0.56633631  1  -1.196173  0.097063  -0.529396  -0.745405  0.055488  2.37063  0.086
