# generated using pymatgen
data_SrH12(C2O)4
_symmetry_space_group_name_H-M   'P 1'
_cell_length_a   5.70074904
_cell_length_b   6.45464514
_cell_length_c   12.44951797
_cell_angle_alpha   93.13147583
_cell_angle_beta   103.83605991
_cell_angle_gamma   93.12072087
_symmetry_Int_Tables_number   1
_chemical_formula_structural   SrH12(C2O)4
_chemical_formula_sum   'Sr2 H24 C16 O8'
_cell_volume   443.06220928
_cell_formula_units_Z   2
loop_
 _symmetry_equiv_pos_site_id
 _symmetry_equiv_pos_as_xyz
  1  'x, y, z'
loop_
 _atom_site_type_symbol
 _atom_site_label
 _atom_site_symmetry_multiplicity
 _atom_site_fract_x
 _atom_site_fract_y
 _atom_site_fract_z
 _atom_site_occupancy
 _atom_site_hle17_bader_spin_density
 _atom_site_hle17_ddec_charge
 _atom_site_hle17_ddec_spin_density
 _atom_site_hle17_ddec_sum_bond_order
 _atom_site_hle17_magmom
 _atom_site_hse06_10hf_bader_spin_density
 _atom_site_hse06_10hf_ddec_charge
 _atom_site_hse06_10hf_ddec_spin_density
 _atom_site_hse06_10hf_ddec_sum_bond_order
 _atom_site_hse06_10hf_magmom
 _atom_site_hse06_bader_spin_density
 _atom_site_hse06_ddec_charge
 _atom_site_hse06_ddec_spin_density
 _atom_site_hse06_ddec_sum_bond_order
 _atom_site_hse06_magmom
 _atom_site_pbe_bader_spin_density
 _atom_site_pbe_cm5_charge
 _atom_site_pbe_ddec_charge
 _atom_site_pbe_ddec_spin_density
 _atom_site_pbe_ddec_sum_bond_order
 _atom_site_pbe_magmom
Sr  Sr0  1  0.74961423  0.74953349  0.99996184  1  0  1.620915  0  1.107366  0  0  1.478764  0  1.474293  0  0  1.517987  0  1.429664  0  0  0.997878  1.448727  0  1.507023  0
Sr  Sr1  1  0.25038136  0.25046403  0.00003731  1  0  1.621006  0  1.107431  0  0  1.478943  0  1.474266  0  0  1.518153  0  1.429652  0  0  0.99806  1.448956  0  1.506918  0
H  H2  1  0.41271576  0.16643409  0.69244843  1  0  0.089469  0  0.947114  0  0  0.104665  0  1.011941  0  0  0.106532  0  1.010928  0  0  0.097071  0.103081  0  1.013302  0
H  H3  1  0.58730654  0.83350986  0.30754724  1  0  0.089482  0  0.946926  0  0  0.104741  0  1.011814  0  0  0.106637  0  1.01077  0  0  0.097004  0.103114  0  1.013204  0
H  H4  1  0.61700472  0.37475579  0.75695455  1  0  0.117774  0  0.950519  0  0  0.129684  0  1.018359  0  0  0.132664  0  1.016581  0  0  0.112663  0.127474  0  1.01991  0
H  H5  1  0.38296431  0.62522801  0.24304963  1  0  0.117835  0  0.950315  0  0  0.129777  0  1.018227  0  0  0.132754  0  1.016451  0  0  0.112683  0.127558  0  1.019774  0
H  H6  1  0.75677861  0.99751061  0.62973842  1  0  0.053378  0  0.953037  0  0  0.072829  0  1.017737  0  0  0.072907  0  1.018961  0  0  0.086529  0.072676  0  1.017072  0
H  H7  1  0.24324864  0.00249491  0.37024492  1  0  0.053499  0  0.95286  0  0  0.072941  0  1.017558  0  0  0.073017  0  1.018775  0  0  0.086528  0.072787  0  1.016892  0
H  H8  1  0.95199304  0.21512217  0.69006722  1  0  0.062596  0  0.934962  0  0  0.083251  0  0.994772  0  0  0.084143  0  0.99477  0  0  0.094035  0.08239  0  0.9953  0
H  H9  1  0.04800567  0.78488479  0.30994685  1  0  0.062682  0  0.934993  0  0  0.083272  0  0.994849  0  0  0.084158  0  0.994851  0  0  0.094076  0.082413  0  0.995374  0
H  H10  1  0.69162053  0.44526401  0.56330198  1  0  0.055165  0  0.955733  0  0  0.075951  0  1.018125  0  0  0.076168  0  1.019395  0  0  0.085894  0.075732  0  1.017359  0
H  H11  1  0.30838187  0.55473699  0.43672436  1  0  0.055223  0  0.955661  0  0  0.075951  0  1.01811  0  0  0.076164  0  1.019377  0  0  0.085902  0.075732  0  1.017349  0
H  H12  1  0.48455348  0.23276905  0.50725965  1  0  0.050848  0  0.948736  0  0  0.070298  0  1.014388  0  0  0.07094  0  1.014514  0  0  0.083174  0.069579  0  1.014886  0
H  H13  1  0.51542872  0.76726115  0.49274046  1  0  0.050923  0  0.948765  0  0  0.070342  0  1.014413  0  0  0.070992  0  1.014522  0  0  0.083188  0.069644  0  1.014887  0
H  H14  1  0.80647526  0.05660470  0.43729548  1  0  0.054612  0  0.956308  0  0  0.074886  0  1.019613  0  0  0.075071  0  1.020848  0  0  0.085607  0.074689  0  1.018863  0
H  H15  1  0.19353650  0.94341274  0.56270886  1  0  0.054689  0  0.956158  0  0  0.074912  0  1.019467  0  0  0.075099  0  1.020705  0  0  0.085643  0.074717  0  1.018716  0
H  H16  1  0.01548558  0.26721164  0.49399946  1  0  0.05049  0  0.950906  0  0  0.070355  0  1.016395  0  0  0.070975  0  1.016502  0  0  0.083423  0.06966  0  1.016885  0
H  H17  1  0.98449343  0.73282027  0.50600520  1  0  0.050585  0  0.950996  0  0  0.070359  0  1.016538  0  0  0.070978  0  1.016649  0  0  0.083394  0.069666  0  1.017028  0
H  H18  1  0.75250685  0.50575331  0.37087661  1  0  0.054024  0  0.953635  0  0  0.073986  0  1.017039  0  0  0.074045  0  1.018298  0  0  0.086909  0.073838  0  1.016356  0
H  H19  1  0.24747589  0.49425317  0.62910855  1  0  0.05409  0  0.953485  0  0  0.074038  0  1.017  0  0  0.074103  0  1.018248  0  0  0.08687  0.073864  0  1.016351  0
H  H20  1  0.54953343  0.29238867  0.31143164  1  0  0.062909  0  0.934484  0  0  0.083321  0  0.994116  0  0  0.084235  0  0.994061  0  0  0.093989  0.082429  0  0.994704  0
H  H21  1  0.45046856  0.70762557  0.68856363  1  0  0.062882  0  0.934492  0  0  0.08333  0  0.994169  0  0  0.084247  0  0.994113  0  0  0.09404  0.08244  0  0.994753  0
H  H22  1  0.87204223  0.12231753  0.24161378  1  0  0.117046  0  0.950245  0  0  0.129053  0  1.01803  0  0  0.132085  0  1.016159  0  0  0.112362  0.126725  0  1.019707  0
H  H23  1  0.12794047  0.87767999  0.75838644  1  0  0.117145  0  0.95029  0  0  0.129112  0  1.018074  0  0  0.132146  0  1.016199  0  0  0.112416  0.126781  0  1.019755  0
H  H24  1  0.08806846  0.32334694  0.30625631  1  0  0.089713  0  0.945662  0  0  0.104943  0  1.010388  0  0  0.106896  0  1.009256  0  0  0.097343  0.103252  0  1.011853  0
H  H25  1  0.91193567  0.67664576  0.69374993  1  0  0.089861  0  0.945654  0  0  0.105014  0  1.010386  0  0  0.106965  0  1.009256  0  0  0.097413  0.103327  0  1.011841  0
C  C26  1  0.66849573  0.09923529  0.83836202  1  0  0.742134  0  3.825302  0  0  0.696888  0  4.11988  0  0  0.730764  0  4.110387  0  0  0.229657  0.673666  0  4.125352  0
C  C27  1  0.33153494  0.90076880  0.16161657  1  0  0.742516  0  3.825784  0  0  0.697198  0  4.120612  0  0  0.73106  0  4.111119  0  0  0.229704  0.673977  0  4.126074  0
C  C28  1  0.60500598  0.20769268  0.73156906  1  0  -0.279658  0  3.679935  0  0  -0.318676  0  3.931244  0  0  -0.3246  0  3.939371  0  0  -0.162083  -0.314461  0  3.925532  0
C  C29  1  0.39501975  0.79229001  0.26842221  1  0  -0.279641  0  3.679041  0  0  -0.319027  0  3.931033  0  0  -0.32497  0  3.939136  0  0  -0.162116  -0.314749  0  3.925266  0
C  C30  1  0.76147623  0.16596629  0.65022970  1  0  -0.072729  0  3.692723  0  0  -0.115223  0  3.951664  0  0  -0.115251  0  3.966282  0  0  -0.163492  -0.11485  0  3.941194  0
C  C31  1  0.23852749  0.83404115  0.34974309  1  0  -0.072809  0  3.692526  0  0  -0.115252  0  3.951679  0  0  -0.115272  0  3.966279  0  0  -0.163483  -0.114887  0  3.941201  0
C  C32  1  0.67861348  0.27594902  0.54352533  1  0  -0.107235  0  3.689991  0  0  -0.146819  0  3.948659  0  0  -0.148058  0  3.964353  0  0  -0.166914  -0.145595  0  3.937307  0
C  C33  1  0.32137322  0.72407626  0.45646708  1  0  -0.107458  0  3.690102  0  0  -0.146958  0  3.948615  0  0  -0.14819  0  3.964277  0  0  -0.166993  -0.145757  0  3.93728  0
C  C34  1  0.82135149  0.22594187  0.45721304  1  0  -0.106147  0  3.690485  0  0  -0.146828  0  3.949791  0  0  -0.147926  0  3.965327  0  0  -0.167371  -0.145711  0  3.938537  0
C  C35  1  0.17862528  0.77406821  0.54278848  1  0  -0.106399  0  3.690216  0  0  -0.146878  0  3.949353  0  0  -0.147988  0  3.964898  0  0  -0.167328  -0.145759  0  3.9381  0
C  C36  1  0.74152270  0.33681675  0.35063018  1  0  -0.075473  0  3.693902  0  0  -0.117263  0  3.952164  0  0  -0.117274  0  3.966699  0  0  -0.164139  -0.116908  0  3.941698  0
C  C37  1  0.25847901  0.66318246  0.64938642  1  0  -0.07538  0  3.693375  0  0  -0.117393  0  3.951752  0  0  -0.117408  0  3.966291  0  0  -0.164156  -0.117026  0  3.941289  0
C  C38  1  0.89393532  0.28926965  0.26817076  1  0  -0.278538  0  3.679959  0  0  -0.318238  0  3.930813  0  0  -0.324167  0  3.938824  0  0  -0.161776  -0.313868  0  3.925019  0
C  C39  1  0.10606398  0.71072336  0.73184545  1  0  -0.278746  0  3.680284  0  0  -0.318259  0  3.931097  0  0  -0.32419  0  3.939094  0  0  -0.161778  -0.313869  0  3.925288  0
C  C40  1  0.83325525  0.40079967  0.16234167  1  0  0.741799  0  3.826473  0  0  0.696835  0  4.120877  0  0  0.730687  0  4.111442  0  0  0.229792  0.67361  0  4.126295  0
C  C41  1  0.16672919  0.59920079  0.83765236  1  0  0.741927  0  3.825946  0  0  0.696903  0  4.120369  0  0  0.730771  0  4.110911  0  0  0.229694  0.673654  0  4.125816  0
O  O42  1  0.88535639  0.04933356  0.87673506  1  0  -0.765265  0  1.966584  0  0  -0.697266  0  2.214872  0  0  -0.724122  0  2.203497  0  0  -0.403603  -0.67789  0  2.222382  0
O  O43  1  0.11471393  0.95065663  0.12327043  1  0  -0.765577  0  1.96693  0  0  -0.697395  0  2.215091  0  0  -0.724242  0  2.203703  0  0  -0.403703  -0.678029  0  2.222616  0
O  O44  1  0.50209138  0.05864807  0.88833675  1  0  -0.756423  0  1.962093  0  0  -0.694176  0  2.211314  0  0  -0.720428  0  2.199916  0  0  -0.392675  -0.675264  0  2.218857  0
O  O45  1  0.49787283  0.94139280  0.11164415  1  0  -0.756533  0  1.963093  0  0  -0.694209  0  2.212365  0  0  -0.720462  0  2.20097  0  0  -0.392611  -0.675302  0  2.219913  0
O  O46  1  0.00112162  0.44273157  0.11348547  1  0  -0.754955  0  1.958497  0  0  -0.692782  0  2.207148  0  0  -0.718945  0  2.19571  0  0  -0.390383  -0.673961  0  2.214765  0
O  O47  1  0.99888181  0.55720706  0.88653634  1  0  -0.755201  0  1.958211  0  0  -0.693009  0  2.206883  0  0  -0.719183  0  2.195436  0  0  -0.39037  -0.674171  0  2.214513  0
O  O48  1  0.61659536  0.45126384  0.12367023  1  0  -0.76658  0  1.965464  0  0  -0.698498  0  2.213427  0  0  -0.725383  0  2.202047  0  0  -0.403974  -0.679107  0  2.220979  0
O  O49  1  0.38338773  0.54872788  0.87634757  1  0  -0.76647  0  1.964984  0  0  -0.698393  0  2.212976  0  0  -0.725282  0  2.201589  0  0  -0.403993  -0.678993  0  2.220535  0
