# generated using pymatgen
data_Cd3H50C64N4O19
_symmetry_space_group_name_H-M   'P 1'
_cell_length_a   16.59591154
_cell_length_b   18.07307738
_cell_length_c   18.07305024
_cell_angle_alpha   67.62344291
_cell_angle_beta   72.14497214
_cell_angle_gamma   72.14493351
_symmetry_Int_Tables_number   1
_chemical_formula_structural   Cd3H50C64N4O19
_chemical_formula_sum   'Cd6 H100 C128 N8 O38'
_cell_volume   4658.84916830
_cell_formula_units_Z   2
loop_
 _symmetry_equiv_pos_site_id
 _symmetry_equiv_pos_as_xyz
  1  'x, y, z'
loop_
 _atom_site_type_symbol
 _atom_site_label
 _atom_site_symmetry_multiplicity
 _atom_site_fract_x
 _atom_site_fract_y
 _atom_site_fract_z
 _atom_site_occupancy
 _atom_site_pbe_bader_charge
 _atom_site_pbe_bader_spin_density
 _atom_site_pbe_cm5_charge
 _atom_site_pbe_ddec_charge
 _atom_site_pbe_ddec_spin_density
 _atom_site_pbe_ddec_sum_bond_order
 _atom_site_pbe_magmom
Cd  Cd0  1  0.49999980  0.49999822  0.99999889  1  1.385767  0  0.799658  1.110984  0  2.169615  0
Cd  Cd1  1  0.00000569  0.00000308  0.49999792  1  1.385635  0  0.799622  1.110966  0  2.169681  0
Cd  Cd2  1  0.55972372  0.64003610  0.81064099  1  1.265257  0  0.775062  0.920582  0  2.172261  0
Cd  Cd3  1  0.94027395  0.18935756  0.35996445  1  1.265286  0  0.775052  0.920574  0  2.172301  0
Cd  Cd4  1  0.44027528  0.35996517  0.18935663  1  1.265341  0  0.77506  0.920626  0  2.172258  0
Cd  Cd5  1  0.05972152  0.81064246  0.64003794  1  1.26533  0  0.775095  0.920687  0  2.172235  0
H  H6  1  0.84255833  0.89798758  0.10967564  1  0.033377  0  0.10041  0.067657  0  0.977897  0
H  H7  1  0.65744185  0.89032529  0.10201266  1  0.033369  0  0.100375  0.067572  0  0.977904  0
H  H8  1  0.15744256  0.10201367  0.89032368  1  0.033423  0  0.100364  0.067568  0  0.977909  0
H  H9  1  0.34255981  0.10967534  0.89798724  1  0.033363  0  0.100425  0.067649  0  0.977907  0
H  H10  1  0.81618797  0.85124611  0.05090736  1  0.057829  0  0.101018  0.069996  0  0.976562  0
H  H11  1  0.68381016  0.94909458  0.14875412  1  0.057795  0  0.100996  0.069957  0  0.976559  0
H  H12  1  0.18380975  0.14875512  0.94909450  1  0.057945  0  0.100993  0.069949  0  0.976557  0
H  H13  1  0.31618792  0.05090790  0.85124552  1  0.057854  0  0.10099  0.069906  0  0.976526  0
H  H14  1  0.92380935  0.63529847  0.15590093  1  0.052304  0  0.101525  0.071405  0  0.984211  0
H  H15  1  0.57619036  0.84410216  0.36470168  1  0.052303  0  0.10152  0.071422  0  0.984196  0
H  H16  1  0.07619231  0.36470215  0.84409952  1  0.052311  0  0.101522  0.071415  0  0.984167  0
H  H17  1  0.42380850  0.15589970  0.63529853  1  0.052307  0  0.10152  0.071414  0  0.984185  0
H  H18  1  0.81150565  0.68696844  0.16840459  1  0.063259  0  0.104812  0.072996  0  1.010797  0
H  H19  1  0.68849401  0.83159513  0.31303149  1  0.063271  0  0.104804  0.07296  0  1.010839  0
H  H20  1  0.18849489  0.31303159  0.83159529  1  0.063307  0  0.104822  0.073024  0  1.010753  0
H  H21  1  0.31150541  0.16840429  0.68696781  1  0.063215  0  0.10482  0.073004  0  1.010758  0
H  H22  1  0.97516155  0.79595327  0.00990624  1  0.048693  0  0.106295  0.07628  0  0.993065  0
H  H23  1  0.52483734  0.99009419  0.20404741  1  0.04867  0  0.106288  0.076268  0  0.993102  0
H  H24  1  0.02483913  0.20404614  0.99009328  1  0.048677  0  0.106262  0.076236  0  0.993138  0
H  H25  1  0.47516229  0.00990705  0.79595226  1  0.048641  0  0.106288  0.076288  0  0.993082  0
H  H26  1  0.99863512  0.83912536  0.07371324  1  0.062884  0  0.105077  0.07479  0  0.981774  0
H  H27  1  0.50136323  0.92628829  0.16087515  1  0.062883  0  0.105091  0.074769  0  0.981736  0
H  H28  1  0.00136169  0.16087712  0.92628619  1  0.063176  0  0.105096  0.074808  0  0.981747  0
H  H29  1  0.49863563  0.07371357  0.83912451  1  0.06289  0  0.105091  0.074821  0  0.981748  0
H  H30  1  0.84804466  0.73932378  0.26528827  1  0.045042  0  0.10152  0.068548  0  0.99435  0
H  H31  1  0.65195386  0.73471290  0.26067780  1  0.04507  0  0.101543  0.068547  0  0.994383  0
H  H32  1  0.15195370  0.26067747  0.73471175  1  0.045064  0  0.101518  0.068512  0  0.994388  0
H  H33  1  0.34804640  0.26528835  0.73932114  1  0.045059  0  0.101526  0.068534  0  0.994369  0
H  H34  1  0.96114755  0.69480829  0.23698002  1  0.05786  0  0.105999  0.074102  0  0.987215  0
H  H35  1  0.53885096  0.76302135  0.30519146  1  0.057826  0  0.105972  0.074067  0  0.987172  0
H  H36  1  0.03885143  0.30519295  0.76302039  1  0.058116  0  0.105997  0.074098  0  0.987206  0
H  H37  1  0.46114881  0.23697929  0.69480729  1  0.058135  0  0.106006  0.074121  0  0.987223  0
H  H38  1  0.78457937  0.58938083  0.15008830  1  0.050623  0  0.099474  0.109602  0  1.017116  0
H  H39  1  0.71542231  0.84991110  0.41061800  1  0.05062  0  0.099486  0.109639  0  1.017078  0
H  H40  1  0.21542003  0.41061858  0.84991267  1  0.050573  0  0.099477  0.10963  0  1.017114  0
H  H41  1  0.28457929  0.15008710  0.58938005  1  0.050583  0  0.099492  0.109664  0  1.017104  0
H  H42  1  0.68862624  0.54325666  0.10272214  1  0.094202  0  0.102879  0.104165  0  1.015845  0
H  H43  1  0.81137571  0.89727727  0.45674276  1  0.094061  0  0.102881  0.104203  0  1.015768  0
H  H44  1  0.31137316  0.45674274  0.89727884  1  0.094126  0  0.102892  0.104211  0  1.015817  0
H  H45  1  0.18862561  0.10272214  0.54325658  1  0.094062  0  0.10288  0.104177  0  1.0158  0
H  H46  1  0.77320700  0.69045552  0.85539944  1  0.099029  0  0.101829  0.105326  0  1.017157  0
H  H47  1  0.72679298  0.14460011  0.30954568  1  0.099036  0  0.101816  0.105298  0  1.017142  0
H  H48  1  0.22679318  0.30954327  0.14460099  1  0.099011  0  0.101845  0.105324  0  1.017217  0
H  H49  1  0.27320516  0.85539930  0.69045509  1  0.099019  0  0.101825  0.105308  0  1.017162  0
H  H50  1  0.86573063  0.74227403  0.90185153  1  0.097441  0  0.103231  0.122333  0  1.010224  0
H  H51  1  0.63426923  0.09814865  0.25772657  1  0.097441  0  0.103228  0.122308  0  1.010234  0
H  H52  1  0.13426829  0.25772477  0.09814925  1  0.097391  0  0.103258  0.122363  0  1.010191  0
H  H53  1  0.36573109  0.90184954  0.74227405  1  0.097433  0  0.10325  0.122346  0  1.010183  0
H  H54  1  0.09956473  0.82667088  0.94457204  1  0.057978  0  0.102542  0.114313  0  1.017607  0
H  H55  1  0.40043410  0.05542864  0.17333054  1  0.058025  0  0.102538  0.114302  0  1.017536  0
H  H56  1  0.90043539  0.17333098  0.05542837  1  0.058023  0  0.102548  0.114321  0  1.017555  0
H  H57  1  0.59956552  0.94457260  0.82667025  1  0.058023  0  0.102527  0.114264  0  1.017589  0
H  H58  1  0.24848516  0.81084198  0.85910842  1  0.09355  0  0.10265  0.104676  0  1.01214  0
H  H59  1  0.25151364  0.14089178  0.18915891  1  0.093555  0  0.102656  0.104688  0  1.012087  0
H  H60  1  0.75151398  0.18915866  0.14089162  1  0.093561  0  0.10266  0.10469  0  1.01208  0
H  H61  1  0.74848648  0.85911008  0.81084040  1  0.093597  0  0.102642  0.104667  0  1.012088  0
H  H62  1  0.33047443  0.58886397  0.04653221  1  0.135287  0  0.101652  0.108305  0  1.050452  0
H  H63  1  0.16952519  0.95346864  0.41113590  1  0.135269  0  0.101654  0.108303  0  1.050501  0
H  H64  1  0.66952498  0.41113545  0.95346709  1  0.135292  0  0.101669  0.108374  0  1.050492  0
H  H65  1  0.83047430  0.04653322  0.58886358  1  0.135188  0  0.101667  0.108352  0  1.050469  0
H  H66  1  0.18082664  0.60111761  0.13008931  1  0.099898  0  0.109188  0.127288  0  0.978924  0
H  H67  1  0.31917142  0.86991140  0.39888362  1  0.099802  0  0.109189  0.127265  0  0.978982  0
H  H68  1  0.81917221  0.39888425  0.86991090  1  0.099793  0  0.109222  0.127294  0  0.978955  0
H  H69  1  0.68082744  0.13009046  0.60111604  1  0.099884  0  0.109269  0.127355  0  0.978987  0
H  H70  1  0.99722647  0.92661109  0.22791719  1  0.083102  0  0.106797  0.119966  0  0.985745  0
H  H71  1  0.50277324  0.77208216  0.07338917  1  0.083108  0  0.106767  0.119908  0  0.985809  0
H  H72  1  0.00277407  0.07338894  0.77208213  1  0.083148  0  0.106787  0.119964  0  0.985775  0
H  H73  1  0.49722554  0.22791725  0.92661086  1  0.083093  0  0.106796  0.119978  0  0.985755  0
H  H74  1  0.04396222  0.92445577  0.34795003  1  0.101511  0  0.105926  0.112321  0  1.008249  0
H  H75  1  0.45603804  0.65204956  0.07554434  1  0.10151  0  0.105927  0.112324  0  1.00825  0
H  H76  1  0.95603923  0.07554303  0.65204950  1  0.101495  0  0.105889  0.112273  0  1.008281  0
H  H77  1  0.54396101  0.34794863  0.92445608  1  0.101553  0  0.105916  0.112342  0  1.008232  0
H  H78  1  0.96182863  0.69821403  0.49001011  1  0.100697  0  0.104684  0.109105  0  0.992633  0
H  H79  1  0.53817244  0.50999024  0.30178651  1  0.100693  0  0.104708  0.109142  0  0.992642  0
H  H80  1  0.03817219  0.30178478  0.50998904  1  0.100782  0  0.104688  0.109125  0  0.992637  0
H  H81  1  0.46182774  0.49000856  0.69821392  1  0.100684  0  0.104713  0.10914  0  0.992639  0
H  H82  1  0.91626126  0.69849741  0.37106261  1  0.058221  0  0.099721  0.108116  0  1.023015  0
H  H83  1  0.58373877  0.62893822  0.30150228  1  0.058231  0  0.099727  0.10811  0  1.023049  0
H  H84  1  0.08373725  0.30150323  0.62893649  1  0.058265  0  0.099688  0.108067  0  1.023088  0
H  H85  1  0.41626114  0.37106181  0.69849722  1  0.058244  0  0.099712  0.108086  0  1.02306  0
H  H86  1  0.48259788  0.79815340  0.67180882  1  0.146914  0  0.144044  0.118551  0  0.9947  0
H  H87  1  0.01740597  0.32819090  0.20184693  1  0.147305  0  0.144061  0.11854  0  0.994566  0
H  H88  1  0.51740617  0.20184783  0.32819240  1  0.147249  0  0.144069  0.118524  0  0.994618  0
H  H89  1  0.98259484  0.67180789  0.79815444  1  0.147296  0  0.144076  0.118556  0  0.994619  0
H  H90  1  0.70598111  0.89881261  0.59474593  1  0.169664  0  0.130493  0.134391  0  1.007622  0
H  H91  1  0.79402097  0.40525336  0.10118675  1  0.169505  0  0.130483  0.134383  0  1.007635  0
H  H92  1  0.29402568  0.10118496  0.40525258  1  0.169488  0  0.130459  0.134335  0  1.007701  0
H  H93  1  0.20597703  0.59474665  0.89881494  1  0.169497  0  0.130503  0.134396  0  1.00767  0
H  H94  1  0.73025712  0.75008538  0.71911780  1  0.134379  0  0.128033  0.128591  0  0.9894  0
H  H95  1  0.76974281  0.28088272  0.24991389  1  0.134383  0  0.128016  0.128599  0  0.98941  0
H  H96  1  0.26974573  0.24991279  0.28088379  1  0.134438  0  0.128  0.128573  0  0.989374  0
H  H97  1  0.23025561  0.71911547  0.75008726  1  0.134442  0  0.128035  0.128653  0  0.989384  0
H  H98  1  0.47983678  0.85955726  0.53244412  1  0.082125  0  0.114446  0.118239  0  0.987075  0
H  H99  1  0.02016263  0.46755608  0.14044263  1  0.082114  0  0.11445  0.118277  0  0.987028  0
H  H100  1  0.52016509  0.14043969  0.46755709  1  0.081704  0  0.114415  0.118253  0  0.98708  0
H  H101  1  0.97983677  0.53244332  0.85955946  1  0.08214  0  0.114376  0.1181  0  0.987186  0
H  H102  1  0.59575894  0.02383771  0.56772440  1  0.094268  0  0.112093  0.119066  0  1.007382  0
H  H103  1  0.90424212  0.43227675  0.97616112  1  0.09429  0  0.112112  0.119052  0  1.007401  0
H  H104  1  0.40424391  0.97616046  0.43227663  1  0.094341  0  0.112093  0.119044  0  1.007438  0
H  H105  1  0.09575679  0.56772204  0.02384133  1  0.09436  0  0.11211  0.119063  0  1.007392  0
C  C106  1  0.89936079  0.76728563  0.13409901  1  0.050149  0  -0.020444  0.046646  0  3.816943  0
C  C107  1  0.60063823  0.86590271  0.23271437  1  0.050176  0  -0.020431  0.046686  0  3.8168  0
C  C108  1  0.10063771  0.23271501  0.86590120  1  0.050018  0  -0.020382  0.046787  0  3.816651  0
C  C109  1  0.39936140  0.13409854  0.76728474  1  0.049972  0  -0.020382  0.046724  0  3.816949  0
C  C110  1  0.82599191  0.84237404  0.11177805  1  0.445405  0  -0.064924  -0.020691  0  3.890155  0
C  C111  1  0.67400720  0.88822342  0.15762659  1  0.445147  0  -0.064841  -0.020492  0  3.889934  0
C  C112  1  0.17400820  0.15762782  0.88822237  1  0.445255  0  -0.064829  -0.020497  0  3.889928  0
C  C113  1  0.32599278  0.11177904  0.84237363  1  0.445417  0  -0.064889  -0.020554  0  3.890039  0
C  C114  1  0.87723095  0.69172328  0.13159425  1  0.415042  0  -0.061744  -0.021171  0  3.859564  0
C  C115  1  0.62276885  0.86840654  0.30827692  1  0.415042  0  -0.061724  -0.021123  0  3.859571  0
C  C116  1  0.12276910  0.30827614  0.86840544  1  0.414979  0  -0.061726  -0.021168  0  3.859413  0
C  C117  1  0.37723042  0.13159348  0.69172386  1  0.415096  0  -0.061753  -0.021185  0  3.859536  0
C  C118  1  0.98297880  0.78500895  0.07173879  1  0.443842  0  -0.063173  -0.025752  0  3.875256  0
C  C119  1  0.51702049  0.92826200  0.21499157  1  0.444114  0  -0.063153  -0.025677  0  3.87523  0
C  C120  1  0.01701969  0.21499169  0.92826142  1  0.443711  0  -0.063181  -0.025785  0  3.875203  0
C  C121  1  0.48297913  0.07173924  0.78500866  1  0.444057  0  -0.063199  -0.025828  0  3.875327  0
C  C122  1  0.90943217  0.74960772  0.22111473  1  0.430775  0  -0.063216  -0.022666  0  3.871496  0
C  C123  1  0.59056785  0.77888572  0.25039346  1  0.430798  0  -0.063209  -0.022634  0  3.871444  0
C  C124  1  0.09056682  0.25039353  0.77888567  1  0.430285  0  -0.06317  -0.022603  0  3.871531  0
C  C125  1  0.40943269  0.22111430  0.74960587  1  0.4305  0  -0.063239  -0.022706  0  3.871616  0
C  C126  1  0.83030579  0.66992089  0.02871990  1  0.446697  0  0.083038  0.266879  0  4.059847  0
C  C127  1  0.66969606  0.97128047  0.33007743  1  0.44672  0  0.083085  0.266908  0  4.059874  0
C  C128  1  0.16969530  0.33007668  0.97128129  1  0.446659  0  0.083095  0.266977  0  4.05981  0
C  C129  1  0.33030462  0.02871895  0.66992097  1  0.446727  0  0.083065  0.266977  0  4.059802  0
C  C130  1  0.78201463  0.61259900  0.08553741  1  -0.053764  0  -0.117419  -0.230977  0  4.020099  0
C  C131  1  0.71798715  0.91446218  0.38739991  1  -0.053727  0  -0.117437  -0.231083  0  4.02007  0
C  C132  1  0.21798604  0.38740041  0.91446322  1  -0.053814  0  -0.11741  -0.231011  0  4.020132  0
C  C133  1  0.28201304  0.08553663  0.61259886  1  -0.053822  0  -0.117427  -0.231121  0  4.020139  0
C  C134  1  0.72911621  0.58543958  0.05884919  1  -0.003862  0  -0.086528  -0.070109  0  4.01009  0
C  C135  1  0.77088184  0.94115114  0.41456292  1  -0.003775  0  -0.086486  -0.070014  0  4.010031  0
C  C136  1  0.27088074  0.41456228  0.94115211  1  -0.003642  0  -0.086507  -0.070102  0  4.010103  0
C  C137  1  0.22911694  0.05884828  0.58543767  1  -0.003637  0  -0.086504  -0.070001  0  4.010072  0
C  C138  1  0.72541320  0.61298692  0.97616735  1  -0.042015  0  -0.035171  -0.071439  0  3.995218  0
C  C139  1  0.77458765  0.02383053  0.38701278  1  -0.042071  0  -0.035251  -0.071661  0  3.995326  0
C  C140  1  0.27458586  0.38701128  0.02383251  1  -0.042009  0  -0.035225  -0.071554  0  3.995343  0
C  C141  1  0.22541127  0.97616827  0.61298856  1  -0.042186  0  -0.03522  -0.071629  0  3.995424  0
C  C142  1  0.77622205  0.66876815  0.91976584  1  -0.07135  0  -0.088894  -0.074704  0  4.005914  0
C  C143  1  0.72377783  0.08023437  0.33123291  1  -0.071356  0  -0.088869  -0.074591  0  4.005785  0
C  C144  1  0.22377701  0.33123003  0.08023569  1  -0.071387  0  -0.088895  -0.074675  0  4.006074  0
C  C145  1  0.27622017  0.91976565  0.66876822  1  -0.071368  0  -0.088889  -0.074667  0  4.005908  0
C  C146  1  0.82799612  0.69743770  0.94534603  1  -0.017858  0  -0.110036  -0.218482  0  4.013293  0
C  C147  1  0.67200433  0.05465476  0.30256206  1  -0.017855  0  -0.1101  -0.218491  0  4.013281  0
C  C148  1  0.17200357  0.30256048  0.05465588  1  -0.017898  0  -0.110152  -0.218601  0  4.01334  0
C  C149  1  0.32799572  0.94534466  0.69743762  1  -0.017832  0  -0.110106  -0.218519  0  4.013186  0
C  C150  1  0.66513263  0.58798161  0.94757287  1  1.569311  0  0.207544  0.59809  0  4.201309  0
C  C151  1  0.83486653  0.05242576  0.41201862  1  1.569354  0  0.207596  0.598265  0  4.201372  0
C  C152  1  0.33486453  0.41201658  0.05242808  1  1.569259  0  0.207516  0.598129  0  4.201529  0
C  C153  1  0.16513133  0.94757487  0.58798344  1  1.569478  0  0.207617  0.598334  0  4.201286  0
C  C154  1  0.13079970  0.71375491  0.04259803  1  0.402188  0  0.085083  0.262865  0  4.077287  0
C  C155  1  0.36919919  0.95740212  0.28624585  1  0.402245  0  0.085053  0.262813  0  4.07736  0
C  C156  1  0.86920013  0.28624817  0.95740201  1  0.402193  0  0.085044  0.262828  0  4.077312  0
C  C157  1  0.63080092  0.04259974  0.71375346  1  0.402222  0  0.08502  0.262807  0  4.07731  0
C  C158  1  0.14951239  0.77397840  0.96678964  1  -0.02335  0  -0.118296  -0.239329  0  4.033818  0
C  C159  1  0.35048600  0.03321036  0.22602295  1  -0.023336  0  -0.118283  -0.239311  0  4.033738  0
C  C160  1  0.85048710  0.22602347  0.03320873  1  -0.023357  0  -0.118284  -0.23933  0  4.033776  0
C  C161  1  0.64951398  0.96679211  0.77397727  1  -0.023341  0  -0.11826  -0.23927  0  4.033745  0
C  C162  1  0.23338044  0.76535823  0.91885640  1  -0.053889  0  -0.084212  -0.066225  0  4.007959  0
C  C163  1  0.26661784  0.08114369  0.23464234  1  -0.053894  0  -0.084189  -0.066178  0  4.007889  0
C  C164  1  0.76662010  0.23464179  0.08114292  1  -0.05388  0  -0.084201  -0.066185  0  4.007828  0
C  C165  1  0.73338101  0.91885817  0.76535732  1  -0.053889  0  -0.084205  -0.066184  0  4.007821  0
C  C166  1  0.29946161  0.69885770  0.94615015  1  -0.00219  0  -0.034475  -0.072404  0  4.002897  0
C  C167  1  0.20053698  0.05384966  0.30114342  1  -0.002179  0  -0.034503  -0.072498  0  4.002987  0
C  C168  1  0.70053703  0.30114233  0.05384914  1  -0.00215  0  -0.034483  -0.072416  0  4.002889  0
C  C169  1  0.79946327  0.94615158  0.69885719  1  -0.002197  0  -0.034487  -0.072445  0  4.00289  0
C  C170  1  0.28001834  0.64014800  0.02320630  1  -0.016981  0  -0.082073  -0.057969  0  3.973336  0
C  C171  1  0.21998094  0.97679304  0.35985349  1  -0.017031  0  -0.08206  -0.057956  0  3.973357  0
C  C172  1  0.71998016  0.35985265  0.97679280  1  -0.017035  0  -0.082059  -0.058069  0  3.973373  0
C  C173  1  0.78001946  0.02320760  0.64014564  1  -0.016968  0  -0.082064  -0.057963  0  3.973291  0
C  C174  1  0.19637590  0.64671397  0.07052150  1  -0.061897  0  -0.106625  -0.210822  0  3.999354  0
C  C175  1  0.30362338  0.92947854  0.35328793  1  -0.061822  0  -0.106619  -0.210732  0  3.999357  0
C  C176  1  0.80362309  0.35328728  0.92947835  1  -0.06182  0  -0.106652  -0.210761  0  3.999306  0
C  C177  1  0.69637687  0.07052271  0.64671157  1  -0.06194  0  -0.106673  -0.210863  0  3.999429  0
C  C178  1  0.38819673  0.69048125  0.89344887  1  1.530602  0  0.195398  0.586371  0  4.197144  0
C  C179  1  0.11180243  0.10655164  0.30951781  1  1.530597  0  0.195387  0.586363  0  4.197145  0
C  C180  1  0.61180169  0.30951694  0.10655117  1  1.530605  0  0.195429  0.586375  0  4.197127  0
C  C181  1  0.88819642  0.89345022  0.69048240  1  1.530613  0  0.195404  0.586333  0  4.197152  0
C  C182  1  0.95468603  0.81295151  0.29178390  1  0.399767  0  0.086821  0.269221  0  4.058607  0
C  C183  1  0.54531426  0.70821737  0.18704773  1  0.399888  0  0.086786  0.269161  0  4.058527  0
C  C184  1  0.04531324  0.18704852  0.70821577  1  0.400002  0  0.086813  0.269231  0  4.058545  0
C  C185  1  0.45468501  0.29178266  0.81295139  1  0.399937  0  0.086799  0.269181  0  4.058498  0
C  C186  1  0.99017895  0.87679546  0.28568730  1  -0.022027  0  -0.103832  -0.202497  0  3.991623  0
C  C187  1  0.50982091  0.71431247  0.12320458  1  -0.022033  0  -0.103789  -0.202387  0  3.991594  0
C  C188  1  0.00982173  0.12320396  0.71431166  1  -0.022072  0  -0.103822  -0.202524  0  3.991558  0
C  C189  1  0.49017801  0.28568633  0.87679565  1  -0.022098  0  -0.103853  -0.202562  0  3.991582  0
C  C190  1  0.01601687  0.87531763  0.35230538  1  -0.025602  0  -0.076384  -0.050806  0  3.967123  0
C  C191  1  0.48398298  0.64769462  0.12468225  1  -0.025535  0  -0.07638  -0.050852  0  3.967129  0
C  C192  1  0.98398459  0.12468118  0.64769359  1  -0.025537  0  -0.076328  -0.05074  0  3.967086  0
C  C193  1  0.51601657  0.35230418  0.87531835  1  -0.025628  0  -0.076348  -0.050765  0  3.967068  0
C  C194  1  0.00620847  0.81060614  0.42639191  1  0.049499  0  -0.031592  -0.066112  0  4.005417  0
C  C195  1  0.49379201  0.57360807  0.18939343  1  0.04908  0  -0.03158  -0.065994  0  4.005369  0
C  C196  1  0.99379312  0.18939205  0.57360725  1  0.049684  0  -0.031542  -0.065986  0  4.005409  0
C  C197  1  0.50620818  0.42639073  0.81060589  1  0.049508  0  -0.031551  -0.066056  0  4.005348  0
C  C198  1  0.96982227  0.74772972  0.43210540  1  -0.063787  0  -0.08208  -0.061351  0  3.995678  0
C  C199  1  0.53017897  0.56789423  0.25226977  1  -0.063775  0  -0.082109  -0.061452  0  3.995758  0
C  C200  1  0.03017919  0.25226909  0.56789245  1  -0.064239  0  -0.0821  -0.06144  0  3.995817  0
C  C201  1  0.46982122  0.43210457  0.74772955  1  -0.06378  0  -0.082107  -0.061408  0  3.995759  0
C  C202  1  0.94417314  0.74813695  0.36536249  1  -0.012878  0  -0.116995  -0.237497  0  4.031769  0
C  C203  1  0.55582738  0.63463784  0.25186283  1  -0.012996  0  -0.11701  -0.23749  0  4.031823  0
C  C204  1  0.05582677  0.25186308  0.63463645  1  -0.012877  0  -0.11699  -0.237486  0  4.031877  0
C  C205  1  0.44417252  0.36536219  0.74813667  1  -0.013038  0  -0.117009  -0.237467  0  4.031848  0
C  C206  1  0.03259499  0.80980264  0.49792290  1  1.501143  0  0.197899  0.584962  0  4.185488  0
C  C207  1  0.46740595  0.50207657  0.19019832  1  1.501467  0  0.197899  0.584903  0  4.185531  0
C  C208  1  0.96740533  0.19019555  0.50207717  1  1.501204  0  0.197847  0.584947  0  4.185447  0
C  C209  1  0.53259500  0.49792162  0.80980213  1  1.501161  0  0.197879  0.584932  0  4.185604  0
C  C210  1  0.54788006  0.80285921  0.66626830  1  0.992198  0  0.146023  0.094728  0  3.913631  0
C  C211  1  0.95212173  0.33373114  0.19713972  1  0.991744  0  0.145966  0.094678  0  3.913653  0
C  C212  1  0.45212454  0.19713957  0.33373257  1  0.991687  0  0.146032  0.094853  0  3.913487  0
C  C213  1  0.04787690  0.66626889  0.80286068  1  0.991732  0  0.145983  0.094702  0  3.913537  0
C  C214  1  0.66444912  0.85540660  0.62886755  1  0.241105  0  0.007087  -0.093955  0  3.890686  0
C  C215  1  0.83555259  0.37113161  0.14459095  1  0.241624  0  0.007085  -0.09394  0  3.890652  0
C  C216  1  0.33555606  0.14458975  0.37113131  1  0.241569  0  0.007044  -0.094036  0  3.890696  0
C  C217  1  0.16444681  0.62886780  0.85541058  1  0.241799  0  0.007061  -0.093948  0  3.890698  0
C  C218  1  0.67557645  0.78167488  0.68996273  1  0.441963  0  0.007486  -0.018903  0  3.981147  0
C  C219  1  0.82442368  0.31003698  0.21832683  1  0.441631  0  0.007488  -0.018941  0  3.980983  0
C  C220  1  0.32442634  0.21832636  0.31003774  1  0.441407  0  0.007548  -0.018764  0  3.980921  0
C  C221  1  0.17557587  0.68996182  0.78167433  1  0.44141  0  0.007469  -0.018999  0  3.981036  0
C  C222  1  0.54208286  0.93496429  0.55579915  1  0.293166  0  0.098009  0.161295  0  4.027077  0
C  C223  1  0.95791947  0.44420025  0.06503509  1  0.293175  0  0.097972  0.161229  0  4.027175  0
C  C224  1  0.45792352  0.06503512  0.44419823  1  0.293917  0  0.098089  0.161416  0  4.027266  0
C  C225  1  0.04207902  0.55580037  0.93496679  1  0.293779  0  0.097993  0.161182  0  4.0273  0
C  C226  1  0.48773149  0.92140356  0.51865058  1  -0.013854  0  -0.081106  -0.148807  0  3.989008  0
C  C227  1  0.01227012  0.48134899  0.07859685  1  -0.014099  0  -0.081125  -0.148857  0  3.989049  0
C  C228  1  0.51227453  0.07859462  0.48134846  1  -0.013998  0  -0.081096  -0.148818  0  3.989172  0
C  C229  1  0.98772774  0.51865163  0.92140576  1  -0.014416  0  -0.081036  -0.148578  0  3.989023  0
C  C230  1  0.55473186  0.01344125  0.53733187  1  0.059027  0  -0.077132  -0.127608  0  3.961366  0
C  C231  1  0.94526877  0.46266845  0.98655911  1  0.05906  0  -0.077115  -0.127549  0  3.96135  0
C  C232  1  0.44527247  0.98655876  0.46266751  1  0.058942  0  -0.077156  -0.127628  0  3.961416  0
C  C233  1  0.05472825  0.53733034  0.01344275  1  0.059196  0  -0.077142  -0.127561  0  3.961434  0
N  N234  1  0.60245484  0.74994435  0.71246532  1  -1.217297  0  -0.35742  -0.286472  0  3.567305  0
N  N235  1  0.89754890  0.28753428  0.25005343  1  -1.217241  0  -0.357394  -0.286422  0  3.567278  0
N  N236  1  0.39754885  0.25005565  0.28753590  1  -1.217269  0  -0.357475  -0.286639  0  3.567373  0
N  N237  1  0.10245241  0.71246513  0.74994590  1  -1.217277  0  -0.357396  -0.286439  0  3.567221  0
N  N238  1  0.58321861  0.86784968  0.61403000  1  -1.27338  0  -0.221281  0.014277  0  3.805456  0
N  N239  1  0.91678438  0.38596832  0.13214980  1  -1.273376  0  -0.221186  0.01436  0  3.805444  0
N  N240  1  0.41678804  0.13214850  0.38596887  1  -1.2731  0  -0.221215  0.014306  0  3.805422  0
N  N241  1  0.08321502  0.61403108  0.86785284  1  -1.273451  0  -0.22124  0.014317  0  3.805481  0
O  O242  1  0.74999958  0.82699266  0.17300886  1  -1.065182  0  -0.227407  -0.223009  0  2.573593  0
O  O243  1  0.25000074  0.17301101  0.82699359  1  -1.065212  0  -0.227419  -0.223019  0  2.573676  0
O  O244  1  0.88140858  0.70374063  0.04775009  1  -1.084578  0  -0.179857  -0.202636  0  2.589838  0
O  O245  1  0.61859299  0.95225028  0.29625772  1  -1.084597  0  -0.179873  -0.202693  0  2.58996  0
O  O246  1  0.11859146  0.29625879  0.95225016  1  -1.084508  0  -0.179895  -0.202738  0  2.589864  0
O  O247  1  0.38140832  0.04774915  0.70374051  1  -1.084568  0  -0.179857  -0.202684  0  2.589894  0
O  O248  1  0.05065256  0.71466279  0.09351186  1  -1.088554  0  -0.180462  -0.200552  0  2.570284  0
O  O249  1  0.44934605  0.90648947  0.28533823  1  -1.088594  0  -0.180462  -0.200593  0  2.570312  0
O  O250  1  0.94934804  0.28533966  0.90648986  1  -1.088569  0  -0.180496  -0.200598  0  2.570251  0
O  O251  1  0.55065280  0.09351238  0.71466254  1  -1.088571  0  -0.180477  -0.200571  0  2.570276  0
O  O252  1  0.93213188  0.81913075  0.22265868  1  -1.078439  0  -0.178623  -0.198802  0  2.560665  0
O  O253  1  0.56786918  0.77734115  0.18086917  1  -1.078432  0  -0.178623  -0.1988  0  2.560628  0
O  O254  1  0.06786775  0.18087051  0.77734043  1  -1.078414  0  -0.17869  -0.198858  0  2.560717  0
O  O255  1  0.43213073  0.22265889  0.81912977  1  -1.078481  0  -0.178629  -0.198775  0  2.560677  0
O  O256  1  0.66723166  0.61791718  0.87070709  1  -1.172647  0  -0.348168  -0.576333  0  2.286152  0
O  O257  1  0.83276722  0.12929163  0.38208271  1  -1.172688  0  -0.348232  -0.576446  0  2.286269  0
O  O258  1  0.33276599  0.38208162  0.12929348  1  -1.172684  0  -0.348166  -0.576351  0  2.286317  0
O  O259  1  0.16722847  0.87071022  0.61791894  1  -1.172658  0  -0.348236  -0.576494  0  2.28626  0
O  O260  1  0.61692301  0.54065021  0.00116952  1  -1.172691  0  -0.330991  -0.579678  0  2.279825  0
O  O261  1  0.88307731  0.99882982  0.45934760  1  -1.172663  0  -0.330955  -0.579699  0  2.279844  0
O  O262  1  0.38307351  0.45934798  0.99883160  1  -1.172587  0  -0.330955  -0.579668  0  2.279895  0
O  O263  1  0.11692231  0.00117143  0.54065263  1  -1.172685  0  -0.331  -0.579719  0  2.279798  0
O  O264  1  0.40259565  0.73380514  0.81923147  1  -1.178458  0  -0.332648  -0.562677  0  2.111697  0
O  O265  1  0.09740315  0.18076820  0.26619485  1  -1.178459  0  -0.332627  -0.562633  0  2.111708  0
O  O266  1  0.59740503  0.26619427  0.18076860  1  -1.17846  0  -0.332635  -0.562654  0  2.111682  0
O  O267  1  0.90259585  0.81923306  0.73380333  1  -1.178451  0  -0.332604  -0.562601  0  2.111684  0
O  O268  1  0.45080039  0.63686001  0.92670031  1  -1.174579  0  -0.350681  -0.611739  0  2.373034  0
O  O269  1  0.04919886  0.07329776  0.36313733  1  -1.17448  0  -0.350687  -0.611718  0  2.37294  0
O  O270  1  0.54919748  0.36313514  0.07329825  1  -1.174526  0  -0.350739  -0.611768  0  2.372953  0
O  O271  1  0.95080013  0.92670350  0.63686196  1  -1.17456  0  -0.350746  -0.611808  0  2.373054  0
O  O272  1  0.06494068  0.86921667  0.49117429  1  -1.182579  0  -0.345437  -0.610119  0  2.339019  0
O  O273  1  0.43506032  0.50882446  0.13078441  1  -1.182537  0  -0.345456  -0.610116  0  2.338922  0
O  O274  1  0.93505965  0.13078153  0.50882522  1  -1.182648  0  -0.345398  -0.610122  0  2.33903  0
O  O275  1  0.56494205  0.49117312  0.86921476  1  -1.182552  0  -0.345455  -0.610128  0  2.33896  0
O  O276  1  0.02366246  0.75093266  0.56495405  1  -1.149156  0  -0.340027  -0.550855  0  2.134463  0
O  O277  1  0.47633945  0.43504641  0.24906778  1  -1.14919  0  -0.33999  -0.550787  0  2.134556  0
O  O278  1  0.97633850  0.24906553  0.43504585  1  -1.149092  0  -0.33998  -0.550811  0  2.134476  0
O  O279  1  0.52366150  0.56495178  0.75093267  1  -1.149108  0  -0.339974  -0.550782  0  2.134599  0
