# generated using pymatgen
data_AgH8C12S2N6ClO4
_symmetry_space_group_name_H-M   'P 1'
_cell_length_a   8.42487994
_cell_length_b   13.14049666
_cell_length_c   14.42700000
_cell_angle_alpha   90.00000000
_cell_angle_beta   90.00000000
_cell_angle_gamma   90.00000000
_symmetry_Int_Tables_number   1
_chemical_formula_structural   AgH8C12S2N6ClO4
_chemical_formula_sum   'Ag4 H32 C48 S8 N24 Cl4 O16'
_cell_volume   1597.17142822
_cell_formula_units_Z   4
loop_
 _symmetry_equiv_pos_site_id
 _symmetry_equiv_pos_as_xyz
  1  'x, y, z'
loop_
 _atom_site_type_symbol
 _atom_site_label
 _atom_site_symmetry_multiplicity
 _atom_site_fract_x
 _atom_site_fract_y
 _atom_site_fract_z
 _atom_site_occupancy
 _atom_site_hle17_bader_spin_density
 _atom_site_hle17_ddec_charge
 _atom_site_hle17_ddec_spin_density
 _atom_site_hle17_ddec_sum_bond_order
 _atom_site_hle17_magmom
 _atom_site_hse06_10hf_bader_spin_density
 _atom_site_hse06_10hf_ddec_charge
 _atom_site_hse06_10hf_ddec_spin_density
 _atom_site_hse06_10hf_ddec_sum_bond_order
 _atom_site_hse06_10hf_magmom
 _atom_site_hse06_bader_spin_density
 _atom_site_hse06_ddec_charge
 _atom_site_hse06_ddec_spin_density
 _atom_site_hse06_ddec_sum_bond_order
 _atom_site_hse06_magmom
 _atom_site_pbe_bader_charge
 _atom_site_pbe_bader_spin_density
 _atom_site_pbe_cm5_charge
 _atom_site_pbe_ddec_charge
 _atom_site_pbe_ddec_spin_density
 _atom_site_pbe_ddec_sum_bond_order
 _atom_site_pbe_magmom
Ag  Ag0  1  0.58605108  0.82430750  0.77763776  1  0  0.50702  0  1.457554  0  0  0.35747  0  1.901482  0  0  0.380389  0  1.860077  0  0.624237  0  0.481674  0.343649  0  1.929283  0
Ag  Ag1  1  0.91394893  0.17569351  0.27764123  1  0  0.507036  0  1.457499  0  0  0.357499  0  1.901377  0  0  0.380421  0  1.85997  0  0.624243  0  0.481685  0.343678  0  1.929179  0
Ag  Ag2  1  0.08605108  0.67569364  0.22236085  1  0  0.507009  0  1.457503  0  0  0.357475  0  1.901433  0  0  0.380389  0  1.860023  0  0.624244  0  0.481685  0.343654  0  1.929234  0
Ag  Ag3  1  0.41394655  0.32430738  0.72236224  1  0  0.507044  0  1.457453  0  0  0.35748  0  1.901414  0  0  0.380402  0  1.860011  0  0.62428  0  0.481676  0.343658  0  1.929214  0
H  H4  1  0.89545727  0.73816312  0.88663340  1  0  0.101694  0  0.962829  0  0  0.108677  0  1.026722  0  0  0.111911  0  1.024198  0  0.182937  0  0.116113  0.106276  0  1.02872  0
H  H5  1  0.60453443  0.26183637  0.38663340  1  0  0.101754  0  0.962846  0  0  0.108684  0  1.026791  0  0  0.111913  0  1.024276  0  0.182975  0  0.116121  0.106283  0  1.028788  0
H  H6  1  0.39545727  0.76183498  0.11336660  1  0  0.101708  0  0.962855  0  0  0.10869  0  1.026766  0  0  0.111922  0  1.024245  0  0.182813  0  0.116114  0.106289  0  1.028763  0
H  H7  1  0.10453680  0.23816451  0.61336522  1  0  0.101711  0  0.962865  0  0  0.108679  0  1.026785  0  0  0.111909  0  1.02427  0  0.182966  0  0.11614  0.106277  0  1.028782  0
H  H8  1  0.19038135  0.77800408  0.89322867  1  0  0.09676  0  0.932784  0  0  0.10329  0  0.997516  0  0  0.106197  0  0.995252  0  0.138257  0  0.117393  0.101145  0  0.999333  0
H  H9  1  0.30961272  0.22199618  0.39322451  1  0  0.09678  0  0.932777  0  0  0.103357  0  0.997452  0  0  0.106265  0  0.995179  0  0.138218  0  0.117398  0.101211  0  0.99927  0
H  H10  1  0.69038135  0.72200011  0.10677341  1  0  0.096708  0  0.932818  0  0  0.103282  0  0.997498  0  0  0.106189  0  0.995234  0  0.138256  0  0.117392  0.101136  0  0.999315  0
H  H11  1  0.80961272  0.27800319  0.60677202  1  0  0.096728  0  0.932806  0  0  0.10331  0  0.997453  0  0  0.106219  0  0.995182  0  0.138369  0  0.117381  0.101164  0  0.99927  0
H  H12  1  0.13721739  0.99138338  0.68402371  1  0  0.103172  0  0.946281  0  0  0.106796  0  1.014474  0  0  0.110204  0  1.011846  0  0.148598  0  0.114603  0.104334  0  1.016452  0
H  H13  1  0.36278855  0.00861383  0.18402301  1  0  0.103186  0  0.946253  0  0  0.106808  0  1.014421  0  0  0.110218  0  1.01179  0  0.148572  0  0.114639  0.104346  0  1.0164  0
H  H14  1  0.63721383  0.50861548  0.31597422  1  0  0.103164  0  0.946297  0  0  0.106782  0  1.014499  0  0  0.11019  0  1.01187  0  0.148622  0  0.114623  0.10432  0  1.016478  0
H  H15  1  0.86278262  0.49138021  0.81597907  1  0  0.103166  0  0.946266  0  0  0.106767  0  1.014475  0  0  0.110176  0  1.011845  0  0.148603  0  0.114613  0.104305  0  1.016452  0
H  H16  1  0.78503789  0.11194554  0.48889374  1  0  0.108824  0  0.931494  0  0  0.116066  0  0.995782  0  0  0.119227  0  0.993422  0  0.120304  0  0.119164  0.113754  0  0.997655  0
H  H17  1  0.71496805  0.88805091  0.98889513  1  0  0.108846  0  0.931434  0  0  0.116085  0  0.995719  0  0  0.119246  0  0.993358  0  0.12022  0  0.119187  0.113774  0  0.997592  0
H  H18  1  0.28503670  0.38805002  0.51110695  1  0  0.10883  0  0.931462  0  0  0.116064  0  0.995738  0  0  0.119223  0  0.993379  0  0.120237  0  0.119164  0.113751  0  0.997613  0
H  H19  1  0.21496805  0.61194719  0.01110487  1  0  0.108833  0  0.931473  0  0  0.116079  0  0.995733  0  0  0.119239  0  0.993373  0  0.120201  0  0.11917  0.113767  0  0.997606  0
H  H20  1  0.12703801  0.98899839  0.31341998  1  0  0.10958  0  0.983802  0  0  0.114715  0  1.052827  0  0  0.118578  0  1.048246  0  0.170654  0  0.117456  0.111862  0  1.056367  0
H  H21  1  0.37297149  0.01099806  0.81341928  1  0  0.109564  0  0.983827  0  0  0.114701  0  1.052844  0  0  0.118565  0  1.048265  0  0.170721  0  0.117468  0.111849  0  1.056384  0
H  H22  1  0.62703089  0.51099667  0.68658210  1  0  0.109546  0  0.983814  0  0  0.114711  0  1.052794  0  0  0.118578  0  1.048207  0  0.170675  0  0.117465  0.111858  0  1.056332  0
H  H23  1  0.87296556  0.48900283  0.18657933  1  0  0.109553  0  0.983848  0  0  0.114689  0  1.052873  0  0  0.118553  0  1.04829  0  0.170706  0  0.117461  0.111836  0  1.056412  0
H  H24  1  0.12627598  0.58453879  0.65222569  1  0  0.087518  0  0.932889  0  0  0.094638  0  0.995331  0  0  0.096938  0  0.995156  0  0.105588  0  0.113598  0.092942  0  0.99567  0
H  H25  1  0.37372639  0.41546223  0.15222569  1  0  0.087438  0  0.932933  0  0  0.094564  0  0.995376  0  0  0.096862  0  0.995201  0  0.105525  0  0.113573  0.092868  0  0.995716  0
H  H26  1  0.62627243  0.91546159  0.34777501  1  0  0.087476  0  0.932901  0  0  0.094603  0  0.995335  0  0  0.096902  0  0.99516  0  0.105547  0  0.113577  0.092907  0  0.995674  0
H  H27  1  0.87372284  0.08453866  0.84777362  1  0  0.087494  0  0.93291  0  0  0.094611  0  0.995351  0  0  0.096909  0  0.995177  0  0.105591  0  0.113592  0.092915  0  0.995691  0
H  H28  1  0.33836447  0.64382041  0.76479448  1  0  0.081508  0  0.986709  0  0  0.083344  0  1.064448  0  0  0.085544  0  1.063245  0  0.138446  0  0.108585  0.081641  0  1.065538  0
H  H29  1  0.16164029  0.35618136  0.26479587  1  0  0.081503  0  0.986675  0  0  0.08334  0  1.064413  0  0  0.085542  0  1.063213  0  0.138392  0  0.108593  0.081635  0  1.065505  0
H  H30  1  0.83836091  0.85618301  0.23520760  1  0  0.081456  0  0.986774  0  0  0.083296  0  1.064482  0  0  0.085492  0  1.063276  0  0.138427  0  0.108569  0.081591  0  1.065575  0
H  H31  1  0.66163198  0.14381800  0.73520690  1  0  0.081525  0  0.986687  0  0  0.083353  0  1.064445  0  0  0.085555  0  1.063246  0  0.138434  0  0.108592  0.08165  0  1.065536  0
H  H32  1  0.47188922  0.86973044  0.57734040  1  0  0.104252  0  0.976705  0  0  0.102694  0  1.057835  0  0  0.106382  0  1.054069  0  0.178514  0  0.112187  0.099882  0  1.060795  0
H  H33  1  0.02811316  0.13027285  0.07734318  1  0  0.104204  0  0.976685  0  0  0.102637  0  1.057809  0  0  0.106337  0  1.054031  0  0.178471  0  0.112149  0.099816  0  1.060776  0
H  H34  1  0.97188922  0.63027298  0.42265613  1  0  0.104183  0  0.976693  0  0  0.102626  0  1.057808  0  0  0.106327  0  1.05403  0  0.17859  0  0.112143  0.099806  0  1.060774  0
H  H35  1  0.52811435  0.36973032  0.92265890  1  0  0.104202  0  0.976683  0  0  0.102632  0  1.057835  0  0  0.106329  0  1.054057  0  0.178423  0  0.112173  0.099812  0  1.0608  0
C  C36  1  0.95083492  0.79296470  0.83989811  1  0  0.084542  0  3.659485  0  0  0.055985  0  3.908938  0  0  0.058627  0  3.925945  0  0.477499  0  0.045884  0.053989  0  3.897831  0
C  C37  1  0.54916510  0.20703403  0.33989672  1  0  0.084518  0  3.659694  0  0  0.055977  0  3.909169  0  0  0.058621  0  3.926174  0  0.477566  0  0.045895  0.053982  0  3.89806  0
C  C38  1  0.45083135  0.70703340  0.16010259  1  0  0.084463  0  3.659701  0  0  0.055876  0  3.909204  0  0  0.05852  0  3.926209  0  0.477663  0  0.045864  0.053882  0  3.898095  0
C  C39  1  0.04915916  0.29296457  0.66010259  1  0  0.084515  0  3.659647  0  0  0.055923  0  3.909125  0  0  0.058565  0  3.926132  0  0.477524  0  0.045882  0.053929  0  3.898016  0
C  C40  1  0.11207519  0.81529719  0.84354197  1  0  0.070975  0  3.693516  0  0  0.043517  0  3.958711  0  0  0.045393  0  3.975504  0  0.445243  0  0.045386  0.042059  0  3.947616  0
C  C41  1  0.38792126  0.18470154  0.34353920  1  0  0.070846  0  3.693557  0  0  0.043362  0  3.958758  0  0  0.04524  0  3.97555  0  0.445286  0  0.045333  0.041905  0  3.947661  0
C  C42  1  0.61207282  0.68470167  0.15645872  1  0  0.071052  0  3.693434  0  0  0.043552  0  3.958679  0  0  0.045426  0  3.975475  0  0.445268  0  0.045447  0.042094  0  3.947583  0
C  C43  1  0.88791889  0.31529782  0.65646011  1  0  0.070977  0  3.693543  0  0  0.043527  0  3.958719  0  0  0.045406  0  3.97551  0  0.445065  0  0.045363  0.04207  0  3.947623  0
C  C44  1  0.08336736  0.93294723  0.72762737  1  0  0.043361  0  3.678923  0  0  0.014524  0  3.936827  0  0  0.016008  0  3.951939  0  0.548781  0  0.050339  0.013416  0  3.926839  0
C  C45  1  0.41663383  0.06705150  0.22762529  1  0  0.043345  0  3.678868  0  0  0.014568  0  3.936708  0  0  0.016053  0  3.951819  0  0.548728  0  0.050381  0.013462  0  3.926722  0
C  C46  1  0.58336499  0.56705239  0.27237194  1  0  0.043374  0  3.678961  0  0  0.014554  0  3.936847  0  0  0.01604  0  3.951957  0  0.548373  0  0.050367  0.013447  0  3.926862  0
C  C47  1  0.91663146  0.43294482  0.77237471  1  0  0.043366  0  3.678803  0  0  0.014556  0  3.936682  0  0  0.016041  0  3.951791  0  0.548362  0  0.050349  0.013452  0  3.926696  0
C  C48  1  0.92167960  0.90815365  0.72052263  1  0  0.143282  0  3.772166  0  0  0.144772  0  4.038234  0  0  0.150721  0  4.056389  0  0.416167  0  0.116423  0.140422  0  4.026203  0
C  C49  1  0.57832041  0.09184737  0.22052194  1  0  0.143324  0  3.772173  0  0  0.144774  0  4.038262  0  0  0.150721  0  4.056418  0  0.416259  0  0.116413  0.140416  0  4.026243  0
C  C50  1  0.42167841  0.59184597  0.27947737  1  0  0.143263  0  3.772252  0  0  0.144732  0  4.038342  0  0  0.15068  0  4.056496  0  0.416579  0  0.116396  0.140375  0  4.026323  0
C  C51  1  0.07831922  0.40815276  0.77947737  1  0  0.143314  0  3.772074  0  0  0.144821  0  4.0381  0  0  0.150769  0  4.056256  0  0.41662  0  0.116427  0.14046  0  4.026088  0
C  C52  1  0.91053167  0.97832680  0.54158037  1  0  0.164434  0  3.776413  0  0  0.171575  0  4.048714  0  0  0.176836  0  4.067785  0  0.460855  0  0.1246  0.167613  0  4.035985  0
C  C53  1  0.58947190  0.02167194  0.04157829  1  0  0.164485  0  3.776728  0  0  0.171651  0  4.048976  0  0  0.176912  0  4.068048  0  0.460844  0  0.124693  0.167689  0  4.036243  0
C  C54  1  0.41053404  0.52166978  0.45842102  1  0  0.16434  0  3.776704  0  0  0.171485  0  4.048981  0  0  0.176746  0  4.068051  0  0.460901  0  0.124588  0.167526  0  4.036239  0
C  C55  1  0.08947071  0.47832743  0.95842171  1  0  0.164406  0  3.776657  0  0  0.171567  0  4.04891  0  0  0.176828  0  4.067978  0  0.461406  0  0.124631  0.167605  0  4.036179  0
C  C56  1  0.87549616  0.05429019  0.47655784  1  0  0.031163  0  3.637605  0  0  -0.006727  0  3.892918  0  0  -0.004407  0  3.909047  0  0.541789  0  0.038728  -0.0085  0  3.882413  0
C  C57  1  0.62450742  0.94570779  0.97655784  1  0  0.031087  0  3.637569  0  0  -0.006816  0  3.892896  0  0  -0.004492  0  3.909022  0  0.542102  0  0.038658  -0.008592  0  3.882395  0
C  C58  1  0.37549853  0.44570461  0.52344146  1  0  0.031267  0  3.637608  0  0  -0.006595  0  3.892893  0  0  -0.004272  0  3.909022  0  0.541756  0  0.038742  -0.008371  0  3.882396  0
C  C59  1  0.12450860  0.55429336  0.02344008  1  0  0.031128  0  3.637444  0  0  -0.006744  0  3.892742  0  0  -0.004421  0  3.908866  0  0.541747  0  0.03867  -0.00852  0  3.882245  0
C  C60  1  0.06556533  0.98638509  0.37947529  1  0  0.033091  0  3.656484  0  0  -0.005825  0  3.913955  0  0  -0.00219  0  3.926541  0  0.548638  0  0.043753  -0.008401  0  3.905787  0
C  C61  1  0.43443705  0.01361212  0.87947806  1  0  0.033096  0  3.656602  0  0  -0.005837  0  3.914148  0  0  -0.002214  0  3.926722  0  0.548666  0  0.043735  -0.008413  0  3.905972  0
C  C62  1  0.56556652  0.51361072  0.62052263  1  0  0.03321  0  3.656484  0  0  -0.005704  0  3.913968  0  0  -0.002089  0  3.926553  0  0.548422  0  0.043776  -0.008285  0  3.905811  0
C  C63  1  0.93443349  0.48638801  0.12052332  1  0  0.033083  0  3.656368  0  0  -0.005862  0  3.913917  0  0  -0.002227  0  3.926501  0  0.548392  0  0.043705  -0.008439  0  3.905754  0
C  C64  1  0.10459734  0.91450501  0.44815970  1  0  0.178786  0  3.775367  0  0  0.185839  0  4.044404  0  0  0.193085  0  4.060939  0  0.445574  0  0.130883  0.180514  0  4.033343  0
C  C65  1  0.39540267  0.08549372  0.94816178  1  0  0.178784  0  3.775186  0  0  0.185797  0  4.044334  0  0  0.193079  0  4.06082  0  0.445646  0  0.130886  0.180473  0  4.033274  0
C  C66  1  0.60459971  0.58549081  0.55183822  1  0  0.178826  0  3.775199  0  0  0.185811  0  4.044367  0  0  0.193108  0  4.060829  0  0.445683  0  0.130897  0.180484  0  4.033308  0
C  C67  1  0.89540386  0.41450792  0.05183961  1  0  0.178868  0  3.775239  0  0  0.185932  0  4.044322  0  0  0.193187  0  4.060841  0  0.445726  0  0.130937  0.180606  0  4.033262  0
C  C68  1  0.27921822  0.77101652  0.53403064  1  0  0.158367  0  3.748947  0  0  0.166434  0  4.019265  0  0  0.169329  0  4.037439  0  0.462213  0  0.128431  0.163936  0  4.007488  0
C  C69  1  0.22078059  0.22898526  0.03402925  1  0  0.158256  0  3.749123  0  0  0.166321  0  4.019438  0  0  0.169213  0  4.037622  0  0.461993  0  0.128353  0.163825  0  4.007658  0
C  C70  1  0.77921941  0.72898386  0.46596936  1  0  0.158364  0  3.749009  0  0  0.166413  0  4.019372  0  0  0.169306  0  4.037557  0  0.46208  0  0.128426  0.163916  0  4.007591  0
C  C71  1  0.72078416  0.27101639  0.96597006  1  0  0.158352  0  3.748884  0  0  0.16641  0  4.019216  0  0  0.169306  0  4.037391  0  0.461882  0  0.128446  0.163912  0  4.007436  0
C  C72  1  0.20399104  0.64859497  0.63593956  1  0  0.077834  0  3.685728  0  0  0.057181  0  3.944719  0  0  0.056799  0  3.963635  0  0.47679  0  0.049198  0.057049  0  3.93253  0
C  C73  1  0.29601134  0.35140833  0.13594094  1  0  0.077944  0  3.685676  0  0  0.057253  0  3.944691  0  0  0.056874  0  3.963604  0  0.477205  0  0.049169  0.057122  0  3.9325  0
C  C74  1  0.70398985  0.85140770  0.36406044  1  0  0.077909  0  3.685628  0  0  0.057231  0  3.944632  0  0  0.056848  0  3.963548  0  0.476807  0  0.049213  0.057098  0  3.932444  0
C  C75  1  0.79600778  0.14859408  0.86406044  1  0  0.077887  0  3.685715  0  0  0.057239  0  3.944692  0  0  0.056856  0  3.963609  0  0.476772  0  0.0492  0.057106  0  3.932504  0
C  C76  1  0.32028587  0.68111657  0.69822208  1  0  0.069508  0  3.676718  0  0  0.038239  0  3.927663  0  0  0.042031  0  3.946801  0  0.494533  0  0.045296  0.035472  0  3.915372  0
C  C77  1  0.17971769  0.31888521  0.19822486  1  0  0.069479  0  3.676798  0  0  0.038226  0  3.927695  0  0  0.042008  0  3.946847  0  0.494402  0  0.045282  0.035458  0  3.915409  0
C  C78  1  0.82028469  0.81888533  0.30177653  1  0  0.069553  0  3.676929  0  0  0.038315  0  3.927844  0  0  0.042108  0  3.946975  0  0.494523  0  0.045332  0.035546  0  3.915558  0
C  C79  1  0.67971176  0.18111416  0.80177792  1  0  0.069431  0  3.676706  0  0  0.038184  0  3.927624  0  0  0.041963  0  3.946785  0  0.494533  0  0.04527  0.035416  0  3.915338  0
C  C80  1  0.39537181  0.80607988  0.59546683  1  0  0.058777  0  3.633672  0  0  0.018235  0  3.890122  0  0  0.022805  0  3.905027  0  0.53838  0  0.053631  0.01496  0  3.880849  0
C  C81  1  0.10463176  0.19392418  0.09546891  1  0  0.058916  0  3.633676  0  0  0.018386  0  3.890122  0  0  0.022944  0  3.905018  0  0.538495  0  0.05367  0.015118  0  3.880857  0
C  C82  1  0.89537062  0.69392506  0.40453178  1  0  0.058873  0  3.633664  0  0  0.018345  0  3.890113  0  0  0.022898  0  3.905001  0  0.538429  0  0.053622  0.015078  0  3.880846  0
C  C83  1  0.60463057  0.30607823  0.90453386  1  0  0.05886  0  3.633502  0  0  0.018319  0  3.890034  0  0  0.02288  0  3.90493  0  0.538529  0  0.053637  0.015053  0  3.880766  0
S  S84  1  0.26192777  0.83087879  0.42388993  1  0  0.024732  0  2.359495  0  0  0.008905  0  2.690051  0  0  0.003825  0  2.690779  0  0.162482  0  0.067607  0.012686  0  2.690054  0
S  S85  1  0.23806867  0.16912298  0.92389339  1  0  0.024755  0  2.359661  0  0  0.008947  0  2.69022  0  0  0.003866  0  2.690917  0  0.162523  0  0.067641  0.012727  0  2.690219  0
S  S86  1  0.76193252  0.66912235  0.57610661  1  0  0.024702  0  2.359554  0  0  0.008898  0  2.690137  0  0  0.003803  0  2.69084  0  0.162509  0  0.067617  0.01268  0  2.690135  0
S  S87  1  0.73807580  0.33087867  0.07611076  1  0  0.024692  0  2.359487  0  0  0.008876  0  2.690035  0  0  0.003791  0  2.690762  0  0.162609  0  0.067592  0.012653  0  2.690045  0
S  S88  1  0.79041245  0.96820694  0.64250225  1  0  0.002942  0  2.4628  0  0  -0.006266  0  2.815871  0  0  -0.010028  0  2.812472  0  0.169356  0  0.064322  -0.003521  0  2.818531  0
S  S89  1  0.70959231  0.03179636  0.14250156  1  0  0.002914  0  2.462735  0  0  -0.006305  0  2.815797  0  0  -0.010069  0  2.812401  0  0.16939  0  0.064298  -0.003557  0  2.818457  0
S  S90  1  0.29040889  0.53179573  0.35749913  1  0  0.002952  0  2.462747  0  0  -0.006266  0  2.815832  0  0  -0.010025  0  2.812434  0  0.169389  0  0.064312  -0.003519  0  2.818492  0
S  S91  1  0.20958874  0.46820605  0.85749705  1  0  0.002903  0  2.462738  0  0  -0.006314  0  2.815785  0  0  -0.010082  0  2.812394  0  0.169167  0  0.064292  -0.003563  0  2.818446  0
N  N92  1  0.85561813  0.83917072  0.77770153  1  0  -0.30569  0  3.292681  0  0  -0.237146  0  3.57198  0  0  -0.250282  0  3.585559  0  -1.207442  0  -0.325601  -0.228181  0  3.562818  0
N  N93  1  0.64437832  0.16082878  0.27770292  1  0  -0.305695  0  3.292842  0  0  -0.23712  0  3.57209  0  0  -0.250255  0  3.585667  0  -1.207483  0  -0.32558  -0.228153  0  3.562929  0
N  N94  1  0.35561931  0.66082738  0.22229708  1  0  -0.305616  0  3.292846  0  0  -0.237049  0  3.572123  0  0  -0.250184  0  3.585702  0  -1.2075  0  -0.325569  -0.228082  0  3.562962  0
N  N95  1  0.14437713  0.33916983  0.72229778  1  0  -0.305653  0  3.292743  0  0  -0.237088  0  3.572  0  0  -0.250223  0  3.585581  0  -1.207421  0  -0.32557  -0.228119  0  3.562841  0
N  N96  1  0.17731766  0.88615753  0.78839329  1  0  -0.230741  0  3.093814  0  0  -0.19388  0  3.364886  0  0  -0.201567  0  3.380797  0  -1.159543  0  -0.292043  -0.188334  0  3.354128  0
N  N97  1  0.32268116  0.11384045  0.28839190  1  0  -0.230683  0  3.093858  0  0  -0.193844  0  3.364926  0  0  -0.201531  0  3.380839  0  -1.15954  0  -0.292073  -0.188295  0  3.354165  0
N  N98  1  0.67731648  0.61384286  0.21160671  1  0  -0.230753  0  3.09376  0  0  -0.193877  0  3.364835  0  0  -0.201563  0  3.380746  0  -1.159536  0  -0.292123  -0.188329  0  3.354075  0
N  N99  1  0.82267879  0.38615664  0.71160810  1  0  -0.230759  0  3.093835  0  0  -0.193924  0  3.364928  0  0  -0.201613  0  3.38084  0  -1.159608  0  -0.292056  -0.188376  0  3.354167  0
N  N100  1  0.02450005  0.90923428  0.52770777  1  0  -0.338515  0  3.130908  0  0  -0.311839  0  3.394624  0  0  -0.323102  0  3.412727  0  -1.191567  0  -0.303026  -0.303603  0  3.382255  0
N  N101  1  0.47550589  0.09076293  0.02770916  1  0  -0.33853  0  3.131203  0  0  -0.311827  0  3.394882  0  0  -0.323102  0  3.412972  0  -1.191664  0  -0.303084  -0.303591  0  3.382511  0
N  N102  1  0.52449887  0.59076154  0.47229084  1  0  -0.338507  0  3.131017  0  0  -0.311795  0  3.394726  0  0  -0.323077  0  3.412819  0  -1.191656  0  -0.303013  -0.303558  0  3.382354  0
N  N103  1  0.97550470  0.40923643  0.97229154  1  0  -0.338471  0  3.130988  0  0  -0.311788  0  3.394663  0  0  -0.323053  0  3.412767  0  -1.191634  0  -0.303031  -0.30355  0  3.38229  0
N  N104  1  0.95345335  0.05593624  0.39512789  1  0  -0.220491  0  3.262855  0  0  -0.147578  0  3.542982  0  0  -0.159746  0  3.557316  0  -1.205159  0  -0.313805  -0.139093  0  3.533112  0
N  N105  1  0.54654547  0.94406401  0.89513066  1  0  -0.220447  0  3.262965  0  0  -0.147498  0  3.543067  0  0  -0.159668  0  3.557407  0  -1.205536  0  -0.313764  -0.139012  0  3.533199  0
N  N106  1  0.45345691  0.44406312  0.60486934  1  0  -0.220645  0  3.262893  0  0  -0.147729  0  3.543035  0  0  -0.159901  0  3.557375  0  -1.204962  0  -0.313862  -0.139244  0  3.533166  0
N  N107  1  0.04654666  0.55593865  0.10487142  1  0  -0.22049  0  3.262526  0  0  -0.147596  0  3.5427  0  0  -0.159764  0  3.557031  0  -1.205165  0  -0.313762  -0.139111  0  3.532829  0
N  N108  1  0.41478336  0.76083121  0.67826575  1  0  -0.246694  0  3.342765  0  0  -0.164909  0  3.623648  0  0  -0.179954  0  3.638968  0  -1.155032  0  -0.326013  -0.155117  0  3.613624  0
N  N109  1  0.08522021  0.23917133  0.17826991  1  0  -0.246744  0  3.343044  0  0  -0.16494  0  3.623852  0  0  -0.179984  0  3.639171  0  -1.154931  0  -0.325973  -0.155148  0  3.613825  0
N  N110  1  0.91478099  0.73917374  0.32173078  1  0  -0.246732  0  3.343038  0  0  -0.164942  0  3.623877  0  0  -0.179968  0  3.639172  0  -1.155136  0  -0.325995  -0.155151  0  3.613851  0
N  N111  1  0.58521665  0.26082956  0.82173425  1  0  -0.246668  0  3.342734  0  0  -0.164919  0  3.623646  0  0  -0.179965  0  3.638968  0  -1.155028  0  -0.326005  -0.155129  0  3.613621  0
N  N112  1  0.18271358  0.69342661  0.55355722  1  0  -0.267693  0  3.082141  0  0  -0.243781  0  3.355126  0  0  -0.249922  0  3.37101  0  -1.162096  0  -0.287515  -0.2394  0  3.344612  0
N  N113  1  0.31728761  0.30657669  0.05355791  1  0  -0.267671  0  3.081953  0  0  -0.243754  0  3.354944  0  0  -0.249894  0  3.370826  0  -1.162297  0  -0.287462  -0.239373  0  3.34443  0
N  N114  1  0.68271240  0.80657606  0.44644347  1  0  -0.267685  0  3.081987  0  0  -0.243767  0  3.354989  0  0  -0.249909  0  3.370874  0  -1.162006  0  -0.287494  -0.239385  0  3.344475  0
N  N115  1  0.81728761  0.19342572  0.94644278  1  0  -0.267676  0  3.082062  0  0  -0.243766  0  3.355074  0  0  -0.249906  0  3.37096  0  -1.16204  0  -0.287498  -0.239384  0  3.344561  0
Cl  Cl116  1  0.58677275  0.60241026  0.92424205  1  0  1.374092  0  6.208576  0  0  1.314484  0  6.770764  0  0  1.366824  0  6.747567  0  3.005031  0  0.715249  1.278438  0  6.785325  0
Cl  Cl117  1  0.91322844  0.39758999  0.42424205  1  0  1.374054  0  6.20868  0  0  1.314435  0  6.770886  0  0  1.366758  0  6.747712  0  3.005159  0  0.715258  1.278391  0  6.78545  0
Cl  Cl118  1  0.08677156  0.89759088  0.07575795  1  0  1.374183  0  6.208352  0  0  1.314563  0  6.770543  0  0  1.366889  0  6.747361  0  3.005148  0  0.715339  1.278517  0  6.785111  0
Cl  Cl119  1  0.41322725  0.10240937  0.57575726  1  0  1.37418  0  6.208365  0  0  1.314565  0  6.770552  0  0  1.366892  0  6.747373  0  3.005188  0  0.715318  1.278522  0  6.785114  0
O  O120  1  0.50028962  0.69975894  0.91922298  1  0  -0.561998  0  1.850575  0  0  -0.527863  0  2.111384  0  0  -0.544276  0  2.095761  0  -0.953979  0  -0.327099  -0.51634  0  2.121673  0
O  O121  1  0.99971039  0.30024055  0.41922368  1  0  -0.561988  0  1.850671  0  0  -0.527837  0  2.111467  0  0  -0.544247  0  2.09585  0  -0.953999  0  -0.327097  -0.516307  0  2.121737  0
O  O122  1  0.00028843  0.80024220  0.08077771  1  0  -0.561983  0  1.850443  0  0  -0.527877  0  2.111292  0  0  -0.544285  0  2.095673  0  -0.953956  0  -0.327124  -0.516342  0  2.12155  0
O  O123  1  0.49971157  0.19975729  0.58077632  1  0  -0.561991  0  1.850452  0  0  -0.52785  0  2.111261  0  0  -0.544262  0  2.095644  0  -0.95394  0  -0.327116  -0.516315  0  2.121516  0
O  O124  1  0.50609979  0.53516699  0.98951896  1  0  -0.542997  0  1.872883  0  0  -0.518045  0  2.12392  0  0  -0.535476  0  2.11473  0  -0.971368  0  -0.313434  -0.505553  0  2.129582  0
O  O125  1  0.99389903  0.46483403  0.48951826  1  0  -0.542991  0  1.872923  0  0  -0.51803  0  2.12394  0  0  -0.53546  0  2.114759  0  -0.971382  0  -0.313438  -0.505541  0  2.129602  0
O  O126  1  0.00609979  0.96483339  0.01048104  1  0  -0.543006  0  1.872888  0  0  -0.518057  0  2.123932  0  0  -0.535488  0  2.11475  0  -0.971401  0  -0.313451  -0.505564  0  2.129586  0
O  O127  1  0.49389903  0.03516610  0.51047966  1  0  -0.543043  0  1.872871  0  0  -0.518089  0  2.1239  0  0  -0.535519  0  2.114714  0  -0.971415  0  -0.313465  -0.505608  0  2.129583  0
O  O128  1  0.58918347  0.55554749  0.83212380  1  0  -0.564193  0  1.881452  0  0  -0.537823  0  2.141947  0  0  -0.553713  0  2.12728  0  -0.998822  0  -0.320428  -0.526557  0  2.151617  0
O  O129  1  0.91082010  0.44445124  0.33212241  1  0  -0.564155  0  1.881504  0  0  -0.537782  0  2.141999  0  0  -0.553684  0  2.127371  0  -0.998846  0  -0.320406  -0.526508  0  2.151649  0
O  O130  1  0.08918347  0.94445441  0.16787690  1  0  -0.564188  0  1.881404  0  0  -0.537842  0  2.141936  0  0  -0.553734  0  2.127287  0  -0.998842  0  -0.320434  -0.526568  0  2.151586  0
O  O131  1  0.41081654  0.05554585  0.66787551  1  0  -0.564199  0  1.881443  0  0  -0.537822  0  2.141935  0  0  -0.553715  0  2.12728  0  -0.998864  0  -0.320425  -0.526553  0  2.151598  0
O  O132  1  0.74961780  0.62097805  0.95485201  1  0  -0.537187  0  1.854651  0  0  -0.505718  0  2.091271  0  0  -0.523008  0  2.080929  0  -0.995849  0  -0.311553  -0.493465  0  2.097861  0
O  O133  1  0.75038221  0.37902296  0.45485063  1  0  -0.537232  0  1.854626  0  0  -0.505763  0  2.091249  0  0  -0.523036  0  2.080896  0  -0.995953  0  -0.311592  -0.493511  0  2.097838  0
O  O134  1  0.24961780  0.87902233  0.04514937  1  0  -0.537307  0  1.854627  0  0  -0.505781  0  2.091208  0  0  -0.523069  0  2.080875  0  -0.995944  0  -0.311604  -0.493532  0  2.097798  0
O  O135  1  0.25038220  0.12097640  0.54514799  1  0  -0.537252  0  1.854647  0  0  -0.505776  0  2.091267  0  0  -0.52305  0  2.080913  0  -0.995964  0  -0.311584  -0.493524  0  2.097858  0
