# generated using pymatgen
data_ZnH5C8(NO2)2
_symmetry_space_group_name_H-M   'P 1'
_cell_length_a   8.27247296
_cell_length_b   9.21090919
_cell_length_c   12.43269177
_cell_angle_alpha   104.62525580
_cell_angle_beta   90.00049917
_cell_angle_gamma   89.99953071
_symmetry_Int_Tables_number   1
_chemical_formula_structural   ZnH5C8(NO2)2
_chemical_formula_sum   'Zn4 H20 C32 N8 O16'
_cell_volume   916.63823799
_cell_formula_units_Z   4
loop_
 _symmetry_equiv_pos_site_id
 _symmetry_equiv_pos_as_xyz
  1  'x, y, z'
loop_
 _atom_site_type_symbol
 _atom_site_label
 _atom_site_symmetry_multiplicity
 _atom_site_fract_x
 _atom_site_fract_y
 _atom_site_fract_z
 _atom_site_occupancy
 _atom_site_hle17_bader_spin_density
 _atom_site_hle17_ddec_charge
 _atom_site_hle17_ddec_spin_density
 _atom_site_hle17_ddec_sum_bond_order
 _atom_site_hle17_magmom
 _atom_site_hse06_10hf_bader_spin_density
 _atom_site_hse06_10hf_ddec_charge
 _atom_site_hse06_10hf_ddec_spin_density
 _atom_site_hse06_10hf_ddec_sum_bond_order
 _atom_site_hse06_10hf_magmom
 _atom_site_hse06_bader_spin_density
 _atom_site_hse06_ddec_charge
 _atom_site_hse06_ddec_spin_density
 _atom_site_hse06_ddec_sum_bond_order
 _atom_site_hse06_magmom
 _atom_site_pbe_bader_spin_density
 _atom_site_pbe_cm5_charge
 _atom_site_pbe_ddec_charge
 _atom_site_pbe_ddec_spin_density
 _atom_site_pbe_ddec_sum_bond_order
 _atom_site_pbe_magmom
Zn  Zn0  1  0.05387825  0.86895718  0.87966291  1  0  1.081689  0  1.77914  0  0  0.907836  0  2.227945  0  0  0.9561  0  2.174065  0  0  0.685064  0.873317  0  2.264794  0
Zn  Zn1  1  0.55388065  0.63104087  0.12033323  1  0  1.081764  0  1.778978  0  0  0.9079  0  2.227764  0  0  0.956165  0  2.173888  0  0  0.685097  0.873368  0  2.264603  0
Zn  Zn2  1  0.94611754  0.13104562  0.12033757  1  0  1.081597  0  1.779307  0  0  0.907747  0  2.228111  0  0  0.956013  0  2.17423  0  0  0.685051  0.873225  0  2.264962  0
Zn  Zn3  1  0.44611756  0.36895626  0.87966937  1  0  1.081683  0  1.778985  0  0  0.907836  0  2.227728  0  0  0.956102  0  2.173854  0  0  0.685065  0.873303  0  2.264565  0
H  H4  1  0.33506651  0.69799498  0.62578710  1  0  0.098747  0  0.954962  0  0  0.110542  0  1.01452  0  0  0.113612  0  1.012844  0  0  0.101976  0.108258  0  1.015888  0
H  H5  1  0.83507562  0.80200600  0.37420717  1  0  0.09872  0  0.954974  0  0  0.110519  0  1.014521  0  0  0.113588  0  1.012847  0  0  0.101968  0.108245  0  1.015877  0
H  H6  1  0.66493291  0.30200217  0.37421470  1  0  0.09874  0  0.954951  0  0  0.110544  0  1.014515  0  0  0.113615  0  1.012839  0  0  0.101958  0.108283  0  1.015853  0
H  H7  1  0.16492864  0.19800250  0.62578798  1  0  0.098729  0  0.954922  0  0  0.110535  0  1.014479  0  0  0.113616  0  1.01279  0  0  0.101967  0.108272  0  1.015821  0
H  H8  1  0.79841907  0.49636755  0.51672339  1  0  0.088884  0  0.944542  0  0  0.103947  0  0.99836  0  0  0.106888  0  0.996869  0  0  0.102488  0.101923  0  0.999439  0
H  H9  1  0.29842190  0.00363862  0.48327792  1  0  0.088879  0  0.944597  0  0  0.103951  0  0.998408  0  0  0.106892  0  0.996917  0  0  0.102469  0.10193  0  0.999482  0
H  H10  1  0.20158156  0.50362734  0.48327877  1  0  0.088954  0  0.944534  0  0  0.104005  0  0.998365  0  0  0.106946  0  0.996873  0  0  0.10251  0.10198  0  0.999445  0
H  H11  1  0.70157994  0.99636648  0.51671818  1  0  0.088913  0  0.944412  0  0  0.103937  0  0.998292  0  0  0.106878  0  0.9968  0  0  0.10248  0.101917  0  0.999369  0
H  H12  1  0.92133902  0.65852123  0.66232570  1  0  0.113742  0  0.959806  0  0  0.122459  0  1.020239  0  0  0.125797  0  1.017609  0  0  0.119041  0.120034  0  1.022348  0
H  H13  1  0.42134401  0.84146796  0.33767158  1  0  0.113777  0  0.959724  0  0  0.122473  0  1.020177  0  0  0.125814  0  1.017546  0  0  0.119034  0.120048  0  1.022289  0
H  H14  1  0.07866160  0.34148379  0.33767601  1  0  0.113752  0  0.959757  0  0  0.122469  0  1.020193  0  0  0.125807  0  1.017561  0  0  0.119054  0.120045  0  1.022302  0
H  H15  1  0.57866145  0.15851902  0.66233306  1  0  0.113827  0  0.959707  0  0  0.122486  0  1.020204  0  0  0.125824  0  1.017578  0  0  0.119059  0.120062  0  1.022316  0
H  H16  1  0.68011692  0.01830170  0.87982045  1  0  0.105034  0  0.969414  0  0  0.111819  0  1.035842  0  0  0.115099  0  1.031949  0  0  0.132047  0.10925  0  1.039043  0
H  H17  1  0.18011040  0.48169615  0.12018098  1  0  0.105073  0  0.969422  0  0  0.111829  0  1.035882  0  0  0.115108  0  1.03199  0  0  0.132044  0.109257  0  1.039082  0
H  H18  1  0.31987646  0.98170112  0.12017842  1  0  0.105068  0  0.969355  0  0  0.111842  0  1.035794  0  0  0.115128  0  1.031897  0  0  0.132054  0.109272  0  1.038995  0
H  H19  1  0.81988660  0.51829873  0.87982198  1  0  0.105077  0  0.969416  0  0  0.111826  0  1.035878  0  0  0.115111  0  1.031985  0  0  0.132044  0.109253  0  1.039082  0
H  H20  1  0.46925372  0.87322386  0.74566157  1  0  0.30752  0  0.902553  0  0  0.288176  0  0.967033  0  0  0.296296  0  0.960173  0  0  0.316154  0.282342  0  0.971985  0
H  H21  1  0.96925677  0.62678304  0.25433782  1  0  0.307574  0  0.902591  0  0  0.28821  0  0.967053  0  0  0.296344  0  0.960188  0  0  0.316181  0.282376  0  0.972005  0
H  H22  1  0.53074208  0.12677443  0.25433964  1  0  0.307528  0  0.902522  0  0  0.288186  0  0.967008  0  0  0.296303  0  0.960147  0  0  0.316177  0.28235  0  0.971965  0
H  H23  1  0.03074023  0.37322318  0.74565930  1  0  0.307571  0  0.902536  0  0  0.28822  0  0.96701  0  0  0.296342  0  0.96015  0  0  0.316204  0.282384  0  0.971966  0
C  C24  1  0.40876758  0.61212617  0.57092478  1  0  -0.105641  0  3.747731  0  0  -0.127923  0  3.998261  0  0  -0.130225  0  4.018867  0  0  -0.094207  -0.126108  0  3.984277  0
C  C25  1  0.90877544  0.88787550  0.42907084  1  0  -0.105683  0  3.747567  0  0  -0.127981  0  3.998074  0  0  -0.130281  0  4.018677  0  0  -0.094199  -0.126153  0  3.984103  0
C  C26  1  0.59122821  0.38787213  0.42907563  1  0  -0.105667  0  3.747729  0  0  -0.127979  0  3.998262  0  0  -0.130285  0  4.018874  0  0  -0.094176  -0.126182  0  3.98427  0
C  C27  1  0.09123123  0.11213301  0.57092351  1  0  -0.105624  0  3.747567  0  0  -0.127935  0  3.998106  0  0  -0.130243  0  4.018708  0  0  -0.094204  -0.126132  0  3.984113  0
C  C28  1  0.57797099  0.61272729  0.58230745  1  0  0.027756  0  3.846813  0  0  0.043604  0  4.08238  0  0  0.043592  0  4.106954  0  0  -0.011617  0.043529  0  4.065542  0
C  C29  1  0.07797423  0.88727400  0.41768865  1  0  0.027783  0  3.846715  0  0  0.043705  0  4.082216  0  0  0.043689  0  4.106783  0  0  -0.011582  0.04357  0  4.065467  0
C  C30  1  0.42202963  0.38726763  0.41769310  1  0  0.027795  0  3.846902  0  0  0.0437  0  4.082402  0  0  0.04368  0  4.106973  0  0  -0.011593  0.043626  0  4.065569  0
C  C31  1  0.92202761  0.11273222  0.58230847  1  0  0.027741  0  3.846819  0  0  0.043655  0  4.082339  0  0  0.043634  0  4.106909  0  0  -0.011579  0.043579  0  4.065512  0
C  C32  1  0.66714146  0.49859442  0.50970287  1  0  -0.090915  0  3.748835  0  0  -0.111771  0  3.997467  0  0  -0.113933  0  4.018462  0  0  -0.088037  -0.110094  0  3.983196  0
C  C33  1  0.16714319  0.00141030  0.49029501  1  0  -0.090982  0  3.748806  0  0  -0.111873  0  3.997431  0  0  -0.114035  0  4.018433  0  0  -0.088019  -0.110178  0  3.983178  0
C  C34  1  0.33285796  0.50140274  0.49029812  1  0  -0.091066  0  3.748936  0  0  -0.111929  0  3.997564  0  0  -0.114091  0  4.01856  0  0  -0.08808  -0.110252  0  3.983283  0
C  C35  1  0.83286348  0.99859821  0.50969934  1  0  -0.090911  0  3.748698  0  0  -0.11176  0  3.997329  0  0  -0.113917  0  4.018319  0  0  -0.088014  -0.110082  0  3.983054  0
C  C36  1  0.66175737  0.72383671  0.66764161  1  0  0.114882  0  3.79236  0  0  0.10216  0  4.048712  0  0  0.104089  0  4.072722  0  0  0.082164  0.10093  0  4.033146  0
C  C37  1  0.16175926  0.77616523  0.33235509  1  0  0.11496  0  3.792341  0  0  0.102147  0  4.048727  0  0  0.1041  0  4.072738  0  0  0.082136  0.100934  0  4.033175  0
C  C38  1  0.33824325  0.27616270  0.33235982  1  0  0.114972  0  3.792505  0  0  0.102195  0  4.048878  0  0  0.104145  0  4.072857  0  0  0.082157  0.100962  0  4.033312  0
C  C39  1  0.83824016  0.22383762  0.66764218  1  0  0.115014  0  3.792372  0  0  0.102204  0  4.048784  0  0  0.10416  0  4.072769  0  0  0.082111  0.100967  0  4.033227  0
C  C40  1  0.82298381  0.73257492  0.69718048  1  0  -0.033738  0  3.702275  0  0  -0.075258  0  3.972346  0  0  -0.074099  0  3.992206  0  0  5e-05  -0.076504  0  3.960249  0
C  C41  1  0.32298296  0.76742045  0.30281746  1  0  -0.033685  0  3.701966  0  0  -0.075168  0  3.972095  0  0  -0.074012  0  3.991951  0  0  8e-05  -0.076417  0  3.96  0
C  C42  1  0.17702165  0.26742782  0.30282401  1  0  -0.033909  0  3.702358  0  0  -0.075397  0  3.97243  0  0  -0.074245  0  3.992284  0  0  -5.4e-05  -0.076644  0  3.960332  0
C  C43  1  0.67701888  0.23256993  0.69718543  1  0  -0.033852  0  3.702241  0  0  -0.075316  0  3.972364  0  0  -0.074166  0  3.992219  0  0  3.2e-05  -0.076565  0  3.960274  0
C  C44  1  0.70310423  0.91875337  0.81310718  1  0  0.237873  0  3.626592  0  0  0.176243  0  3.899114  0  0  0.190341  0  3.911698  0  0  0.145926  0.166733  0  3.891104  0
C  C45  1  0.20310231  0.58124719  0.18689029  1  0  0.237863  0  3.626632  0  0  0.176237  0  3.899155  0  0  0.190356  0  3.911749  0  0  0.145949  0.166726  0  3.891139  0
C  C46  1  0.29689156  0.08125169  0.18689213  1  0  0.23777  0  3.626655  0  0  0.176163  0  3.899159  0  0  0.190251  0  3.911747  0  0  0.145888  0.16665  0  3.891149  0
C  C47  1  0.79689711  0.41874770  0.81311267  1  0  0.237892  0  3.626693  0  0  0.176274  0  3.899187  0  0  0.19037  0  3.911784  0  0  0.145952  0.166762  0  3.891172  0
C  C48  1  0.21724154  0.58021041  0.83259987  1  0  0.537853  0  3.909094  0  0  0.493771  0  4.199457  0  0  0.523224  0  4.192712  0  0  0.209331  0.473749  0  4.203312  0
C  C49  1  0.71722499  0.91978688  0.16738498  1  0  0.537666  0  3.90907  0  0  0.493667  0  4.199301  0  0  0.523118  0  4.192559  0  0  0.209297  0.47364  0  4.203156  0
C  C50  1  0.78275909  0.41978901  0.16740076  1  0  0.53787  0  3.908938  0  0  0.493697  0  4.199424  0  0  0.523147  0  4.192682  0  0  0.209363  0.473676  0  4.203278  0
C  C51  1  0.28277322  0.08020809  0.83261237  1  0  0.537741  0  3.908928  0  0  0.493613  0  4.199417  0  0  0.523067  0  4.192668  0  0  0.209243  0.473591  0  4.203271  0
C  C52  1  0.31447510  0.67442589  0.93291669  1  0  0.548501  0  3.901651  0  0  0.500709  0  4.193779  0  0  0.530561  0  4.187209  0  0  0.211404  0.480394  0  4.197504  0
C  C53  1  0.81446048  0.82556524  0.06706670  1  0  0.548436  0  3.902001  0  0  0.500604  0  4.19411  0  0  0.530451  0  4.187552  0  0  0.211462  0.480315  0  4.197788  0
C  C54  1  0.68552673  0.32557348  0.06708715  1  0  0.548386  0  3.901849  0  0  0.500607  0  4.194  0  0  0.530466  0  4.187428  0  0  0.211368  0.480293  0  4.197724  0
C  C55  1  0.18554015  0.17443427  0.93292751  1  0  0.548549  0  3.901724  0  0  0.500733  0  4.193922  0  0  0.530577  0  4.18736  0  0  0.211485  0.480432  0  4.197614  0
N  N56  1  0.84686307  0.85245887  0.78765684  1  0  -0.394441  0  3.281706  0  0  -0.316997  0  3.577866  0  0  -0.33839  0  3.59292  0  0  -0.35742  -0.30276  0  3.567875  0
N  N57  1  0.34686209  0.64753308  0.21233494  1  0  -0.394502  0  3.2815  0  0  -0.317116  0  3.577735  0  0  -0.33851  0  3.592785  0  0  -0.357441  -0.30288  0  3.56774  0
N  N58  1  0.15313393  0.14754507  0.21234226  1  0  -0.394284  0  3.281649  0  0  -0.316861  0  3.577803  0  0  -0.338254  0  3.59286  0  0  -0.357316  -0.302624  0  3.567812  0
N  N59  1  0.65313975  0.35245392  0.78766810  1  0  -0.394485  0  3.281645  0  0  -0.317021  0  3.577766  0  0  -0.338417  0  3.592827  0  0  -0.35736  -0.302784  0  3.56777  0
N  N60  1  0.58920466  0.84372067  0.74252731  1  0  -0.314348  0  3.408898  0  0  -0.250528  0  3.641836  0  0  -0.266534  0  3.655735  0  0  -0.372808  -0.239739  0  3.632601  0
N  N61  1  0.08920663  0.65628388  0.25747271  1  0  -0.31448  0  3.409061  0  0  -0.250541  0  3.641917  0  0  -0.266606  0  3.655863  0  0  -0.372828  -0.239755  0  3.632678  0
N  N62  1  0.41079234  0.15627986  0.25747434  1  0  -0.314358  0  3.408862  0  0  -0.250548  0  3.641819  0  0  -0.266549  0  3.655701  0  0  -0.372852  -0.239761  0  3.632588  0
N  N63  1  0.91079158  0.34372008  0.74252558  1  0  -0.314479  0  3.40901  0  0  -0.250602  0  3.641926  0  0  -0.26663  0  3.655835  0  0  -0.372891  -0.239816  0  3.632694  0
O  O64  1  0.09922794  0.64423528  0.79956591  1  0  -0.577418  0  2.113875  0  0  -0.518056  0  2.371691  0  0  -0.543407  0  2.36074  0  0  -0.295899  -0.49995  0  2.378594  0
O  O65  1  0.59923298  0.85575921  0.20042497  1  0  -0.577371  0  2.114208  0  0  -0.518019  0  2.371939  0  0  -0.543369  0  2.360986  0  0  -0.295981  -0.499911  0  2.378844  0
O  O66  1  0.90076181  0.35576627  0.20044237  1  0  -0.577381  0  2.113936  0  0  -0.517965  0  2.371769  0  0  -0.543317  0  2.36082  0  0  -0.295918  -0.499859  0  2.378671  0
O  O67  1  0.40076644  0.14423016  0.79957048  1  0  -0.577299  0  2.11414  0  0  -0.51792  0  2.371934  0  0  -0.543272  0  2.360983  0  0  -0.295832  -0.499811  0  2.378835  0
O  O68  1  0.25730971  0.44443752  0.79146522  1  0  -0.585256  0  2.069427  0  0  -0.529091  0  2.318997  0  0  -0.554398  0  2.30836  0  0  -0.301226  -0.511256  0  2.325759  0
O  O69  1  0.75729950  0.05556228  0.20852657  1  0  -0.585201  0  2.069248  0  0  -0.529044  0  2.318748  0  0  -0.554357  0  2.308128  0  0  -0.301205  -0.511203  0  2.325512  0
O  O70  1  0.74269455  0.55556415  0.20853504  1  0  -0.585283  0  2.069305  0  0  -0.529076  0  2.31891  0  0  -0.554382  0  2.30827  0  0  -0.301228  -0.511241  0  2.32567  0
O  O71  1  0.24269629  0.94443043  0.79147114  1  0  -0.585248  0  2.069195  0  0  -0.529035  0  2.318762  0  0  -0.554347  0  2.308132  0  0  -0.301235  -0.511194  0  2.325527  0
O  O72  1  0.43211398  0.60482294  0.96461138  1  0  -0.615718  0  2.209386  0  0  -0.536587  0  2.48654  0  0  -0.566084  0  2.472781  0  0  -0.299556  -0.515585  0  2.494763  0
O  O73  1  0.93209345  0.89519231  0.03537012  1  0  -0.615661  0  2.20938  0  0  -0.536541  0  2.48652  0  0  -0.566045  0  2.472797  0  0  -0.299566  -0.515542  0  2.494726  0
O  O74  1  0.56788544  0.39517192  0.03539319  1  0  -0.615699  0  2.209461  0  0  -0.536541  0  2.486591  0  0  -0.566039  0  2.472823  0  0  -0.299522  -0.515535  0  2.494799  0
O  O75  1  0.06790718  0.10481278  0.96462758  1  0  -0.615784  0  2.209297  0  0  -0.536645  0  2.486451  0  0  -0.566151  0  2.472728  0  0  -0.299647  -0.515659  0  2.494697  0
O  O76  1  0.27064266  0.80647826  0.97495725  1  0  -0.544989  0  2.03812  0  0  -0.495052  0  2.276469  0  0  -0.518521  0  2.26797  0  0  -0.284902  -0.478454  0  2.281472  0
O  O77  1  0.77063594  0.69353111  0.02502703  1  0  -0.544932  0  2.038632  0  0  -0.494922  0  2.276946  0  0  -0.518385  0  2.268452  0  0  -0.284834  -0.478332  0  2.28193  0
O  O78  1  0.72936401  0.19352332  0.02504943  1  0  -0.544887  0  2.038221  0  0  -0.494998  0  2.276621  0  0  -0.518466  0  2.268119  0  0  -0.28491  -0.4784  0  2.281622  0
O  O79  1  0.22936590  0.30646960  0.97496178  1  0  -0.544964  0  2.038546  0  0  -0.494983  0  2.276914  0  0  -0.518445  0  2.268419  0  0  -0.284847  -0.478387  0  2.281902  0
