# generated using pymatgen
data_SrH8C14SO6
_symmetry_space_group_name_H-M   'P 1'
_cell_length_a   5.70857569
_cell_length_b   11.88266212
_cell_length_c   23.50231824
_cell_angle_alpha   100.38082131
_cell_angle_beta   89.99839085
_cell_angle_gamma   89.99863281
_symmetry_Int_Tables_number   1
_chemical_formula_structural   SrH8C14SO6
_chemical_formula_sum   'Sr4 H32 C56 S4 O24'
_cell_volume   1568.13985548
_cell_formula_units_Z   4
loop_
 _symmetry_equiv_pos_site_id
 _symmetry_equiv_pos_as_xyz
  1  'x, y, z'
loop_
 _atom_site_type_symbol
 _atom_site_label
 _atom_site_symmetry_multiplicity
 _atom_site_fract_x
 _atom_site_fract_y
 _atom_site_fract_z
 _atom_site_occupancy
 _atom_site_pbe_bader_charge
 _atom_site_pbe_bader_spin_density
 _atom_site_pbe_cm5_charge
 _atom_site_pbe_ddec_charge
 _atom_site_pbe_ddec_spin_density
 _atom_site_pbe_ddec_sum_bond_order
 _atom_site_pbe_magmom
Sr  Sr0  1  0.23600560  0.62793785  0.22003425  1  1.693081  0  1.007134  1.478607  0  1.544448  0
Sr  Sr1  1  0.73595005  0.87195764  0.27997016  1  1.693201  0  1.007087  1.478787  0  1.544019  0
Sr  Sr2  1  0.76406321  0.37205231  0.77996058  1  1.692972  0  1.007111  1.478441  0  1.544587  0
Sr  Sr3  1  0.26404518  0.12803087  0.72002834  1  1.693174  0  1.007128  1.478717  0  1.544096  0
H  H4  1  0.54169238  0.37455671  0.93250947  1  0.106341  0  0.112258  0.108764  0  1.027391  0
H  H5  1  0.04171839  0.12548308  0.56747590  1  0.105892  0  0.112097  0.108618  0  1.027312  0
H  H6  1  0.45830460  0.62544648  0.06750011  1  0.10623  0  0.112276  0.108787  0  1.027154  0
H  H7  1  0.95826808  0.87448820  0.43251302  1  0.105268  0  0.112099  0.108636  0  1.027286  0
H  H8  1  0.44421742  0.42430686  0.03815554  1  0.133545  0  0.109252  0.120321  0  1.03781  0
H  H9  1  0.94417168  0.07566378  0.46183795  1  0.133808  0  0.109242  0.120361  0  1.037905  0
H  H10  1  0.55575329  0.57570316  0.96185336  1  0.133187  0  0.109211  0.120238  0  1.037983  0
H  H11  1  0.05577275  0.92432202  0.53815053  1  0.133011  0  0.109226  0.120314  0  1.038034  0
H  H12  1  0.76615184  0.26661918  0.00319346  1  0.095207  0  0.108732  0.112346  0  1.011309  0
H  H13  1  0.26609763  0.23336324  0.49680953  1  0.09497  0  0.108759  0.112388  0  1.01136  0
H  H14  1  0.23384514  0.73335817  0.99680152  1  0.095179  0  0.108798  0.112425  0  1.011364  0
H  H15  1  0.73387133  0.76665100  0.50319591  1  0.095485  0  0.108817  0.112409  0  1.011428  0
H  H16  1  0.86436597  0.21913550  0.89775609  1  0.110493  0  0.119233  0.119751  0  1.000224  0
H  H17  1  0.36437740  0.28093881  0.60223817  1  0.109706  0  0.119196  0.119687  0  1.000123  0
H  H18  1  0.13566254  0.78085555  0.10224094  1  0.110424  0  0.119255  0.119821  0  1.000127  0
H  H19  1  0.63563184  0.71906173  0.39776565  1  0.10972  0  0.119217  0.119722  0  1.000116  0
H  H20  1  0.43358970  0.35194978  0.16199072  1  0.125629  0  0.115741  0.119951  0  1.030475  0
H  H21  1  0.93353665  0.14795366  0.33801441  1  0.126278  0  0.115622  0.119735  0  1.030459  0
H  H22  1  0.56639152  0.64804562  0.83801137  1  0.125418  0  0.115723  0.119806  0  1.030597  0
H  H23  1  0.06643756  0.85204169  0.66198512  1  0.1262  0  0.115623  0.119735  0  1.030397  0
H  H24  1  0.52602026  0.19646588  0.21761237  1  0.110858  0  0.106206  0.108085  0  1.031405  0
H  H25  1  0.02603938  0.30344281  0.28240155  1  0.110592  0  0.106179  0.108268  0  1.031166  0
H  H26  1  0.47396271  0.80353127  0.78239285  1  0.110804  0  0.106141  0.108023  0  1.031457  0
H  H27  1  0.97398563  0.69654578  0.71760293  1  0.110808  0  0.106218  0.108354  0  1.031062  0
H  H28  1  0.85474669  0.04199739  0.17301165  1  0.096879  0  0.116092  0.112567  0  1.007436  0
H  H29  1  0.35474314  0.45793595  0.32698345  1  0.097723  0  0.115983  0.112451  0  1.00769  0
H  H30  1  0.14521876  0.95799630  0.82699114  1  0.097305  0  0.11608  0.112597  0  1.007812  0
H  H31  1  0.64532391  0.54209869  0.67301400  1  0.097925  0  0.115973  0.112349  0  1.0079  0
H  H32  1  0.76371959  0.19260011  0.11453970  1  0.079092  0  0.107232  0.111128  0  1.00656  0
H  H33  1  0.26367929  0.30734125  0.38545800  1  0.078646  0  0.107293  0.111237  0  1.00639  0
H  H34  1  0.23624762  0.80740217  0.88546555  1  0.079181  0  0.107218  0.111101  0  1.006589  0
H  H35  1  0.73634572  0.69270195  0.61454104  1  0.078489  0  0.107289  0.111137  0  1.00653  0
C  C36  1  0.26581544  0.26922097  0.84586066  1  1.596118  0  0.234684  0.618987  0  4.202559  0
C  C37  1  0.76582798  0.23086472  0.65412549  1  1.595651  0  0.234538  0.618688  0  4.203653  0
C  C38  1  0.73422358  0.73079153  0.15414250  1  1.596539  0  0.234749  0.619303  0  4.203461  0
C  C39  1  0.23417076  0.76911942  0.34586625  1  1.596196  0  0.234602  0.618618  0  4.203624  0
C  C40  1  0.20961668  0.29401640  0.90926281  1  0.02161  0  0.000358  -0.018885  0  3.93283  0
C  C41  1  0.70963794  0.20604024  0.59073352  1  0.021252  0  0.000455  -0.018694  0  3.93281  0
C  C42  1  0.79040308  0.70598332  0.09074306  1  0.014002  0  0.00047  -0.018705  0  3.9327  0
C  C43  1  0.29037305  0.79394145  0.40926609  1  0.021512  0  0.000398  -0.018665  0  3.932393  0
C  C44  1  0.37340497  0.35062150  0.94862056  1  0.016078  0  -0.07345  -0.079615  0  3.93775  0
C  C45  1  0.87339195  0.14940731  0.55136667  1  0.015663  0  -0.073171  -0.079237  0  3.937489  0
C  C46  1  0.62660253  0.64937906  0.05138368  1  0.016241  0  -0.073441  -0.079617  0  3.937465  0
C  C47  1  0.12657175  0.85057773  0.44862855  1  0.016552  0  -0.073179  -0.07939  0  3.937433  0
C  C48  1  0.31908769  0.37921932  0.00722496  1  -0.090128  0  -0.081719  -0.093976  0  3.959383  0
C  C49  1  0.81904108  0.12076993  0.49276464  1  -0.08953  0  -0.081802  -0.094314  0  3.959887  0
C  C50  1  0.68089703  0.62078037  0.99277878  1  -0.089704  0  -0.08169  -0.093935  0  3.959308  0
C  C51  1  0.18089284  0.87921926  0.50722201  1  -0.089582  0  -0.081864  -0.094294  0  3.95969  0
C  C52  1  0.09889945  0.34926590  0.02576724  1  -0.175835  0  -0.020014  -0.079662  0  3.985929  0
C  C53  1  0.59884452  0.15070661  0.47423262  1  -0.175863  0  -0.019905  -0.079393  0  3.986361  0
C  C54  1  0.90109579  0.65072693  0.97423462  1  -0.174851  0  -0.020023  -0.079537  0  3.985821  0
C  C55  1  0.40112444  0.84928781  0.52576087  1  -0.175274  0  -0.019915  -0.079297  0  3.985492  0
C  C56  1  0.93604744  0.28912206  0.98741993  1  -0.05839  0  -0.082003  -0.093855  0  3.987101  0
C  C57  1  0.43601715  0.21087618  0.51257611  1  -0.059045  0  -0.082005  -0.093861  0  3.986863  0
C  C58  1  0.06395304  0.71086214  0.01257607  1  -0.059267  0  -0.082143  -0.09411  0  3.987253  0
C  C59  1  0.56396407  0.78913034  0.48742696  1  -0.059699  0  -0.082098  -0.094037  0  3.987013  0
C  C60  1  0.99139113  0.26249843  0.92884837  1  -0.070023  0  -0.068948  -0.082852  0  3.938775  0
C  C61  1  0.49139810  0.23754264  0.57114381  1  -0.068464  0  -0.069001  -0.082982  0  3.938191  0
C  C62  1  0.00862863  0.73749265  0.07115079  1  -0.062808  0  -0.069004  -0.082987  0  3.93848  0
C  C63  1  0.50859713  0.76245272  0.42885572  1  -0.068822  0  -0.069016  -0.082923  0  3.938276  0
C  C64  1  0.09383428  0.27992708  0.13526994  1  -0.254415  0  -0.019968  -0.089003  0  3.999438  0
C  C65  1  0.59376180  0.21998987  0.36472424  1  -0.255874  0  -0.019859  -0.089262  0  3.999536  0
C  C66  1  0.90616095  0.72007005  0.86473443  1  -0.255045  0  -0.020009  -0.08931  0  3.999102  0
C  C67  1  0.40623168  0.78003709  0.63527465  1  -0.256268  0  -0.019817  -0.089258  0  4.000276  0
C  C68  1  0.30974807  0.28282689  0.16350918  1  -0.010636  0  -0.073566  -0.088879  0  3.963664  0
C  C69  1  0.80971230  0.21707972  0.33648941  1  -0.0103  0  -0.073361  -0.088148  0  3.963476  0
C  C70  1  0.69021738  0.71717273  0.83648987  1  -0.010821  0  -0.073527  -0.088545  0  3.963493  0
C  C71  1  0.19028994  0.78292074  0.66350844  1  -0.009961  0  -0.073218  -0.087905  0  3.963244  0
C  C72  1  0.36061431  0.19643543  0.19456133  1  -0.007526  0  -0.077885  -0.086651  0  3.939658  0
C  C73  1  0.86061926  0.30346811  0.30544643  1  -0.008203  0  -0.07809  -0.087255  0  3.940673  0
C  C74  1  0.63934764  0.80355571  0.80544209  1  -0.007537  0  -0.077853  -0.086697  0  3.939709  0
C  C75  1  0.13941276  0.69653157  0.69455688  1  -0.008301  0  -0.078093  -0.08749  0  3.940575  0
C  C76  1  0.19748478  0.10999713  0.19826659  1  -0.048938  0  -0.002871  -0.018942  0  3.917001  0
C  C77  1  0.69749052  0.38991352  0.30173653  1  -0.04848  0  -0.002724  -0.018767  0  3.917217  0
C  C78  1  0.80250344  0.88999570  0.80173612  1  -0.048983  0  -0.002862  -0.018799  0  3.916775  0
C  C79  1  0.30256427  0.61009644  0.69826811  1  -0.049521  0  -0.002823  -0.018933  0  3.917623  0
C  C80  1  0.98296617  0.10808052  0.16900626  1  -0.005598  0  -0.074293  -0.089675  0  3.955874  0
C  C81  1  0.48295190  0.39184611  0.33099077  1  -0.00528  0  -0.07413  -0.089585  0  3.956156  0
C  C82  1  0.01701154  0.89192084  0.83099465  1  -0.005438  0  -0.074298  -0.089817  0  3.956471  0
C  C83  1  0.51709939  0.60818347  0.66901218  1  -0.004658  0  -0.074031  -0.089238  0  3.956535  0
C  C84  1  0.93115062  0.19230405  0.13674475  1  -0.016494  0  -0.081646  -0.09046  0  3.984176  0
C  C85  1  0.43109886  0.30762064  0.36325077  1  -0.01666  0  -0.081975  -0.090685  0  3.984345  0
C  C86  1  0.06883585  0.80769562  0.86325814  1  -0.016674  0  -0.081581  -0.090246  0  3.983931  0
C  C87  1  0.56892615  0.69241147  0.63674986  1  -0.016497  0  -0.082021  -0.090752  0  3.985025  0
C  C88  1  0.25196105  0.02224279  0.23568655  1  1.626882  0  0.231029  0.632926  0  4.206656  0
C  C89  1  0.75200116  0.47766712  0.26431273  1  1.627829  0  0.231096  0.632527  0  4.206544  0
C  C90  1  0.74803068  0.97774911  0.76431013  1  1.626581  0  0.231035  0.632726  0  4.2069  0
C  C91  1  0.24808866  0.52234447  0.73568652  1  1.628555  0  0.230723  0.632322  0  4.20679  0
S  S92  1  0.01663000  0.39328538  0.09924569  1  2.412177  0  0.496171  0.991519  0  5.691585  0
S  S93  1  0.51656504  0.10664300  0.40076236  1  2.414455  0  0.496076  0.991524  0  5.692102  0
S  S94  1  0.98334946  0.60670571  0.90075432  1  2.413003  0  0.496081  0.991235  0  5.692014  0
S  S95  1  0.48337589  0.89336951  0.59924165  1  2.413991  0  0.496098  0.991545  0  5.692057  0
O  O96  1  0.46672388  0.00441034  0.24470541  1  -1.210419  0  -0.397863  -0.656023  0  2.212944  0
O  O97  1  0.96677454  0.49551940  0.25531541  1  -1.212092  0  -0.397945  -0.655657  0  2.212613  0
O  O98  1  0.53326609  0.99559102  0.75529550  1  -1.210428  0  -0.397909  -0.655949  0  2.212925  0
O  O99  1  0.03332580  0.50448031  0.74468961  1  -1.212132  0  -0.397695  -0.655475  0  2.212478  0
O  O100  1  0.07998629  0.97486972  0.25598612  1  -1.23487  0  -0.391872  -0.652366  0  2.218502  0
O  O101  1  0.58002289  0.52500345  0.24399358  1  -1.234713  0  -0.391947  -0.652296  0  2.218813  0
O  O102  1  0.92001945  0.02510676  0.74400750  1  -1.234489  0  -0.391839  -0.652272  0  2.218856  0
O  O103  1  0.42006693  0.47500982  0.75600369  1  -1.234824  0  -0.391816  -0.652208  0  2.218807  0
O  O104  1  0.47807974  0.25983480  0.82981986  1  -1.217474  0  -0.365334  -0.640705  0  2.186743  0
O  O105  1  0.97807588  0.24026100  0.67016358  1  -1.217445  0  -0.365373  -0.640879  0  2.187519  0
O  O106  1  0.52197505  0.74020002  0.17019036  1  -1.217392  0  -0.365337  -0.641005  0  2.187616  0
O  O107  1  0.02191935  0.75971802  0.32982899  1  -1.217642  0  -0.365301  -0.640753  0  2.187517  0
O  O108  1  0.09314606  0.25615483  0.81057220  1  -1.231278  0  -0.417638  -0.687259  0  2.277747  0
O  O109  1  0.59317130  0.24392628  0.68942026  1  -1.23066  0  -0.417563  -0.686872  0  2.277522  0
O  O110  1  0.90689472  0.74383967  0.18942683  1  -1.231689  0  -0.41773  -0.687431  0  2.277989  0
O  O111  1  0.40684846  0.75604770  0.31057868  1  -1.230956  0  -0.417673  -0.686961  0  2.27793  0
O  O112  1  0.16485201  0.49144693  0.12218361  1  -1.331378  0  -0.341014  -0.572783  0  2.258227  0
O  O113  1  0.66477775  0.00847271  0.37782138  1  -1.331563  0  -0.340795  -0.572834  0  2.258595  0
O  O114  1  0.83512571  0.50854415  0.87781555  1  -1.331602  0  -0.340956  -0.572546  0  2.258133  0
O  O115  1  0.33512289  0.99153194  0.62217046  1  -1.33181  0  -0.340946  -0.572775  0  2.258455  0
O  O116  1  0.76388773  0.40582088  0.10133877  1  -1.260572  0  -0.293991  -0.513423  0  2.200506  0
O  O117  1  0.26381771  0.09411888  0.39866730  1  -1.261452  0  -0.294018  -0.513362  0  2.200547  0
O  O118  1  0.23608648  0.59417277  0.89866104  1  -1.260469  0  -0.293946  -0.513279  0  2.200747  0
O  O119  1  0.73611621  0.90592596  0.60132678  1  -1.260869  0  -0.293914  -0.513344  0  2.20047  0
