# generated using pymatgen
data_CdH8(C3N)4
_symmetry_space_group_name_H-M   'P 1'
_cell_length_a   8.41434581
_cell_length_b   8.98053932
_cell_length_c   12.84915549
_cell_angle_alpha   92.39866284
_cell_angle_beta   98.20648503
_cell_angle_gamma   105.33581817
_symmetry_Int_Tables_number   1
_chemical_formula_structural   CdH8(C3N)4
_chemical_formula_sum   'Cd3 H24 C36 N12'
_cell_volume   923.56074484
_cell_formula_units_Z   3
loop_
 _symmetry_equiv_pos_site_id
 _symmetry_equiv_pos_as_xyz
  1  'x, y, z'
loop_
 _atom_site_type_symbol
 _atom_site_label
 _atom_site_symmetry_multiplicity
 _atom_site_fract_x
 _atom_site_fract_y
 _atom_site_fract_z
 _atom_site_occupancy
 _atom_site_hle17_bader_spin_density
 _atom_site_hle17_ddec_charge
 _atom_site_hle17_ddec_spin_density
 _atom_site_hle17_ddec_sum_bond_order
 _atom_site_hle17_magmom
 _atom_site_hse06_10hf_bader_spin_density
 _atom_site_hse06_10hf_ddec_charge
 _atom_site_hse06_10hf_ddec_spin_density
 _atom_site_hse06_10hf_ddec_sum_bond_order
 _atom_site_hse06_10hf_magmom
 _atom_site_hse06_bader_spin_density
 _atom_site_hse06_ddec_charge
 _atom_site_hse06_ddec_spin_density
 _atom_site_hse06_ddec_sum_bond_order
 _atom_site_hse06_magmom
 _atom_site_pbe_bader_spin_density
 _atom_site_pbe_cm5_charge
 _atom_site_pbe_ddec_charge
 _atom_site_pbe_ddec_spin_density
 _atom_site_pbe_ddec_sum_bond_order
 _atom_site_pbe_magmom
Cd  Cd0  1  0.99914002  0.99587619  0.99930807  1  0  0.959583  0  2.072224  0  0  0.764577  0  2.549813  0  0  0.809673  0  2.507943  0  0  0.749777  0.733184  0  2.578184  0
Cd  Cd1  1  0.78878293  0.17126267  0.59619750  1  0  0.869339  0  2.103668  0  0  0.657202  0  2.577598  0  0  0.703983  0  2.538892  0  0  0.718017  0.62477  0  2.603664  0
Cd  Cd2  1  0.38104410  0.59221601  0.07979706  1  0  0.624547  0  2.449479  0  0  0.443012  0  2.951207  0  0  0.47289  0  2.913877  0  0  0.515343  0.422732  0  2.976373  0
H  H3  1  0.18794389  0.85299617  0.19853581  1  0  0.070703  0  0.95922  0  0  0.078777  0  1.026587  0  0  0.07976  0  1.026948  0  0  0.109848  0.078014  0  1.026397  0
H  H4  1  0.27348106  0.89669473  0.39256793  1  0  0.113323  0  0.96127  0  0  0.118815  0  1.028235  0  0  0.121695  0  1.027654  0  0  0.106706  0.116739  0  1.028775  0
H  H5  1  0.22514633  0.13288766  0.48682927  1  0  0.099955  0  0.933406  0  0  0.111191  0  0.99032  0  0  0.113165  0  0.990076  0  0  0.109064  0.109763  0  0.990499  0
H  H6  1  0.09327424  0.30459858  0.38255089  1  0  0.118281  0  0.956087  0  0  0.127957  0  1.015464  0  0  0.130732  0  1.01506  0  0  0.109418  0.125985  0  1.015855  0
H  H7  1  0.04876372  0.46799876  0.27793524  1  0  0.11837  0  0.955496  0  0  0.128925  0  1.011597  0  0  0.132216  0  1.01054  0  0  0.111419  0.126574  0  1.012494  0
H  H8  1  0.90094599  0.61666870  0.15619083  1  0  0.093797  0  0.951445  0  0  0.105738  0  1.009813  0  0  0.107663  0  1.00947  0  0  0.106904  0.10433  0  1.010119  0
H  H9  1  0.75308031  0.49233183  0.97900257  1  0  0.101748  0  0.972846  0  0  0.109266  0  1.036669  0  0  0.110914  0  1.039031  0  0  0.10311  0.108083  0  1.035168  0
H  H10  1  0.76929404  0.22404470  0.92637745  1  0  0.078493  0  0.935782  0  0  0.08688  0  0.99724  0  0  0.089019  0  0.996094  0  0  0.113162  0.085317  0  0.998093  0
H  H11  1  0.89722993  0.85289391  0.62274108  1  0  0.071184  0  0.976515  0  0  0.076544  0  1.047409  0  0  0.078377  0  1.04668  0  0  0.109474  0.075186  0  1.048008  0
H  H12  1  0.93851837  0.62668558  0.51625990  1  0  0.107233  0  0.961339  0  0  0.114048  0  1.02541  0  0  0.116536  0  1.025763  0  0  0.107222  0.112266  0  1.025295  0
H  H13  1  0.85211056  0.60689009  0.32003605  1  0  0.085076  0  0.965283  0  0  0.098365  0  1.023796  0  0  0.100362  0  1.022999  0  0  0.105024  0.096929  0  1.024341  0
H  H14  1  0.73756974  0.80959263  0.23836562  1  0  0.095069  0  0.995573  0  0  0.104422  0  1.06159  0  0  0.10653  0  1.06173  0  0  0.100459  0.102887  0  1.061665  0
H  H15  1  0.61887474  0.96201526  0.18141893  1  0  0.104712  0  0.970979  0  0  0.115528  0  1.032308  0  0  0.117866  0  1.032161  0  0  0.10468  0.113767  0  1.032671  0
H  H16  1  0.49290345  0.16893037  0.11843061  1  0  0.103506  0  0.948619  0  0  0.115573  0  1.003598  0  0  0.117637  0  1.002987  0  0  0.1073  0.114021  0  1.004129  0
H  H17  1  0.48172134  0.38117786  0.25005156  1  0  0.096094  0  0.97863  0  0  0.103598  0  1.046912  0  0  0.105982  0  1.046897  0  0  0.098707  0.10186  0  1.047071  0
H  H18  1  0.59659295  0.37281075  0.43883984  1  0  0.08096  0  0.917489  0  0  0.092549  0  0.973106  0  0  0.094938  0  0.971635  0  0  0.118553  0.090795  0  0.974217  0
H  H19  1  0.49135735  0.83951997  0.54832177  1  0  0.082646  0  0.936923  0  0  0.088309  0  1.002912  0  0  0.0913  0  1.000338  0  0  0.114813  0.08615  0  1.004759  0
H  H20  1  0.25331588  0.68897901  0.62872678  1  0  0.120421  0  0.995811  0  0  0.124618  0  1.061879  0  0  0.12879  0  1.059601  0  0  0.103603  0.121617  0  1.063639  0
H  H21  1  0.14119634  0.83203182  0.76398572  1  0  0.091866  0  0.944358  0  0  0.104413  0  1.001025  0  0  0.106463  0  1.000246  0  0  0.105104  0.102904  0  1.001663  0
H  H22  1  0.26654891  0.11413992  0.80568072  1  0  0.114876  0  0.975888  0  0  0.121392  0  1.042099  0  0  0.124412  0  1.041392  0  0  0.105394  0.119244  0  1.042713  0
H  H23  1  0.32362851  0.35481874  0.78166688  1  0  0.115379  0  0.947862  0  0  0.127293  0  1.002608  0  0  0.129866  0  1.002839  0  0  0.112544  0.125462  0  1.00258  0
H  H24  1  0.47800949  0.63346510  0.82178713  1  0  0.093728  0  0.93529  0  0  0.107343  0  0.989843  0  0  0.109238  0  0.989299  0  0  0.10983  0.105945  0  0.99029  0
H  H25  1  0.77055117  0.72537592  0.78290475  1  0  0.104402  0  0.96822  0  0  0.113084  0  1.031583  0  0  0.115589  0  1.03151  0  0  0.103873  0.111306  0  1.031733  0
H  H26  1  0.89215194  0.53080845  0.69851367  1  0  0.073701  0  0.947503  0  0  0.083251  0  1.009499  0  0  0.085458  0  1.008084  0  0  0.112114  0.081643  0  1.010525  0
C  C27  1  0.16706841  0.95136417  0.24199748  1  0  0.131305  0  3.712325  0  0  0.103405  0  3.961974  0  0  0.109368  0  3.981912  0  0  0.04822  0.099587  0  3.948279  0
C  C28  1  0.21603108  0.97736890  0.35104213  1  0  -0.111459  0  3.714403  0  0  -0.125387  0  3.966072  0  0  -0.131796  0  3.988556  0  0  -0.08049  -0.12122  0  3.950908  0
C  C29  1  0.18949084  0.10675797  0.40176986  1  0  0.004158  0  3.707142  0  0  -0.014315  0  3.959474  0  0  -0.011427  0  3.978534  0  0  -0.06279  -0.015943  0  3.946379  0
C  C30  1  0.11472845  0.20404209  0.34263908  1  0  -0.131888  0  3.674655  0  0  -0.152467  0  3.922273  0  0  -0.159113  0  3.943932  0  0  -0.074673  -0.148148  0  3.907688  0
C  C31  1  0.06688116  0.16911184  0.23349444  1  0  0.168699  0  3.748192  0  0  0.167285  0  3.987476  0  0  0.172629  0  4.009352  0  0  0.118905  0.163743  0  3.972581  0
C  C32  1  0.98180212  0.26531823  0.16646900  1  0  0.179041  0  3.765245  0  0  0.174621  0  4.005886  0  0  0.181236  0  4.027001  0  0  0.120158  0.170268  0  3.991503  0
C  C33  1  0.98083673  0.41507408  0.20110502  1  0  -0.152651  0  3.706977  0  0  -0.170397  0  3.954731  0  0  -0.177486  0  3.97593  0  0  -0.07993  -0.165832  0  3.94053  0
C  C34  1  0.89954183  0.49818589  0.13313542  1  0  -0.008346  0  3.734644  0  0  -0.025625  0  3.983498  0  0  -0.023641  0  4.004299  0  0  -0.068082  -0.026632  0  3.969269  0
C  C35  1  0.81781789  0.43023915  0.03360146  1  0  -0.109782  0  3.725349  0  0  -0.120648  0  3.970377  0  0  -0.128042  0  3.99446  0  0  -0.079889  -0.115851  0  3.954099  0
C  C36  1  0.82601595  0.28176767  0.00451991  1  0  0.134254  0  3.717069  0  0  0.106937  0  3.963546  0  0  0.113024  0  3.982181  0  0  0.05167  0.103065  0  3.950699  0
C  C37  1  0.86244295  0.83684301  0.53713978  1  0  0.127146  0  3.719297  0  0  0.096319  0  3.970926  0  0  0.102261  0  3.990296  0  0  0.047312  0.092539  0  3.957633  0
C  C38  1  0.88467762  0.71233562  0.47817368  1  0  -0.115685  0  3.726641  0  0  -0.125994  0  3.972804  0  0  -0.132745  0  3.994948  0  0  -0.080248  -0.121614  0  3.957824  0
C  C39  1  0.83789832  0.70270698  0.36917319  1  0  -0.00039  0  3.726932  0  0  -0.016756  0  3.969956  0  0  -0.013967  0  3.989025  0  0  -0.064945  -0.018288  0  3.95685  0
C  C40  1  0.77226682  0.81573977  0.32346773  1  0  -0.125121  0  3.704737  0  0  -0.145254  0  3.951174  0  0  -0.151933  0  3.973686  0  0  -0.076855  -0.140975  0  3.936096  0
C  C41  1  0.75131850  0.93634595  0.38806003  1  0  0.18154  0  3.73971  0  0  0.176052  0  3.980677  0  0  0.182746  0  4.000692  0  0  0.12359  0.171616  0  3.967105  0
C  C42  1  0.67600783  0.05773559  0.34475323  1  0  0.179011  0  3.739916  0  0  0.17528  0  3.981042  0  0  0.181631  0  4.001532  0  0  0.122481  0.171116  0  3.967085  0
C  C43  1  0.61369999  0.05436855  0.23721068  1  0  -0.130114  0  3.678297  0  0  -0.150563  0  3.926569  0  0  -0.157128  0  3.947902  0  0  -0.077394  -0.146305  0  3.912243  0
C  C44  1  0.54361522  0.17073078  0.20151403  1  0  0.00137  0  3.708763  0  0  -0.016583  0  3.955554  0  0  -0.013637  0  3.975276  0  0  -0.066107  -0.018175  0  3.941982  0
C  C45  1  0.53714352  0.28859965  0.27356841  1  0  -0.115489  0  3.732337  0  0  -0.127644  0  3.98191  0  0  -0.134722  0  4.005293  0  0  -0.083544  -0.123059  0  3.966149  0
C  C46  1  0.60075221  0.28401440  0.37922104  1  0  0.129531  0  3.72275  0  0  0.099513  0  3.97649  0  0  0.106004  0  3.994361  0  0  0.048382  0.095371  0  3.964195  0
C  C47  1  0.43802832  0.89698923  0.60551816  1  0  0.139148  0  3.695539  0  0  0.110554  0  3.948877  0  0  0.117102  0  3.96601  0  0  0.050476  0.106344  0  3.937114  0
C  C48  1  0.30407360  0.81325004  0.65059772  1  0  -0.122979  0  3.709859  0  0  -0.13229  0  3.952663  0  0  -0.13929  0  3.974097  0  0  -0.081592  -0.127671  0  3.938128  0
C  C49  1  0.24204326  0.89270710  0.72372458  1  0  -0.003908  0  3.731088  0  0  -0.019758  0  3.975847  0  0  -0.017796  0  3.996883  0  0  -0.06597  -0.020752  0  3.961363  0
C  C50  1  0.31208055  0.05158833  0.74733588  1  0  -0.137143  0  3.687381  0  0  -0.155149  0  3.929746  0  0  -0.162006  0  3.951685  0  0  -0.078572  -0.150663  0  3.914945  0
C  C51  1  0.44561174  0.12724173  0.69792215  1  0  0.169008  0  3.765108  0  0  0.166654  0  4.004648  0  0  0.172395  0  4.025148  0  0  0.118338  0.162865  0  3.990737  0
C  C52  1  0.52837545  0.29569692  0.72090112  1  0  0.182364  0  3.748516  0  0  0.179131  0  3.986999  0  0  0.185933  0  4.006678  0  0  0.123271  0.174522  0  3.973753  0
C  C53  1  0.45064281  0.39681971  0.76587705  1  0  -0.123701  0  3.688503  0  0  -0.144177  0  3.933969  0  0  -0.150656  0  3.95521  0  0  -0.071248  -0.139973  0  3.919738  0
C  C54  1  0.53671522  0.55277203  0.78760634  1  0  0.00409  0  3.721976  0  0  -0.013678  0  3.970181  0  0  -0.011136  0  3.989792  0  0  -0.061286  -0.01507  0  3.956725  0
C  C55  1  0.69864473  0.60472235  0.76508689  1  0  -0.114705  0  3.727369  0  0  -0.126885  0  3.973849  0  0  -0.133176  0  3.995997  0  0  -0.081964  -0.1228  0  3.958858  0
C  C56  1  0.76633908  0.49774069  0.71871721  1  0  0.117744  0  3.73994  0  0  0.089928  0  3.987791  0  0  0.095599  0  4.007091  0  0  0.04511  0.086313  0  3.974559  0
C  C57  1  0.37422414  0.63003020  0.24994535  1  0  -0.178897  0  3.376269  0  0  -0.139232  0  3.703289  0  0  -0.142879  0  3.715402  0  0  -0.048427  -0.136432  0  3.694646  0
C  C58  1  0.02694253  0.34820085  0.58802004  1  0  -0.203532  0  3.322032  0  0  -0.172667  0  3.648205  0  0  -0.176701  0  3.658398  0  0  -0.04544  -0.16952  0  3.640884  0
C  C59  1  0.21280129  0.72344618  0.00245115  1  0  -0.065869  0  3.232943  0  0  -0.046542  0  3.536201  0  0  -0.042141  0  3.545226  0  0  -0.004133  -0.049396  0  3.529893  0
C  C60  1  0.30810053  0.34791871  0.01685290  1  0  -0.088372  0  3.274527  0  0  -0.064612  0  3.595944  0  0  -0.062446  0  3.604768  0  0  -0.014871  -0.06595  0  3.589809  0
C  C61  1  0.90608131  0.02516964  0.83153359  1  0  -0.112728  0  3.21216  0  0  -0.098305  0  3.522634  0  0  -0.09636  0  3.531484  0  0  0.003603  -0.099312  0  3.516421  0
C  C62  1  0.62871610  0.72807837  0.04552105  1  0  -0.086659  0  3.259461  0  0  -0.06378  0  3.573938  0  0  -0.060281  0  3.580762  0  0  -0.001851  -0.066003  0  3.569158  0
N  N63  1  0.09422511  0.04377188  0.18485724  1  0  -0.341126  0  3.232738  0  0  -0.271987  0  3.488808  0  0  -0.290273  0  3.508087  0  0  -0.322962  -0.259419  0  3.475397  0
N  N64  1  0.90676095  0.20286621  0.06880694  1  0  -0.350644  0  3.270887  0  0  -0.282845  0  3.526737  0  0  -0.301161  0  3.546356  0  0  -0.32664  -0.270288  0  3.513037  0
N  N65  1  0.79713490  0.94482291  0.49360148  1  0  -0.334764  0  3.229433  0  0  -0.264498  0  3.487791  0  0  -0.281659  0  3.504767  0  0  -0.322078  -0.252804  0  3.476024  0
N  N66  1  0.66830686  0.17221879  0.41378491  1  0  -0.344217  0  3.23945  0  0  -0.278233  0  3.501567  0  0  -0.295438  0  3.519253  0  0  -0.322517  -0.266512  0  3.489299  0
N  N67  1  0.50794577  0.04922439  0.62903477  1  0  -0.341185  0  3.225375  0  0  -0.277535  0  3.486854  0  0  -0.29418  0  3.504214  0  0  -0.32471  -0.266128  0  3.474793  0
N  N68  1  0.68314670  0.34788864  0.69644362  1  0  -0.343819  0  3.240223  0  0  -0.274302  0  3.495596  0  0  -0.291597  0  3.513232  0  0  -0.32366  -0.262438  0  3.483365  0
N  N69  1  0.36407029  0.65990195  0.33809697  1  0  -0.364703  0  2.775736  0  0  -0.337643  0  3.001592  0  0  -0.345938  0  3.018181  0  0  -0.365222  -0.331859  0  2.990125  0
N  N70  1  0.14978180  0.44279221  0.57967211  1  0  -0.375251  0  2.855871  0  0  -0.341933  0  3.091041  0  0  -0.351183  0  3.107039  0  0  -0.36439  -0.335593  0  3.080042  0
N  N71  1  0.13438845  0.81036517  0.97977779  1  0  -0.406887  0  3.08974  0  0  -0.342737  0  3.369156  0  0  -0.361891  0  3.382495  0  0  -0.375702  -0.329688  0  3.35983  0
N  N72  1  0.25910349  0.21555642  0.98913528  1  0  -0.407236  0  2.95722  0  0  -0.359146  0  3.220943  0  0  -0.374133  0  3.235096  0  0  -0.362777  -0.348926  0  3.211242  0
N  N73  1  0.86521953  0.04609823  0.74374452  1  0  -0.392883  0  3.090322  0  0  -0.32878  0  3.371676  0  0  -0.346634  0  3.386915  0  0  -0.369622  -0.316755  0  3.361129  0
N  N74  1  0.75709512  0.80756860  0.03138831  1  0  -0.395267  0  3.019176  0  0  -0.340006  0  3.296705  0  0  -0.356387  0  3.308973  0  0  -0.362395  -0.328825  0  3.288187  0
