# generated using pymatgen
data_UH4C7NO6
_symmetry_space_group_name_H-M   'P 1'
_cell_length_a   7.91654887
_cell_length_b   10.40747953
_cell_length_c   11.97015338
_cell_angle_alpha   109.64332771
_cell_angle_beta   89.99956407
_cell_angle_gamma   90.00011647
_symmetry_Int_Tables_number   1
_chemical_formula_structural   UH4C7NO6
_chemical_formula_sum   'U4 H16 C28 N4 O24'
_cell_volume   928.84122613
_cell_formula_units_Z   4
loop_
 _symmetry_equiv_pos_site_id
 _symmetry_equiv_pos_as_xyz
  1  'x, y, z'
loop_
 _atom_site_type_symbol
 _atom_site_label
 _atom_site_symmetry_multiplicity
 _atom_site_fract_x
 _atom_site_fract_y
 _atom_site_fract_z
 _atom_site_occupancy
 _atom_site_hle17_bader_spin_density
 _atom_site_hle17_ddec_charge
 _atom_site_hle17_ddec_spin_density
 _atom_site_hle17_ddec_sum_bond_order
 _atom_site_hle17_magmom
 _atom_site_hse06_10hf_bader_spin_density
 _atom_site_hse06_10hf_ddec_charge
 _atom_site_hse06_10hf_ddec_spin_density
 _atom_site_hse06_10hf_ddec_sum_bond_order
 _atom_site_hse06_10hf_magmom
 _atom_site_hse06_bader_spin_density
 _atom_site_hse06_ddec_charge
 _atom_site_hse06_ddec_spin_density
 _atom_site_hse06_ddec_sum_bond_order
 _atom_site_hse06_magmom
 _atom_site_pbe_bader_spin_density
 _atom_site_pbe_cm5_charge
 _atom_site_pbe_ddec_charge
 _atom_site_pbe_ddec_spin_density
 _atom_site_pbe_ddec_sum_bond_order
 _atom_site_pbe_magmom
U  U0  1  0.27519218  0.24026617  0.86478716  1  0  2.401409  0  4.200159  0  0  2.447439  0  4.871689  0  0  2.555533  0  4.836994  0  0  2.195087  2.370656  0  4.896684  0
U  U1  1  0.77519497  0.75973548  0.63521217  1  0  2.401339  0  4.199847  0  0  2.44743  0  4.87124  0  0  2.555418  0  4.836709  0  0  2.195097  2.370578  0  4.896363  0
U  U2  1  0.72481106  0.75972977  0.13521553  1  0  2.401457  0  4.199901  0  0  2.447495  0  4.871351  0  0  2.555552  0  4.836683  0  0  2.195104  2.370674  0  4.896358  0
U  U3  1  0.22481332  0.24026668  0.36478402  1  0  2.401369  0  4.199779  0  0  2.447431  0  4.871216  0  0  2.555452  0  4.836621  0  0  2.195064  2.370596  0  4.896281  0
H  H4  1  0.18342542  0.97871808  0.52782047  1  0  0.137385  0  0.937753  0  0  0.148933  0  0.991674  0  0  0.153002  0  0.98833  0  0  0.127678  0.146098  0  0.994114  0
H  H5  1  0.68342468  0.02128152  0.97218371  1  0  0.137442  0  0.93769  0  0  0.148953  0  0.991663  0  0  0.153023  0  0.988317  0  0  0.127679  0.146116  0  0.994094  0
H  H6  1  0.81657656  0.02128401  0.47218156  1  0  0.137436  0  0.937737  0  0  0.148961  0  0.991683  0  0  0.15303  0  0.988338  0  0  0.127693  0.146124  0  0.994115  0
H  H7  1  0.31657856  0.97871751  0.02781740  1  0  0.137435  0  0.9377  0  0  0.148963  0  0.991648  0  0  0.153033  0  0.988301  0  0  0.127682  0.146125  0  0.994078  0
H  H8  1  0.08312363  0.78063534  0.35251674  1  0  0.114359  0  0.932659  0  0  0.127204  0  0.985131  0  0  0.130156  0  0.982917  0  0  0.124074  0.125136  0  0.986838  0
H  H9  1  0.58312222  0.21936418  0.14748944  1  0  0.11434  0  0.932816  0  0  0.127168  0  0.985272  0  0  0.130118  0  0.983061  0  0  0.124083  0.125104  0  0.98697  0
H  H10  1  0.91687456  0.21936573  0.64748497  1  0  0.114326  0  0.932681  0  0  0.12721  0  0.985114  0  0  0.130162  0  0.9829  0  0  0.124095  0.125148  0  0.986821  0
H  H11  1  0.41687849  0.78063587  0.85251114  1  0  0.114372  0  0.932801  0  0  0.1272  0  0.98525  0  0  0.130149  0  0.983039  0  0  0.124094  0.125137  0  0.986942  0
H  H12  1  0.26200722  0.56816119  0.28608477  1  0  0.120119  0  0.940763  0  0  0.131606  0  0.995276  0  0  0.13511  0  0.993224  0  0  0.119442  0.129  0  0.997007  0
H  H13  1  0.76200311  0.43183722  0.21392020  1  0  0.12  0  0.940908  0  0  0.131535  0  0.995379  0  0  0.13504  0  0.993325  0  0  0.119413  0.128925  0  0.997114  0
H  H14  1  0.73799096  0.43183785  0.71391550  1  0  0.12007  0  0.940838  0  0  0.131594  0  0.995307  0  0  0.135101  0  0.993251  0  0  0.119451  0.128985  0  0.997047  0
H  H15  1  0.23799508  0.56816385  0.78608068  1  0  0.120049  0  0.940843  0  0  0.131539  0  0.995362  0  0  0.135082  0  0.993257  0  0  0.119428  0.128929  0  0.997103  0
H  H16  1  0.52700336  0.56053593  0.39515425  1  0  0.09256  0  0.94022  0  0  0.09971  0  1.004225  0  0  0.103102  0  1.000254  0  0  0.130601  0.097112  0  1.007306  0
H  H17  1  0.02699788  0.43946366  0.10484805  1  0  0.092606  0  0.940201  0  0  0.099737  0  1.00422  0  0  0.103136  0  1.000243  0  0  0.130588  0.097139  0  1.007297  0
H  H18  1  0.47299609  0.43946311  0.60484519  1  0  0.092544  0  0.940186  0  0  0.099683  0  1.004212  0  0  0.103082  0  1.000235  0  0  0.130576  0.097091  0  1.007288  0
H  H19  1  0.97300157  0.56053844  0.89515230  1  0  0.092637  0  0.940188  0  0  0.099769  0  1.0042  0  0  0.103166  0  1.000224  0  0  0.130604  0.097174  0  1.007281  0
C  C20  1  0.43099887  0.52577913  0.04755957  1  0  0.553765  0  3.92046  0  0  0.519744  0  4.222259  0  0  0.552606  0  4.213983  0  0  0.23508  0.497243  0  4.226343  0
C  C21  1  0.93099080  0.47422842  0.45244314  1  0  0.553791  0  3.920453  0  0  0.519783  0  4.222287  0  0  0.552643  0  4.214009  0  0  0.235065  0.497282  0  4.226364  0
C  C22  1  0.56900816  0.47423312  0.95244884  1  0  0.553866  0  3.920288  0  0  0.519922  0  4.222003  0  0  0.552788  0  4.213725  0  0  0.235155  0.497422  0  4.226096  0
C  C23  1  0.06900233  0.52577165  0.54755577  1  0  0.553849  0  3.920482  0  0  0.51983  0  4.222338  0  0  0.552693  0  4.214059  0  0  0.235129  0.497334  0  4.226412  0
C  C24  1  0.47050683  0.98139392  0.65669789  1  0  0.672286  0  3.848965  0  0  0.635764  0  4.147631  0  0  0.675521  0  4.134841  0  0  0.255738  0.608138  0  4.15565  0
C  C25  1  0.97050003  0.01860552  0.84330566  1  0  0.672178  0  3.849127  0  0  0.635705  0  4.147745  0  0  0.675456  0  4.134973  0  0  0.255706  0.60809  0  4.155753  0
C  C26  1  0.52949894  0.01860103  0.34330199  1  0  0.672169  0  3.849186  0  0  0.635567  0  4.147976  0  0  0.675317  0  4.135213  0  0  0.255637  0.607956  0  4.15596  0
C  C27  1  0.02949563  0.98139553  0.15669689  1  0  0.672159  0  3.849141  0  0  0.635608  0  4.147848  0  0  0.675359  0  4.135075  0  0  0.255685  0.607987  0  4.155862  0
C  C28  1  0.40431810  0.87081612  0.55102015  1  0  0.074784  0  3.762786  0  0  0.083531  0  4.005368  0  0  0.082924  0  4.025393  0  0  0.11645  0.083677  0  3.992057  0
C  C29  1  0.90431542  0.12918440  0.94898237  1  0  0.074839  0  3.762923  0  0  0.083523  0  4.005568  0  0  0.082916  0  4.0256  0  0  0.116494  0.083663  0  3.992273  0
C  C30  1  0.59568387  0.12918495  0.44898156  1  0  0.074767  0  3.762989  0  0  0.083529  0  4.005578  0  0  0.082923  0  4.025611  0  0  0.11646  0.083679  0  3.992261  0
C  C31  1  0.09568530  0.87081465  0.05101707  1  0  0.074799  0  3.763049  0  0  0.083541  0  4.005647  0  0  0.082934  0  4.02568  0  0  0.116459  0.083681  0  3.992351  0
C  C32  1  0.25489475  0.88425545  0.49502125  1  0  -0.066097  0  3.637399  0  0  -0.09103  0  3.879906  0  0  -0.092386  0  3.89588  0  0  -0.050133  -0.090008  0  3.868996  0
C  C33  1  0.75489726  0.11574400  0.00498240  1  0  -0.066158  0  3.637328  0  0  -0.091086  0  3.879886  0  0  -0.092438  0  3.895851  0  0  -0.050152  -0.090056  0  3.868965  0
C  C34  1  0.74510091  0.11574562  0.50497964  1  0  -0.066231  0  3.637498  0  0  -0.091156  0  3.88004  0  0  -0.092508  0  3.896007  0  0  -0.050166  -0.090127  0  3.869121  0
C  C35  1  0.24510219  0.88425706  0.99501931  1  0  -0.066188  0  3.637367  0  0  -0.091139  0  3.879906  0  0  -0.092491  0  3.89587  0  0  -0.050158  -0.090104  0  3.868977  0
C  C36  1  0.20066447  0.77456857  0.39777965  1  0  0.017553  0  3.640006  0  0  0.000836  0  3.886001  0  0  0.003383  0  3.901961  0  0  -0.042553  -0.000668  0  3.875007  0
C  C37  1  0.70065983  0.22543190  0.10222708  1  0  0.017412  0  3.640088  0  0  0.000742  0  3.88606  0  0  0.003294  0  3.902011  0  0  -0.042637  -0.000765  0  3.875064  0
C  C38  1  0.79933624  0.22543250  0.60222207  1  0  0.017626  0  3.639809  0  0  0.000873  0  3.885835  0  0  0.003419  0  3.901796  0  0  -0.042577  -0.00063  0  3.874852  0
C  C39  1  0.29934089  0.77456815  0.89777350  1  0  0.017406  0  3.640106  0  0  0.000748  0  3.886071  0  0  0.003298  0  3.902034  0  0  -0.042638  -0.000751  0  3.875067  0
C  C40  1  0.29820323  0.65664760  0.36113305  1  0  -0.076419  0  3.659647  0  0  -0.093187  0  3.911769  0  0  -0.0973  0  3.928985  0  0  -0.059069  -0.090579  0  3.900355  0
C  C41  1  0.79820102  0.34335182  0.13887122  1  0  -0.076169  0  3.659617  0  0  -0.092988  0  3.911708  0  0  -0.097095  0  3.92892  0  0  -0.05899  -0.090375  0  3.900294  0
C  C42  1  0.70179622  0.34335247  0.63886587  1  0  -0.076343  0  3.659509  0  0  -0.09313  0  3.911653  0  0  -0.097244  0  3.928867  0  0  -0.059022  -0.090515  0  3.900254  0
C  C43  1  0.20179970  0.65665026  0.86113080  1  0  -0.07619  0  3.659556  0  0  -0.092983  0  3.911672  0  0  -0.097119  0  3.92887  0  0  -0.058981  -0.090375  0  3.900277  0
C  C44  1  0.44730824  0.65110078  0.42207273  1  0  0.157482  0  3.659499  0  0  0.127216  0  3.930101  0  0  0.136071  0  3.944328  0  0  0.074094  0.121257  0  3.920593  0
C  C45  1  0.94730676  0.34889963  0.07792776  1  0  0.157388  0  3.659497  0  0  0.127149  0  3.930067  0  0  0.135999  0  3.9443  0  0  0.074088  0.121196  0  3.920559  0
C  C46  1  0.55268994  0.34889830  0.57792338  1  0  0.157492  0  3.659592  0  0  0.127213  0  3.930208  0  0  0.136066  0  3.944441  0  0  0.074045  0.121251  0  3.920711  0
C  C47  1  0.05269395  0.65109941  0.92207251  1  0  0.157336  0  3.659432  0  0  0.127097  0  3.930008  0  0  0.135947  0  3.94425  0  0  0.074061  0.121141  0  3.920514  0
N  N48  1  0.49993431  0.75580960  0.51571454  1  0  -0.396593  0  3.250722  0  0  -0.368934  0  3.535182  0  0  -0.389695  0  3.560331  0  0  -0.358034  -0.354443  0  3.517789  0
N  N49  1  0.99993027  0.24419189  0.98428698  1  0  -0.39656  0  3.25081  0  0  -0.368872  0  3.535278  0  0  -0.389645  0  3.560428  0  0  -0.358036  -0.3544  0  3.517912  0
N  N50  1  0.50006767  0.24419148  0.48428551  1  0  -0.396511  0  3.251008  0  0  -0.368828  0  3.535456  0  0  -0.389597  0  3.560609  0  0  -0.35797  -0.354342  0  3.51808  0
N  N51  1  0.00007045  0.75581021  0.01571421  1  0  -0.396497  0  3.250947  0  0  -0.368824  0  3.535398  0  0  -0.389599  0  3.560551  0  0  -0.357979  -0.354344  0  3.518024  0
O  O52  1  0.29878468  0.45351988  0.03347123  1  0  -0.592763  0  2.052388  0  0  -0.575606  0  2.30676  0  0  -0.607909  0  2.303123  0  0  -0.325152  -0.551262  0  2.307612  0
O  O53  1  0.79879686  0.54647862  0.46652440  1  0  -0.592684  0  2.052859  0  0  -0.575509  0  2.307204  0  0  -0.607785  0  2.303561  0  0  -0.325074  -0.551155  0  2.308043  0
O  O54  1  0.70120720  0.54647918  0.96652655  1  0  -0.59274  0  2.052844  0  0  -0.575594  0  2.307185  0  0  -0.607884  0  2.303535  0  0  -0.325162  -0.551257  0  2.308045  0
O  O55  1  0.20121017  0.45351431  0.53347237  1  0  -0.592761  0  2.052653  0  0  -0.575591  0  2.307003  0  0  -0.607885  0  2.303367  0  0  -0.325128  -0.551252  0  2.307868  0
O  O56  1  0.16448041  0.33170406  0.78255735  1  0  -0.696767  0  1.554186  0  0  -0.709645  0  1.843107  0  0  -0.73173  0  1.830103  0  0  -0.756288  -0.696243  0  1.852799  0
O  O57  1  0.66448450  0.66829970  0.71744064  1  0  -0.696701  0  1.554207  0  0  -0.709599  0  1.84313  0  0  -0.731654  0  1.830139  0  0  -0.756334  -0.696194  0  1.852843  0
O  O58  1  0.83551778  0.66829806  0.21744134  1  0  -0.696762  0  1.554356  0  0  -0.709632  0  1.843279  0  0  -0.731699  0  1.830278  0  0  -0.756386  -0.696234  0  1.852984  0
O  O59  1  0.33551495  0.33169829  0.28256099  1  0  -0.696724  0  1.554391  0  0  -0.709591  0  1.843324  0  0  -0.731648  0  1.830321  0  0  -0.756425  -0.696184  0  1.853019  0
O  O60  1  0.46334976  0.63560762  0.13081152  1  0  -0.584796  0  2.0618  0  0  -0.569027  0  2.31367  0  0  -0.601512  0  2.311378  0  0  -0.32666  -0.544993  0  2.314107  0
O  O61  1  0.96335120  0.36438571  0.36918092  1  0  -0.584928  0  2.061396  0  0  -0.569167  0  2.313261  0  0  -0.601655  0  2.310978  0  0  -0.326748  -0.545128  0  2.313702  0
O  O62  1  0.53664591  0.36438535  0.86918192  1  0  -0.584989  0  2.061231  0  0  -0.569245  0  2.313057  0  0  -0.601743  0  2.31077  0  0  -0.326769  -0.545209  0  2.313507  0
O  O63  1  0.03664951  0.63560831  0.63081033  1  0  -0.584898  0  2.061698  0  0  -0.569134  0  2.313562  0  0  -0.601612  0  2.311281  0  0  -0.326741  -0.5451  0  2.314015  0
O  O64  1  0.37710716  0.15211585  0.95263623  1  0  -0.678695  0  1.607725  0  0  -0.691062  0  1.904514  0  0  -0.714252  0  1.894136  0  0  -0.749431  -0.676883  0  1.912328  0
O  O65  1  0.87711628  0.84788985  0.54736131  1  0  -0.678687  0  1.607513  0  0  -0.691066  0  1.904286  0  0  -0.714236  0  1.893928  0  0  -0.749358  -0.676892  0  1.912131  0
O  O66  1  0.62288976  0.84788830  0.04736474  1  0  -0.678717  0  1.607464  0  0  -0.691068  0  1.904199  0  0  -0.71425  0  1.893829  0  0  -0.749293  -0.676885  0  1.91202  0
O  O67  1  0.12288317  0.15210917  0.45263980  1  0  -0.678706  0  1.607216  0  0  -0.691096  0  1.903981  0  0  -0.714262  0  1.893595  0  0  -0.749255  -0.676917  0  1.911824  0
O  O68  1  0.39812915  0.09732395  0.69061496  1  0  -0.623726  0  2.062168  0  0  -0.610854  0  2.335858  0  0  -0.644983  0  2.328363  0  0  -0.364776  -0.585767  0  2.339942  0
O  O69  1  0.89813029  0.90268068  0.80938549  1  0  -0.623644  0  2.062444  0  0  -0.61077  0  2.336067  0  0  -0.64488  0  2.328595  0  0  -0.364683  -0.585676  0  2.340148  0
O  O70  1  0.60187409  0.90267916  0.30938737  1  0  -0.62361  0  2.062561  0  0  -0.610708  0  2.336296  0  0  -0.64481  0  2.32876  0  0  -0.364673  -0.585622  0  2.340357  0
O  O71  1  0.10187169  0.09732042  0.19061289  1  0  -0.623628  0  2.062347  0  0  -0.610757  0  2.336077  0  0  -0.644879  0  2.328606  0  0  -0.364708  -0.585656  0  2.340146  0
O  O72  1  0.59879598  0.95292146  0.70799081  1  0  -0.625805  0  2.058124  0  0  -0.612644  0  2.324154  0  0  -0.647641  0  2.319387  0  0  -0.346152  -0.587451  0  2.326317  0
O  O73  1  0.09879982  0.04708334  0.79200949  1  0  -0.62585  0  2.057963  0  0  -0.612673  0  2.323944  0  0  -0.647687  0  2.319179  0  0  -0.346213  -0.587491  0  2.326103  0
O  O74  1  0.40120095  0.04707655  0.29200916  1  0  -0.625868  0  2.057927  0  0  -0.612664  0  2.32398  0  0  -0.647668  0  2.319218  0  0  -0.346199  -0.587483  0  2.32614  0
O  O75  1  0.90120468  0.95291878  0.20799003  1  0  -0.625797  0  2.058011  0  0  -0.612619  0  2.324061  0  0  -0.647629  0  2.319295  0  0  -0.346179  -0.587433  0  2.326217  0
