# generated using pymatgen
data_Zn4H5C24S4Br2ClO13
_symmetry_space_group_name_H-M   'P 1'
_cell_length_a   19.67734671
_cell_length_b   19.71277242
_cell_length_c   33.38773861
_cell_angle_alpha   79.05910168
_cell_angle_beta   79.16474443
_cell_angle_gamma   63.93819695
_symmetry_Int_Tables_number   1
_chemical_formula_structural   Zn4H5C24S4Br2ClO13
_chemical_formula_sum   'Zn16 H20 C96 S16 Br8 Cl4 O52'
_cell_volume   11342.01487123
_cell_formula_units_Z   4
loop_
 _symmetry_equiv_pos_site_id
 _symmetry_equiv_pos_as_xyz
  1  'x, y, z'
loop_
 _atom_site_type_symbol
 _atom_site_label
 _atom_site_symmetry_multiplicity
 _atom_site_fract_x
 _atom_site_fract_y
 _atom_site_fract_z
 _atom_site_occupancy
 _atom_site_pbe_bader_charge
 _atom_site_pbe_bader_spin_density
 _atom_site_pbe_cm5_charge
 _atom_site_pbe_ddec_charge
 _atom_site_pbe_ddec_spin_density
 _atom_site_pbe_ddec_sum_bond_order
 _atom_site_pbe_magmom
Zn  Zn0  1  0.05580290  0.39934183  0.47787261  1  1.320216  0  0.672032  0.976894  0  2.317621  0
Zn  Zn1  1  0.98589431  0.48420931  0.56048080  1  1.307659  0  0.673381  0.96954  0  2.369384  0
Zn  Zn2  1  0.05764352  0.56135031  0.48229245  1  1.321482  0  0.674057  0.971403  0  2.382535  0
Zn  Zn3  1  0.90070649  0.55425544  0.48016089  1  1.318863  0  0.67411  0.971482  0  2.381665  0
Zn  Zn4  1  0.69403924  0.34958907  0.27147723  1  1.318489  0  0.673002  0.971254  0  2.351201  0
Zn  Zn5  1  0.68848159  0.18952711  0.26628341  1  1.309935  0  0.67185  0.969243  0  2.34517  0
Zn  Zn6  1  0.76978724  0.26522175  0.19067041  1  1.314076  0  0.674364  0.972094  0  2.375923  0
Zn  Zn7  1  0.84726334  0.19474727  0.27307972  1  1.314448  0  0.671502  0.962445  0  2.37873  0
Zn  Zn8  1  0.26699780  0.76683629  0.68967283  1  1.312123  0  0.671512  0.961043  0  2.376017  0
Zn  Zn9  1  0.34930296  0.69729689  0.77197348  1  1.318589  0  0.673544  0.971983  0  2.353461  0
Zn  Zn10  1  0.19245877  0.84800606  0.77139758  1  1.318256  0  0.673931  0.972694  0  2.367883  0
Zn  Zn11  1  0.19213093  0.68722302  0.76664081  1  1.318343  0  0.672704  0.969633  0  2.361575  0
Zn  Zn12  1  0.56050832  0.05988857  0.98319808  1  1.317824  0  0.672896  0.966496  0  2.364756  0
Zn  Zn13  1  0.40142748  0.05504588  0.97829706  1  1.31522  0  0.671895  0.9621  0  2.370253  0
Zn  Zn14  1  0.55534311  0.90106044  0.97829748  1  1.314122  0  0.672385  0.967213  0  2.3663  0
Zn  Zn15  1  0.48366567  0.98271365  0.06044125  1  1.312289  0  0.672125  0.965994  0  2.363416  0
H  H16  1  0.95478782  0.24879398  0.35162415  1  0.092076  0  0.110603  0.117496  0  0.991792  0
H  H17  1  0.74738634  0.45325595  0.34980189  1  0.13499  0  0.112049  0.131719  0  0.993235  0
H  H18  1  0.99932267  0.30021309  0.39972624  1  0.095321  0  0.112327  0.120304  0  0.990402  0
H  H19  1  0.09721555  0.59696259  0.69970716  1  0.123306  0  0.111694  0.119059  0  0.988842  0
H  H20  1  0.20218966  0.70156854  0.59825227  1  0.128701  0  0.110946  0.130523  0  0.994737  0
H  H21  1  0.05069210  0.55128229  0.64971937  1  0.106885  0  0.112078  0.120206  0  0.992428  0
H  H22  1  0.46316210  0.24009895  0.34105295  1  0.143719  0  0.121695  0.147337  0  0.969433  0
H  H23  1  0.47948758  0.70269115  0.60127788  1  0.117791  0  0.122147  0.147768  0  0.969162  0
H  H24  1  0.20304196  0.97913292  0.60147147  1  0.115787  0  0.121625  0.147633  0  0.969885  0
H  H25  1  0.94808554  0.97019504  0.34795597  1  0.113674  0  0.121687  0.147211  0  0.97081  0
H  H26  1  0.54999546  0.05008824  0.15346379  1  0.073631  0  0.111876  0.119046  0  0.989155  0
H  H27  1  0.65120637  0.15172278  0.04862690  1  0.15089  0  0.111496  0.131247  0  0.993029  0
H  H28  1  0.59998647  0.09985372  0.19959741  1  0.080571  0  0.11269  0.120815  0  0.991064  0
H  H29  1  0.54749799  0.77023298  0.14843767  1  0.106236  0  0.122356  0.147771  0  0.969754  0
H  H30  1  0.16277276  0.14142279  0.04056649  1  0.093546  0  0.122282  0.148122  0  0.968735  0
H  H31  1  0.50125956  0.79522826  0.89844354  1  0.093312  0  0.112663  0.120317  0  0.987726  0
H  H32  1  0.29707907  0.00294801  0.89994087  1  0.132095  0  0.110637  0.129286  0  0.996006  0
H  H33  1  0.44932840  0.75134363  0.85034476  1  0.104703  0  0.11296  0.121597  0  0.989907  0
H  H34  1  0.30096648  0.27983967  0.90212469  1  0.142009  0  0.121845  0.146965  0  0.96905  0
H  H35  1  0.78696783  0.00969531  0.90885667  1  0.148135  0  0.122404  0.147931  0  0.968256  0
C  C36  1  0.06171962  0.31632370  0.56172049  1  1.604937  0  0.215224  0.620431  0  4.212726  0
C  C37  1  0.06906872  0.57024409  0.56919696  1  1.576407  0  0.227121  0.613703  0  4.160996  0
C  C38  1  0.18324290  0.43955723  0.43855052  1  1.598503  0  0.215679  0.622002  0  4.208752  0
C  C39  1  0.93685699  0.68389639  0.43879377  1  1.619511  0  0.214043  0.61748  0  4.214075  0
C  C40  1  0.93118232  0.42984661  0.43098092  1  1.588518  0  0.228323  0.617608  0  4.159386  0
C  C41  1  0.81701364  0.56120213  0.56238978  1  1.582684  0  0.215607  0.620655  0  4.210029  0
C  C42  1  0.56548572  0.31133831  0.31129614  1  1.56846  0  0.218834  0.614221  0  4.213014  0
C  C43  1  0.68093434  0.18011039  0.18101470  1  1.553123  0  0.228362  0.617087  0  4.157064  0
C  C44  1  0.68983368  0.43308922  0.18838262  1  1.61898  0  0.215868  0.621137  0  4.208998  0
C  C45  1  0.93516726  0.18771791  0.18985090  1  1.599013  0  0.215488  0.618691  0  4.21201  0
C  C46  1  0.81953387  0.31912830  0.31943131  1  1.56906  0  0.231351  0.605783  0  4.160803  0
C  C47  1  0.81084758  0.06577913  0.31160714  1  1.598286  0  0.218219  0.613074  0  4.215945  0
C  C48  1  0.43379455  0.68954891  0.68819328  1  1.553537  0  0.218292  0.61214  0  4.21551  0
C  C49  1  0.31904191  0.81961547  0.81928429  1  1.583438  0  0.227944  0.615467  0  4.158195  0
C  C50  1  0.18858001  0.93355910  0.68827396  1  1.550327  0  0.218318  0.610832  0  4.215528  0
C  C51  1  0.06597058  0.80957293  0.81107951  1  1.593725  0  0.214797  0.618749  0  4.212853  0
C  C52  1  0.18121559  0.68019731  0.68069211  1  1.553931  0  0.231271  0.606582  0  4.16244  0
C  C53  1  0.31295949  0.56602523  0.81132865  1  1.598922  0  0.215266  0.620149  0  4.213326  0
C  C54  1  0.43825780  0.18388036  0.93864364  1  1.544315  0  0.219302  0.612482  0  4.210776  0
C  C55  1  0.43118290  0.93017050  0.93071204  1  1.568178  0  0.231606  0.606917  0  4.160561  0
C  C56  1  0.68420167  0.93885684  0.93868106  1  1.54914  0  0.218617  0.611667  0  4.213295  0
C  C57  1  0.56143537  0.81574843  0.06160108  1  1.57281  0  0.218203  0.611107  0  4.215633  0
C  C58  1  0.56919153  0.06885216  0.06966030  1  1.557225  0  0.231328  0.60637  0  4.158719  0
C  C59  1  0.31591088  0.06139092  0.06119100  1  1.529536  0  0.218365  0.612739  0  4.214167  0
C  C60  1  0.89935333  0.40489371  0.40196948  1  -0.030967  0  -0.014203  -0.093006  0  3.907314  0
C  C61  1  0.84817692  0.34817992  0.34789161  1  -0.053138  0  -0.009767  -0.009009  0  3.972601  0
C  C62  1  0.82749250  0.44836179  0.38747249  1  0.105689  0  0.026711  0.14653  0  3.994737  0
C  C63  1  0.91964252  0.30447354  0.36182906  1  0.02116  0  -0.081901  -0.099773  0  3.975288  0
C  C64  1  0.80277624  0.41965851  0.36073815  1  0.021592  0  -0.084843  -0.160953  0  3.946373  0
C  C65  1  0.94411091  0.33303291  0.38840739  1  -0.017642  0  -0.076417  -0.075061  0  3.969343  0
C  C66  1  0.09978914  0.60018390  0.59619696  1  0.0978  0  -0.013529  -0.089798  0  3.90725  0
C  C67  1  0.15251345  0.65208516  0.65180957  1  -0.036535  0  -0.009773  -0.008402  0  3.972968  0
C  C68  1  0.14317785  0.64307537  0.58171202  1  -0.023418  0  0.026657  0.145715  0  3.996683  0
C  C69  1  0.10971111  0.60955652  0.66668646  1  -0.057051  0  -0.081388  -0.099494  0  3.970962  0
C  C70  1  0.16890148  0.66854595  0.60954872  1  0.080011  0  -0.08568  -0.162458  0  3.947323  0
C  C71  1  0.08409052  0.58439049  0.63900215  1  -0.055474  0  -0.075724  -0.074674  0  3.964389  0
C  C72  1  0.30464099  0.45471247  0.40106596  1  -0.025442  0  -0.023136  0.059588  0  4.00258  0
C  C73  1  0.44606757  0.29675858  0.34903727  1  0.038392  0  -0.087582  -0.131494  0  3.958062  0
C  C74  1  0.25835954  0.41595403  0.41397523  1  -0.112883  0  -0.030099  -0.172568  0  3.948214  0
C  C75  1  0.49086229  0.33667396  0.33649100  1  -0.177098  0  -0.023222  -0.116896  0  3.974664  0
C  C76  1  0.37800291  0.33969936  0.37267842  1  -0.162992  0  -0.021042  0.002909  0  4.067679  0
C  C77  1  0.37276784  0.41142317  0.37753604  1  -0.153608  0  -0.029977  -0.071553  0  4.093957  0
C  C78  1  0.72592052  0.57567197  0.63040415  1  -0.040586  0  -0.02397  0.059234  0  4.00649  0
C  C79  1  0.52421414  0.67358988  0.62127697  1  0.006715  0  -0.086796  -0.130795  0  3.956932  0
C  C80  1  0.74295202  0.58505365  0.58792161  1  -0.11696  0  -0.029772  -0.172158  0  3.951406  0
C  C81  1  0.50896383  0.66368328  0.66364877  1  -0.080866  0  -0.023584  -0.116361  0  3.974808  0
C  C82  1  0.60350006  0.64142427  0.60899996  1  -0.170739  0  -0.020375  0.003079  0  4.069085  0
C  C83  1  0.64654894  0.60775675  0.64249978  1  -0.099454  0  -0.030347  -0.072341  0  4.097213  0
C  C84  1  0.07617050  0.22541748  0.62992429  1  0.026848  0  -0.023123  0.059834  0  4.001911  0
C  C85  1  0.17400485  0.02387424  0.62133618  1  0.002563  0  -0.087403  -0.132039  0  3.958558  0
C  C86  1  0.08566478  0.24229584  0.58739978  1  -0.126539  0  -0.030067  -0.172092  0  3.949164  0
C  C87  1  0.16368066  0.00872553  0.66370902  1  -0.077175  0  -0.023676  -0.115758  0  3.972919  0
C  C88  1  0.14203617  0.10303565  0.60888664  1  -0.164298  0  -0.020514  0.002479  0  4.071787  0
C  C89  1  0.10818313  0.14616249  0.64224179  1  -0.155376  0  -0.030093  -0.071559  0  4.094527  0
C  C90  1  0.84220730  0.80090177  0.39705133  1  -0.067064  0  -0.023392  0.059082  0  4.006759  0
C  C91  1  0.90382400  0.94968252  0.35252418  1  0.078355  0  -0.087044  -0.130803  0  3.957951  0
C  C92  1  0.91062878  0.75833435  0.41365247  1  -0.112475  0  -0.029496  -0.171253  0  3.948957  0
C  C93  1  0.83517525  0.99085032  0.33641033  1  -0.19632  0  -0.022935  -0.115974  0  3.975145  0
C  C94  1  0.90665852  0.88014190  0.37468111  1  -0.188181  0  -0.020412  0.003605  0  4.068103  0
C  C95  1  0.83981783  0.87028497  0.37483515  1  -0.088433  0  -0.030117  -0.071861  0  4.096542  0
C  C96  1  0.65351016  0.15345330  0.15063952  1  -0.035637  0  -0.014014  -0.091308  0  3.905465  0
C  C97  1  0.59785665  0.09788334  0.09816387  1  0.008289  0  -0.009245  -0.009482  0  3.971371  0
C  C98  1  0.66776936  0.16808790  0.10745008  1  0.057152  0  0.026927  0.14643  0  3.994005  0
C  C99  1  0.58300656  0.08306197  0.14087796  1  0.012703  0  -0.081561  -0.09888  0  3.97374  0
C  C100  1  0.63997077  0.14025676  0.08180099  1  0.019262  0  -0.08489  -0.160996  0  3.944945  0
C  C101  1  0.61069872  0.11069004  0.16632442  1  0.0036  0  -0.076437  -0.076282  0  3.96926  0
C  C102  1  0.67405486  0.52385795  0.12009551  1  -0.026785  0  -0.023111  0.060199  0  4.003249  0
C  C103  1  0.57641604  0.72546393  0.12858369  1  0.022419  0  -0.086916  -0.130666  0  3.958836  0
C  C104  1  0.66503053  0.50703345  0.16264855  1  -0.158213  0  -0.029442  -0.172473  0  3.94572  0
C  C105  1  0.58648588  0.74057694  0.08620639  1  -0.078807  0  -0.023481  -0.116161  0  3.973236  0
C  C106  1  0.60830144  0.64630438  0.14107680  1  -0.180752  0  -0.020045  0.004145  0  4.068061  0
C  C107  1  0.64185682  0.60310081  0.10774673  1  -0.102658  0  -0.029613  -0.072307  0  4.093808  0
C  C108  1  0.08282545  0.12333038  0.17834415  1  0.00173  0  -0.023456  0.059371  0  4.005949  0
C  C109  1  0.17032503  0.12484354  0.07294716  1  0.119804  0  -0.087005  -0.131143  0  3.956716  0
C  C110  1  0.01058620  0.16224326  0.16559656  1  -0.176131  0  -0.029714  -0.171072  0  3.947909  0
C  C111  1  0.24146899  0.08604862  0.08653566  1  -0.17083  0  -0.023287  -0.116366  0  3.973276  0
C  C112  1  0.11215652  0.13858849  0.10642406  1  -0.1482  0  -0.019147  0.004996  0  4.063766  0
C  C113  1  0.14074371  0.10977780  0.14473623  1  -0.165905  0  -0.030304  -0.072526  0  4.096724  0
C  C114  1  0.34458685  0.85141446  0.84800522  1  -0.030101  0  -0.013711  -0.092082  0  3.906889  0
C  C115  1  0.40203658  0.90195315  0.90206825  1  -0.032347  0  -0.010088  -0.009737  0  3.972496  0
C  C116  1  0.30148542  0.92323546  0.86234602  1  0.065376  0  0.02643  0.145113  0  3.997854  0
C  C117  1  0.44550588  0.83060826  0.88819364  1  0.002117  0  -0.080951  -0.098779  0  3.970425  0
C  C118  1  0.33053202  0.94762162  0.88907416  1  0.044788  0  -0.085192  -0.160912  0  3.948818  0
C  C119  1  0.41662112  0.80647130  0.86159838  1  -0.002052  0  -0.075547  -0.07466  0  3.963899  0
C  C120  1  0.40756234  0.44856551  0.85301910  1  -0.017632  0  -0.023185  0.058764  0  4.006993  0
C  C121  1  0.34538086  0.30014423  0.89757188  1  0.102765  0  -0.086868  -0.130001  0  3.95692  0
C  C122  1  0.33923937  0.49133525  0.83632140  1  -0.158009  0  -0.030084  -0.172462  0  3.948712  0
C  C123  1  0.41395631  0.25877428  0.91373999  1  -0.193037  0  -0.023248  -0.116475  0  3.97377  0
C  C124  1  0.34285210  0.36952816  0.87531232  1  -0.158162  0  -0.020211  0.003352  0  4.066742  0
C  C125  1  0.40977664  0.37919956  0.87519369  1  -0.135772  0  -0.029872  -0.070853  0  4.093871  0
C  C126  1  0.94487607  0.79448512  0.84922511  1  0.019164  0  -0.023163  0.060392  0  4.004308  0
C  C127  1  0.80390717  0.95296438  0.90101927  1  0.040766  0  -0.0864  -0.129148  0  3.954744  0
C  C128  1  0.99121197  0.83309980  0.83599495  1  -0.118191  0  -0.029914  -0.173006  0  3.947121  0
C  C129  1  0.75897561  0.91321595  0.91369636  1  -0.180598  0  -0.023064  -0.116658  0  3.974296  0
C  C130  1  0.87191068  0.90975514  0.87741133  1  -0.153208  0  -0.020272  0.002488  0  4.067352  0
C  C131  1  0.87692975  0.83798940  0.87278358  1  -0.166155  0  -0.03044  -0.073378  0  4.096216  0
S  S132  1  0.29881232  0.32626261  0.39724052  1  0.288661  0  0.087194  0.136631  0  2.731713  0
S  S133  1  0.45107882  0.42616371  0.35318441  1  0.307202  0  0.087426  0.13805  0  2.77784  0
S  S134  1  0.66135777  0.63312570  0.56285721  1  0.274898  0  0.090708  0.141337  0  2.733909  0
S  S135  1  0.59007786  0.61545827  0.68887658  1  0.274045  0  0.087283  0.138002  0  2.782703  0
S  S136  1  0.13392561  0.16067339  0.56262603  1  0.265604  0  0.087809  0.137598  0  2.733808  0
S  S137  1  0.11543569  0.08982978  0.68872087  1  0.29041  0  0.088939  0.139708  0  2.778074  0
S  S138  1  0.97199717  0.80359352  0.40189296  1  0.276254  0  0.089864  0.140266  0  2.73111  0
S  S139  1  0.77377504  0.94591933  0.34787662  1  0.297489  0  0.085692  0.135901  0  2.78101  0
S  S140  1  0.61670310  0.58875168  0.18738313  1  0.286435  0  0.089834  0.14005  0  2.728348  0
S  S141  1  0.63438766  0.65937256  0.06122890  1  0.279925  0  0.087947  0.138592  0  2.775835  0
S  S142  1  0.01398790  0.18216128  0.11224242  1  0.306295  0  0.090904  0.141049  0  2.729085  0
S  S143  1  0.23855143  0.06595609  0.13974192  1  0.306169  0  0.086534  0.13675  0  2.780113  0
S  S144  1  0.27776657  0.44615785  0.84796861  1  0.290533  0  0.088523  0.138566  0  2.730921  0
S  S145  1  0.47564815  0.30342054  0.90219885  1  0.289575  0  0.087668  0.137992  0  2.777598  0
S  S146  1  0.95108910  0.92294023  0.85258149  1  0.288195  0  0.091576  0.142879  0  2.729437  0
S  S147  1  0.79854212  0.82354623  0.89724468  1  0.303682  0  0.088018  0.139134  0  2.777652  0
Br  Br148  1  0.28479060  0.55217597  0.41189151  1  0.010882  0  0.045086  -0.009174  0  1.409131  0
Br  Br149  1  0.79524667  0.52724677  0.66946346  1  0.008361  0  0.042806  -0.01183  0  1.408037  0
Br  Br150  1  0.02777871  0.29470561  0.66885613  1  0.006758  0  0.042576  -0.012078  0  1.407141  0
Br  Br151  1  0.76000826  0.77457860  0.40164343  1  0.011069  0  0.045405  -0.008688  0  1.409533  0
Br  Br152  1  0.72169355  0.45447810  0.08121461  1  0.018367  0  0.045828  -0.008373  0  1.408357  0
Br  Br153  1  0.10671639  0.09039235  0.23256455  1  0.007209  0  0.042765  -0.011409  0  1.394846  0
Br  Br154  1  0.49008890  0.47440763  0.84842868  1  0.008981  0  0.046044  -0.007452  0  1.396113  0
Br  Br155  1  0.96467351  0.69682157  0.83877126  1  0.006257  0  0.043931  -0.010434  0  1.395925  0
Cl  Cl156  1  0.76492391  0.53770154  0.40043715  1  -0.181827  0  -0.01336  -0.075175  0  1.494299  0
Cl  Cl157  1  0.16843818  0.66736426  0.53041096  1  -0.17013  0  -0.014167  -0.075846  0  1.493103  0
Cl  Cl158  1  0.71849032  0.21984281  0.08258626  1  -0.180271  0  -0.012996  -0.0747  0  1.493182  0
Cl  Cl159  1  0.21231665  0.98613345  0.84901588  1  -0.181723  0  -0.012155  -0.072882  0  1.48214  0
O  O160  1  0.00099685  0.49782813  0.50011176  1  -1.21808  0  -0.570524  -1.030216  0  2.518284  0
O  O161  1  0.07790408  0.31423497  0.52280267  1  -1.176643  0  -0.32018  -0.5484  0  2.317485  0
O  O162  1  0.03249152  0.53082373  0.58735935  1  -1.168494  0  -0.312709  -0.54126  0  2.327917  0
O  O163  1  0.15398474  0.50570982  0.44991153  1  -1.168548  0  -0.315327  -0.538488  0  2.390809  0
O  O164  1  0.02740318  0.37537666  0.58029133  1  -1.177907  0  -0.315276  -0.538487  0  2.389995  0
O  O165  1  0.15409716  0.39101359  0.44617797  1  -1.156399  0  -0.320486  -0.549886  0  2.316449  0
O  O166  1  0.08116275  0.58608822  0.53060431  1  -1.170808  0  -0.313232  -0.546051  0  2.434472  0
O  O167  1  0.00398656  0.65826433  0.44934178  1  -1.16722  0  -0.318781  -0.541904  0  2.328097  0
O  O168  1  0.88980368  0.49394053  0.44378043  1  -1.181411  0  -0.313635  -0.545286  0  2.439306  0
O  O169  1  0.89145566  0.65157998  0.44796344  1  -1.169118  0  -0.313567  -0.538817  0  2.386776  0
O  O170  1  0.99763891  0.38439744  0.44069433  1  -1.168142  0  -0.313983  -0.546729  0  2.315374  0
O  O171  1  0.87661804  0.52697939  0.58065696  1  -1.166864  0  -0.315303  -0.541711  0  2.383491  0
O  O172  1  0.81434187  0.57761747  0.52348438  1  -1.150231  0  -0.31865  -0.542234  0  2.329069  0
O  O173  1  0.74901395  0.24982705  0.25086849  1  -1.216003  0  -0.57034  -1.029814  0  2.519087  0
O  O174  1  0.59650863  0.35823723  0.30337406  1  -1.181997  0  -0.319433  -0.546055  0  2.330879  0
O  O175  1  0.66162981  0.16340346  0.21909836  1  -1.15144  0  -0.31399  -0.545117  0  2.318097  0
O  O176  1  0.72629915  0.37379382  0.17012006  1  -1.172148  0  -0.314998  -0.53941  0  2.385847  0
O  O177  1  0.59226460  0.24539378  0.29966970  1  -1.171209  0  -0.316123  -0.540621  0  2.310153  0
O  O178  1  0.67233714  0.43532613  0.22725943  1  -1.172688  0  -0.320232  -0.547077  0  2.321434  0
O  O179  1  0.72122413  0.21690946  0.16687014  1  -1.15998  0  -0.313339  -0.546645  0  2.435359  0
O  O180  1  0.87813287  0.22298295  0.16913189  1  -1.17124  0  -0.318308  -0.541095  0  2.326508  0
O  O181  1  0.86304091  0.25299598  0.30915244  1  -1.167332  0  -0.312047  -0.541095  0  2.33704  0
O  O182  1  0.93269465  0.17292900  0.22877853  1  -1.15619  0  -0.315309  -0.541687  0  2.384676  0
O  O183  1  0.75425748  0.36267370  0.30789474  1  -1.177069  0  -0.311663  -0.54082  0  2.335589  0
O  O184  1  0.74475425  0.09318297  0.29964456  1  -1.174162  0  -0.319499  -0.548306  0  2.331694  0
O  O185  1  0.85782758  0.09648589  0.30432281  1  -1.178595  0  -0.316016  -0.53741  0  2.316421  0
O  O186  1  0.25050261  0.74936355  0.74988616  1  -1.228103  0  -0.57052  -1.030049  0  2.521277  0
O  O187  1  0.37574392  0.72455251  0.66849355  1  -1.16243  0  -0.316144  -0.538519  0  2.312548  0
O  O188  1  0.36574028  0.75426178  0.80871551  1  -1.169964  0  -0.313354  -0.542623  0  2.322456  0
O  O189  1  0.17184202  0.93333695  0.72723428  1  -1.177318  0  -0.318326  -0.543459  0  2.334093  0
O  O190  1  0.43379973  0.67450302  0.72721121  1  -1.172141  0  -0.319058  -0.545784  0  2.335148  0
O  O191  1  0.22435240  0.87566350  0.66866003  1  -1.159607  0  -0.316028  -0.538669  0  2.31335  0
O  O192  1  0.25354207  0.85929539  0.80760350  1  -1.175071  0  -0.313347  -0.547307  0  2.432348  0
O  O193  1  0.09471681  0.85847354  0.80342859  1  -1.169439  0  -0.318546  -0.541777  0  2.326492  0
O  O194  1  0.16559249  0.66270905  0.71899283  1  -1.168032  0  -0.310513  -0.541134  0  2.336888  0
O  O195  1  0.09552003  0.74369113  0.79935636  1  -1.173633  0  -0.315483  -0.542278  0  2.384358  0
O  O196  1  0.21891984  0.71925532  0.66452176  1  -1.163437  0  -0.312902  -0.541529  0  2.339451  0
O  O197  1  0.35752165  0.59927506  0.80323152  1  -1.169463  0  -0.315253  -0.541917  0  2.384407  0
O  O198  1  0.24653807  0.59082570  0.79994798  1  -1.163099  0  -0.319601  -0.544344  0  2.326535  0
O  O199  1  0.50017474  0.99966187  0.00010901  1  -1.22806  0  -0.569857  -1.030188  0  2.524054  0
O  O200  1  0.50476311  0.15633819  0.95012585  1  -1.174934  0  -0.319826  -0.54647  0  2.332038  0
O  O201  1  0.38779932  0.99574123  0.94181212  1  -1.17934  0  -0.312848  -0.54242  0  2.338518  0
O  O202  1  0.65299196  0.89212147  0.94656003  1  -1.16261  0  -0.319336  -0.544901  0  2.333833  0
O  O203  1  0.39118878  0.15323124  0.94652827  1  -1.15752  0  -0.316284  -0.538788  0  2.30998  0
O  O204  1  0.65729146  0.00491767  0.95019483  1  -1.172337  0  -0.315467  -0.538222  0  2.311079  0
O  O205  1  0.49688970  0.88637407  0.94162069  1  -1.169211  0  -0.310677  -0.540392  0  2.334383  0
O  O206  1  0.57715253  0.81588358  0.02260100  1  -1.179653  0  -0.318501  -0.543802  0  2.334589  0
O  O207  1  0.53097929  0.03045420  0.08618873  1  -1.160963  0  -0.311855  -0.542718  0  2.332082  0
O  O208  1  0.52649846  0.87375165  0.08119624  1  -1.174066  0  -0.316023  -0.539108  0  2.312255  0
O  O209  1  0.58542599  0.08490159  0.03124235  1  -1.174397  0  -0.31198  -0.540598  0  2.33679  0
O  O210  1  0.31548148  0.07754847  0.02231706  1  -1.141679  0  -0.315725  -0.538431  0  2.311508  0
O  O211  1  0.37442778  0.02582445  0.08067632  1  -1.173921  0  -0.319508  -0.54671  0  2.333815  0
