# generated using pymatgen
data_KH17C12O
_symmetry_space_group_name_H-M   'P 1'
_cell_length_a   6.46280970
_cell_length_b   9.80279436
_cell_length_c   9.83267902
_cell_angle_alpha   101.57156413
_cell_angle_beta   90.00101028
_cell_angle_gamma   89.99996400
_symmetry_Int_Tables_number   1
_chemical_formula_structural   KH17C12O
_chemical_formula_sum   'K2 H34 C24 O2'
_cell_volume   610.27434606
_cell_formula_units_Z   2
loop_
 _symmetry_equiv_pos_site_id
 _symmetry_equiv_pos_as_xyz
  1  'x, y, z'
loop_
 _atom_site_type_symbol
 _atom_site_label
 _atom_site_symmetry_multiplicity
 _atom_site_fract_x
 _atom_site_fract_y
 _atom_site_fract_z
 _atom_site_occupancy
 _atom_site_pbe_bader_spin_density
 _atom_site_pbe_cm5_charge
 _atom_site_pbe_ddec_charge
 _atom_site_pbe_ddec_spin_density
 _atom_site_pbe_ddec_sum_bond_order
 _atom_site_pbe_magmom
K  K0  1  0.35826809  0.35731769  0.01090491  1  0  0.758782  0.853435  0  0.668455  0
K  K1  1  0.85826368  0.64267101  0.98908365  1  0  0.758764  0.853447  0  0.668455  0
H  H2  1  0.04296916  0.97115754  0.20235134  1  0  0.094815  0.09541  0  1.033352  0
H  H3  1  0.54297156  0.02884187  0.79763988  1  0  0.094787  0.095297  0  1.033421  0
H  H4  1  0.96348451  0.00149687  0.96359942  1  0  0.091502  0.102009  0  1.076537  0
H  H5  1  0.46348360  0.99850560  0.03638792  1  0  0.091493  0.102044  0  1.076479  0
H  H6  1  0.12950451  0.84590826  0.76242968  1  0  0.093723  0.089764  0  1.039224  0
H  H7  1  0.62949098  0.15409863  0.23755989  1  0  0.093684  0.08975  0  1.039319  0
H  H8  1  0.38798916  0.68436939  0.27516748  1  0  0.094778  0.057542  0  0.995705  0
H  H9  1  0.88800283  0.31562882  0.72483548  1  0  0.094773  0.05753  0  0.995676  0
H  H10  1  0.01624152  0.70125953  0.34069006  1  0  0.086794  0.107669  0  1.031235  0
H  H11  1  0.51625340  0.29873672  0.65930431  1  0  0.086772  0.107679  0  1.031209  0
H  H12  1  0.03411352  0.88519947  0.39149189  1  0  0.083556  0.107176  0  1.042103  0
H  H13  1  0.53412901  0.11479578  0.60850350  1  0  0.083567  0.107224  0  1.042063  0
H  H14  1  0.17118071  0.77767079  0.48497432  1  0  0.081439  0.108617  0  1.039939  0
H  H15  1  0.67119336  0.22232478  0.51501961  1  0  0.081501  0.108635  0  1.039902  0
H  H16  1  0.39764322  0.00309409  0.35943926  1  0  0.08334  0.112612  0  1.011748  0
H  H17  1  0.89765925  0.99690624  0.64056726  1  0  0.083335  0.112627  0  1.011809  0
H  H18  1  0.60125221  0.89678075  0.27554577  1  0  0.089187  0.115468  0  1.012367  0
H  H19  1  0.10126783  0.10321994  0.72446363  1  0  0.089262  0.115578  0  1.01237  0
H  H20  1  0.52610774  0.88482107  0.44675537  1  0  0.081161  0.105816  0  1.034084  0
H  H21  1  0.02611854  0.11517734  0.55325174  1  0  0.081173  0.105775  0  1.03415  0
H  H22  1  0.49633655  0.55780156  0.80322080  1  0  0.092169  0.036466  0  1.01147  0
H  H23  1  0.99634137  0.44220110  0.19678829  1  0  0.092183  0.036514  0  1.011328  0
H  H24  1  0.66001978  0.77229519  0.74843449  1  0  0.086361  0.104513  0  1.033117  0
H  H25  1  0.15999560  0.22770260  0.25159127  1  0  0.08631  0.104485  0  1.033013  0
H  H26  1  0.45024414  0.79181254  0.63876942  1  0  0.084179  0.111806  0  1.033826  0
H  H27  1  0.95019836  0.20819104  0.36123731  1  0  0.084186  0.111828  0  1.033948  0
H  H28  1  0.61579859  0.64533968  0.59364980  1  0  0.085757  0.116646  0  1.025624  0
H  H29  1  0.11575681  0.35465902  0.40637158  1  0  0.085721  0.11659  0  1.025642  0
H  H30  1  0.12813811  0.61562963  0.62541474  1  0  0.084477  0.108456  0  1.035966  0
H  H31  1  0.62812636  0.38437518  0.37457645  1  0  0.084462  0.108472  0  1.035964  0
H  H32  1  0.14693638  0.48074287  0.72190468  1  0  0.091449  0.110735  0  1.043737  0
H  H33  1  0.64692474  0.51926305  0.27808896  1  0  0.091491  0.110821  0  1.043748  0
H  H34  1  0.31151756  0.47999195  0.57649982  1  0  0.084631  0.112336  0  1.027948  0
H  H35  1  0.81150380  0.52001126  0.42349919  1  0  0.084613  0.112311  0  1.028016  0
C  C36  1  0.34992942  0.70730764  0.02383225  1  0  0.039415  0.219774  0  4.240149  0
C  C37  1  0.84993159  0.29269358  0.97616578  1  0  0.039494  0.219837  0  4.240369  0
C  C38  1  0.25164550  0.79868668  0.13869626  1  0  -0.055121  -0.080273  0  3.959184  0
C  C39  1  0.75165394  0.20131743  0.86130124  1  0  -0.055107  -0.080375  0  3.959215  0
C  C40  1  0.11519975  0.90174494  0.11436432  1  0  -0.13343  -0.171269  0  4.119294  0
C  C41  1  0.61519672  0.09825361  0.88562957  1  0  -0.133339  -0.170932  0  4.119067  0
C  C42  1  0.06964341  0.92013324  0.97991516  1  0  -0.155569  -0.18729  0  4.167767  0
C  C43  1  0.56964408  0.07987247  0.02007453  1  0  -0.155686  -0.187574  0  4.16802  0
C  C44  1  0.16381615  0.83183008  0.86766484  1  0  -0.132313  -0.168332  0  4.123198  0
C  C45  1  0.66380274  0.16817379  0.13232961  1  0  -0.132314  -0.168294  0  4.123286  0
C  C46  1  0.30018290  0.72622540  0.88614947  1  0  -0.057164  -0.084728  0  3.95361  0
C  C47  1  0.80017804  0.27378195  0.11385022  1  0  -0.057098  -0.084574  0  3.953459  0
C  C48  1  0.30995501  0.78567611  0.28478336  1  0  -0.088838  0.096894  0  3.890509  0
C  C49  1  0.80996863  0.21432188  0.71521360  1  0  -0.088843  0.096991  0  3.890425  0
C  C50  1  0.12238158  0.78778792  0.38037094  1  0  -0.242923  -0.391958  0  3.937218  0
C  C51  1  0.62239563  0.21220443  0.61962690  1  0  -0.242985  -0.39209  0  3.937236  0
C  C52  1  0.46786538  0.89886811  0.34537567  1  0  -0.240124  -0.377727  0  3.903996  0
C  C53  1  0.96787755  0.10112822  0.65462984  1  0  -0.240206  -0.377846  0  3.904083  0
C  C54  1  0.39906241  0.63230852  0.76165038  1  0  -0.089633  0.100842  0  3.896612  0
C  C55  1  0.89904999  0.36769388  0.23835250  1  0  -0.089672  0.100723  0  3.896501  0
C  C56  1  0.53978791  0.71453051  0.68119690  1  0  -0.241542  -0.389633  0  3.914381  0
C  C57  1  0.03975776  0.28546902  0.31881872  1  0  -0.24145  -0.389574  0  3.914354  0
C  C58  1  0.23707279  0.54738648  0.66609469  1  0  -0.240833  -0.403884  0  3.935347  0
C  C59  1  0.73705358  0.45261863  0.33390183  1  0  -0.240838  -0.403952  0  3.935292  0
O  O60  1  0.47949575  0.61055205  0.04452403  1  0  -0.609995  -0.718908  0  2.289641  0
O  O61  1  0.97950487  0.38944429  0.95547551  1  0  -0.610064  -0.718932  0  2.289759  0
