# generated using pymatgen
data_La2H22C10N4O19
_symmetry_space_group_name_H-M   'P 1'
_cell_length_a   8.09501151
_cell_length_b   12.56656706
_cell_length_c   24.26430780
_cell_angle_alpha   104.71251471
_cell_angle_beta   90.00034870
_cell_angle_gamma   89.99991137
_symmetry_Int_Tables_number   1
_chemical_formula_structural   La2H22C10N4O19
_chemical_formula_sum   'La8 H88 C40 N16 O76'
_cell_volume   2387.39259373
_cell_formula_units_Z   4
loop_
 _symmetry_equiv_pos_site_id
 _symmetry_equiv_pos_as_xyz
  1  'x, y, z'
loop_
 _atom_site_type_symbol
 _atom_site_label
 _atom_site_symmetry_multiplicity
 _atom_site_fract_x
 _atom_site_fract_y
 _atom_site_fract_z
 _atom_site_occupancy
 _atom_site_pbe_bader_charge
 _atom_site_pbe_bader_spin_density
 _atom_site_pbe_cm5_charge
 _atom_site_pbe_ddec_charge
 _atom_site_pbe_ddec_spin_density
 _atom_site_pbe_ddec_sum_bond_order
 _atom_site_pbe_magmom
La  La0  1  0.27301543  0.08747063  0.87243632  1  2.186312  0  1.393181  1.638175  0  2.466019  0
La  La1  1  0.00994267  0.90709441  0.60908766  1  2.278554  0  1.376058  1.956788  0  2.318364  0
La  La2  1  0.77302077  0.41253071  0.62756494  1  2.186361  0  1.393152  1.638095  0  2.466097  0
La  La3  1  0.50993747  0.59290484  0.89090975  1  2.278606  0  1.376077  1.956702  0  2.3185  0
La  La4  1  0.72697126  0.91253381  0.12756246  1  2.186451  0  1.393155  1.6381  0  2.466163  0
La  La5  1  0.99006255  0.09290015  0.39090980  1  2.278489  0  1.376082  1.95679  0  2.318228  0
La  La6  1  0.22698074  0.58746135  0.37243588  1  2.186466  0  1.393166  1.638193  0  2.466037  0
La  La7  1  0.49006158  0.40709876  0.10909056  1  2.278466  0  1.376037  1.956685  0  2.318405  0
H  H8  1  0.52397151  0.95209315  0.74247558  1  0.07876  0  0.124525  0.125645  0  0.973145  0
H  H9  1  0.50633414  0.04381101  0.69745756  1  0.073219  0  0.111078  0.113211  0  0.991805  0
H  H10  1  0.29408650  0.20551047  0.75827602  1  0.060345  0  0.124851  0.124414  0  0.978971  0
H  H11  1  0.49575743  0.24478929  0.74337274  1  0.114615  0  0.109252  0.117204  0  1.013365  0
H  H12  1  0.55260705  0.96948090  0.95042265  1  0.093393  0  0.125162  0.128752  0  0.975394  0
H  H13  1  0.73360093  0.92305298  0.91026321  1  0.081816  0  0.111928  0.117263  0  0.989729  0
H  H14  1  0.71057898  0.21735516  0.91575666  1  0.063079  0  0.121938  0.12103  0  0.994952  0
H  H15  1  0.78158986  0.12847382  0.95675838  1  0.106517  0  0.113883  0.11879  0  0.986201  0
H  H16  1  0.67576171  0.21110258  0.83004769  1  0.041398  0  0.112049  0.088986  0  0.996943  0
H  H17  1  0.73655424  0.11624383  0.76615465  1  0.075455  0  0.111151  0.104588  0  0.970493  0
H  H18  1  0.68427824  0.96049313  0.81024439  1  0.04565  0  0.112838  0.096462  0  0.995994  0
H  H19  1  0.83795946  0.05064056  0.84562044  1  0.081097  0  0.109956  0.092883  0  1.009171  0
H  H20  1  0.98332847  0.94686862  0.74067808  1  0.653978  0  0.301645  0.392212  0  0.938141  0
H  H21  1  0.69455136  0.00560286  0.56418078  1  0.642093  0  0.330471  0.411579  0  0.872453  0
H  H22  1  0.83243873  0.09750950  0.57414459  1  0.66948  0  0.305833  0.389937  0  0.948078  0
H  H23  1  0.34454858  0.77377727  0.57358026  1  0.625405  0  0.311228  0.401685  0  0.911592  0
H  H24  1  0.22377992  0.75406478  0.52117769  1  0.656776  0  0.299444  0.388103  0  0.951659  0
H  H25  1  0.64776761  0.79765983  0.59764135  1  0.671372  0  0.31013  0.40051  0  0.924074  0
H  H26  1  0.26907579  0.06895855  0.57684710  1  0.643895  0  0.303547  0.391011  0  0.938171  0
H  H27  1  0.17275428  0.01897459  0.51986865  1  0.624906  0  0.302411  0.404107  0  0.921274  0
H  H28  1  0.93246861  0.82612579  0.70948276  1  0.625119  0  0.307358  0.38607  0  0.932493  0
H  H29  1  0.68595086  0.86892335  0.66002762  1  0.607377  0  0.322525  0.409381  0  0.894494  0
H  H30  1  0.02397530  0.54790688  0.75752609  1  0.078743  0  0.124535  0.125623  0  0.973235  0
H  H31  1  0.00633902  0.45618786  0.80254365  1  0.073161  0  0.11108  0.113164  0  0.991862  0
H  H32  1  0.79408924  0.29449330  0.74172891  1  0.060247  0  0.124881  0.124522  0  0.978829  0
H  H33  1  0.99576424  0.25521450  0.75663095  1  0.114519  0  0.109302  0.117299  0  1.013255  0
H  H34  1  0.05261700  0.53052246  0.54957581  1  0.093382  0  0.125179  0.128786  0  0.975361  0
H  H35  1  0.23360779  0.57694954  0.58973674  1  0.08179  0  0.111914  0.117255  0  0.989757  0
H  H36  1  0.21057909  0.28264949  0.58424327  1  0.063185  0  0.121865  0.12091  0  0.994998  0
H  H37  1  0.28159272  0.37153081  0.54324294  1  0.106888  0  0.113953  0.118882  0  0.986024  0
H  H38  1  0.17575470  0.28889880  0.66995049  1  0.041421  0  0.112001  0.08888  0  0.997029  0
H  H39  1  0.23655558  0.38375588  0.73384509  1  0.07568  0  0.111162  0.104588  0  0.970476  0
H  H40  1  0.18427712  0.53951021  0.68975599  1  0.045652  0  0.112851  0.096463  0  0.996109  0
H  H41  1  0.33795797  0.44936242  0.65438159  1  0.081193  0  0.109941  0.092823  0  1.009281  0
H  H42  1  0.48334093  0.55313475  0.75931921  1  0.6539  0  0.301586  0.392127  0  0.938255  0
H  H43  1  0.19454992  0.49439605  0.93581670  1  0.641822  0  0.330476  0.411567  0  0.872415  0
H  H44  1  0.33244104  0.40249266  0.92585608  1  0.669486  0  0.305767  0.389844  0  0.948218  0
H  H45  1  0.84454370  0.72622769  0.92642272  1  0.625409  0  0.311308  0.401775  0  0.911445  0
H  H46  1  0.72376236  0.74593527  0.97882233  1  0.656728  0  0.299454  0.388076  0  0.951704  0
H  H47  1  0.14776995  0.70233529  0.90235661  1  0.671515  0  0.310115  0.400526  0  0.924047  0
H  H48  1  0.76906791  0.43104934  0.92315751  1  0.643831  0  0.303504  0.390928  0  0.938204  0
H  H49  1  0.67274608  0.48103001  0.98013574  1  0.62485  0  0.302463  0.404096  0  0.921246  0
H  H50  1  0.43247271  0.67387426  0.79051686  1  0.625104  0  0.307357  0.38608  0  0.932512  0
H  H51  1  0.18593495  0.63108417  0.83996673  1  0.607354  0  0.322461  0.40934  0  0.894563  0
H  H52  1  0.47603001  0.04790964  0.25752381  1  0.078685  0  0.124555  0.125672  0  0.973147  0
H  H53  1  0.49365997  0.95619424  0.30254257  1  0.073061  0  0.11111  0.11322  0  0.991762  0
H  H54  1  0.70591008  0.79449476  0.24172617  1  0.060191  0  0.124863  0.124515  0  0.978856  0
H  H55  1  0.50423544  0.75521513  0.25662810  1  0.114513  0  0.109287  0.117264  0  1.013294  0
H  H56  1  0.44738211  0.03051449  0.04957450  1  0.093333  0  0.125193  0.128818  0  0.975375  0
H  H57  1  0.26639441  0.07694901  0.08973359  1  0.081767  0  0.111953  0.117299  0  0.989785  0
H  H58  1  0.28941512  0.78264599  0.08424168  1  0.063127  0  0.121894  0.120964  0  0.99501  0
H  H59  1  0.21839066  0.87153057  0.04324493  1  0.107018  0  0.113932  0.118849  0  0.986062  0
H  H60  1  0.32423857  0.78890103  0.16995180  1  0.04146  0  0.111999  0.088891  0  0.997046  0
H  H61  1  0.26344357  0.88375893  0.23384679  1  0.075637  0  0.111149  0.104538  0  0.970509  0
H  H62  1  0.31572204  0.03951048  0.18975511  1  0.045595  0  0.112833  0.096451  0  0.996074  0
H  H63  1  0.16203218  0.94936548  0.15438268  1  0.081124  0  0.109955  0.092889  0  1.009133  0
H  H64  1  0.01666934  0.05313415  0.25932172  1  0.654006  0  0.301659  0.392248  0  0.938089  0
H  H65  1  0.30545139  0.99438922  0.43581840  1  0.64208  0  0.330455  0.411589  0  0.872448  0
H  H66  1  0.16756155  0.90248583  0.42585750  1  0.669452  0  0.305856  0.390003  0  0.948014  0
H  H67  1  0.65545294  0.22621727  0.42641966  1  0.625483  0  0.31122  0.401711  0  0.911573  0
H  H68  1  0.77622407  0.24592729  0.47882190  1  0.656793  0  0.299448  0.388086  0  0.951705  0
H  H69  1  0.35223144  0.20233383  0.40236340  1  0.671349  0  0.310123  0.400515  0  0.924077  0
H  H70  1  0.73093067  0.93103847  0.42315234  1  0.643916  0  0.303497  0.390935  0  0.938215  0
H  H71  1  0.82725465  0.98101913  0.48013076  1  0.625226  0  0.302407  0.404093  0  0.921272  0
H  H72  1  0.06753785  0.17387366  0.29052030  1  0.625152  0  0.307332  0.386089  0  0.932437  0
H  H73  1  0.31406424  0.13107280  0.33997541  1  0.607486  0  0.322501  0.409306  0  0.89459  0
H  H74  1  0.97602993  0.45209094  0.24247551  1  0.078684  0  0.124541  0.12564  0  0.973196  0
H  H75  1  0.99366002  0.54380422  0.19745553  1  0.072989  0  0.11108  0.113164  0  0.99179  0
H  H76  1  0.20591351  0.70550615  0.25827332  1  0.060098  0  0.12487  0.124474  0  0.978849  0
H  H77  1  0.00424469  0.74478825  0.24337131  1  0.114559  0  0.109297  0.117257  0  1.013316  0
H  H78  1  0.94739563  0.46947541  0.45042126  1  0.09339  0  0.125182  0.128752  0  0.975468  0
H  H79  1  0.76639990  0.42304747  0.41026351  1  0.08188  0  0.111911  0.11727  0  0.989719  0
H  H80  1  0.78943108  0.71734918  0.41575597  1  0.063286  0  0.121898  0.120896  0  0.995039  0
H  H81  1  0.71841374  0.62846702  0.45675702  1  0.106521  0  0.113896  0.118845  0  0.986127  0
H  H82  1  0.82424434  0.71109988  0.33004752  1  0.041468  0  0.111974  0.088863  0  0.996982  0
H  H83  1  0.76344594  0.61624280  0.26615292  1  0.075417  0  0.11114  0.104574  0  0.970498  0
H  H84  1  0.81572810  0.46048930  0.31024172  1  0.045817  0  0.112856  0.09645  0  0.996067  0
H  H85  1  0.66204107  0.55063296  0.34561639  1  0.081189  0  0.109976  0.092898  0  1.009082  0
H  H86  1  0.51665935  0.44686063  0.24067959  1  0.653944  0  0.301609  0.392151  0  0.93823  0
H  H87  1  0.80545530  0.50561083  0.06418489  1  0.641792  0  0.330424  0.411611  0  0.872421  0
H  H88  1  0.66756295  0.59751584  0.07414737  1  0.669412  0  0.30583  0.389941  0  0.948114  0
H  H89  1  0.15545534  0.27378327  0.07358229  1  0.625427  0  0.311251  0.401763  0  0.911487  0
H  H90  1  0.27622063  0.25407244  0.02117896  1  0.656804  0  0.299459  0.388144  0  0.95163  0
H  H91  1  0.85223157  0.29766009  0.09764178  1  0.671387  0  0.310113  0.400488  0  0.924108  0
H  H92  1  0.23092867  0.56895916  0.07684635  1  0.64394  0  0.303503  0.390955  0  0.938193  0
H  H93  1  0.32725050  0.51898015  0.01986752  1  0.62519  0  0.302452  0.404138  0  0.921234  0
H  H94  1  0.56753005  0.32612110  0.20948276  1  0.625075  0  0.307334  0.38605  0  0.932535  0
H  H95  1  0.81405545  0.36891618  0.16002944  1  0.607289  0  0.322496  0.409274  0  0.894664  0
C  C96  1  0.45728579  0.02441031  0.73620293  1  0.280001  0  -0.065918  -0.2358  0  3.907503  0
C  C97  1  0.27744541  0.99019247  0.72612344  1  1.587486  0  0.235962  0.651738  0  4.134763  0
C  C98  1  0.42063371  0.21871436  0.77544687  1  0.24054  0  -0.074405  -0.252689  0  3.914846  0
C  C99  1  0.41128637  0.31043478  0.83003450  1  1.574354  0  0.227439  0.635394  0  4.154147  0
C  C100  1  0.60796670  0.95526595  0.90774933  1  0.25225  0  -0.06709  -0.238713  0  3.890152  0
C  C101  1  0.50319450  0.86850474  0.86723066  1  1.591985  0  0.227978  0.649264  0  4.159158  0
C  C102  1  0.67240016  0.15077700  0.93484723  1  0.265981  0  -0.065603  -0.232721  0  3.894908  0
C  C103  1  0.54309865  0.20255901  0.97879334  1  1.570194  0  0.237479  0.656889  0  4.119003  0
C  C104  1  0.65597160  0.12690078  0.80386152  1  0.26614  0  -0.066973  -0.089927  0  3.896524  0
C  C105  1  0.70466495  0.04427052  0.83662923  1  0.261645  0  -0.069655  -0.096717  0  3.904064  0
C  C106  1  0.95728850  0.47559184  0.76379923  1  0.27998  0  -0.065921  -0.235678  0  3.90763  0
C  C107  1  0.77744940  0.50981332  0.77387910  1  1.587238  0  0.236001  0.651864  0  4.134429  0
C  C108  1  0.92063617  0.28128779  0.72455604  1  0.240673  0  -0.074529  -0.252896  0  3.914758  0
C  C109  1  0.91128435  0.18957066  0.66996801  1  1.574211  0  0.227483  0.635548  0  4.154137  0
C  C110  1  0.10797492  0.54473576  0.59224902  1  0.252239  0  -0.067102  -0.23866  0  3.890134  0
C  C111  1  0.00319955  0.63149863  0.63276729  1  1.59205  0  0.228004  0.649182  0  4.159123  0
C  C112  1  0.17240471  0.34922848  0.56515232  1  0.265543  0  -0.065564  -0.232642  0  3.894899  0
C  C113  1  0.04310128  0.29744976  0.52120639  1  1.57011  0  0.237359  0.656634  0  4.119251  0
C  C114  1  0.15596858  0.37310140  0.69613797  1  0.265984  0  -0.066954  -0.089808  0  3.896451  0
C  C115  1  0.20466238  0.45573331  0.66337058  1  0.26153  0  -0.069642  -0.096651  0  3.904177  0
C  C116  1  0.54270955  0.97559492  0.26379802  1  0.280084  0  -0.065917  -0.235719  0  3.907491  0
C  C117  1  0.72254746  0.00981441  0.27387814  1  1.587179  0  0.235921  0.651835  0  4.134529  0
C  C118  1  0.57936039  0.78129170  0.22455419  1  0.240906  0  -0.074439  -0.252862  0  3.914814  0
C  C119  1  0.58871268  0.68957046  0.16996604  1  1.574328  0  0.227454  0.635397  0  4.154154  0
C  C120  1  0.39202370  0.04473275  0.09224662  1  0.252223  0  -0.06714  -0.238798  0  3.890341  0
C  C121  1  0.49680084  0.13149727  0.13276450  1  1.591903  0  0.227932  0.649065  0  4.159007  0
C  C122  1  0.32758282  0.84922906  0.06515383  1  0.265359  0  -0.065648  -0.232727  0  3.895105  0
C  C123  1  0.45688928  0.79745613  0.02120647  1  1.570212  0  0.237418  0.656502  0  4.119538  0
C  C124  1  0.34402868  0.87310363  0.19613932  1  0.265946  0  -0.066918  -0.089751  0  3.896401  0
C  C125  1  0.29533286  0.95573393  0.16336873  1  0.261703  0  -0.069662  -0.096722  0  3.904127  0
C  C126  1  0.04271054  0.52440435  0.23620092  1  0.27971  0  -0.065865  -0.235557  0  3.907454  0
C  C127  1  0.22255211  0.49017713  0.22611821  1  1.587677  0  0.235849  0.651781  0  4.134492  0
C  C128  1  0.07936781  0.71870757  0.27544399  1  0.24084  0  -0.074488  -0.252768  0  3.914693  0
C  C129  1  0.08872211  0.81043046  0.33003280  1  1.57432  0  0.227477  0.635436  0  4.153976  0
C  C130  1  0.89203524  0.45526044  0.40774906  1  0.251705  0  -0.067123  -0.238676  0  3.890345  0
C  C131  1  0.99680444  0.36849345  0.36723148  1  1.592486  0  0.227903  0.649042  0  4.159453  0
C  C132  1  0.82760299  0.65077101  0.43484662  1  0.265662  0  -0.065533  -0.232529  0  3.894895  0
C  C133  1  0.95691259  0.70254399  0.47879054  1  1.570134  0  0.237541  0.656964  0  4.119091  0
C  C134  1  0.84403541  0.62689646  0.30385993  1  0.26602  0  -0.066946  -0.089877  0  3.896437  0
C  C135  1  0.79534038  0.54426452  0.33662979  1  0.261405  0  -0.069679  -0.096651  0  3.904023  0
N  N136  1  0.47958753  0.11579983  0.78704313  1  -1.05384  0  -0.387083  -0.129546  0  3.526258  0
N  N137  1  0.60787741  0.05876637  0.88986903  1  -1.041532  0  -0.381031  -0.128629  0  3.51964  0
N  N138  1  0.01709848  0.27344514  0.88656355  1  0.817238  0  0.081398  0.703415  0  4.447925  0
N  N139  1  0.09236538  0.91331458  0.92120861  1  0.831152  0  0.093576  0.707304  0  4.44156  0
N  N140  1  0.97958460  0.38420150  0.71295897  1  -1.053813  0  -0.387079  -0.129663  0  3.526381  0
N  N141  1  0.10787885  0.44123746  0.61012976  1  -1.041559  0  -0.381074  -0.128706  0  3.519716  0
N  N142  1  0.51710523  0.22656276  0.61344054  1  0.817361  0  0.08138  0.703416  0  4.447982  0
N  N143  1  0.59236196  0.58668135  0.57879141  1  0.830439  0  0.093536  0.70731  0  4.441326  0
N  N144  1  0.52041152  0.88420623  0.21295793  1  -1.053995  0  -0.387147  -0.12967  0  3.526287  0
N  N145  1  0.39211793  0.94123808  0.11012852  1  -1.041481  0  -0.381035  -0.128597  0  3.519764  0
N  N146  1  0.98289439  0.72656337  0.11343948  1  0.817651  0  0.081398  0.703384  0  4.4479  0
N  N147  1  0.90762872  0.08668736  0.07879231  1  0.831088  0  0.093551  0.707194  0  4.441557  0
N  N148  1  0.02041568  0.61579469  0.28704035  1  -1.053739  0  -0.387079  -0.129678  0  3.526414  0
N  N149  1  0.89212885  0.55875955  0.38986926  1  -1.04131  0  -0.381083  -0.128795  0  3.519703  0
N  N150  1  0.48290246  0.77343506  0.38656106  1  0.817309  0  0.081303  0.70329  0  4.447734  0
N  N151  1  0.40763586  0.41330580  0.42120669  1  0.831164  0  0.093671  0.707465  0  4.441813  0
O  O152  1  0.17857741  0.00962580  0.76844061  1  -1.181961  0  -0.345199  -0.577141  0  2.23075  0
O  O153  1  0.23911153  0.94221339  0.67537296  1  -1.208214  0  -0.396582  -0.6154  0  2.255439  0
O  O154  1  0.37385759  0.28289839  0.87599542  1  -1.190099  0  -0.356995  -0.602633  0  2.294  0
O  O155  1  0.43678835  0.40749238  0.82686867  1  -1.200665  0  -0.36778  -0.599696  0  2.248664  0
O  O156  1  0.38976757  0.90092514  0.83892774  1  -1.190747  0  -0.391747  -0.602304  0  2.237952  0
O  O157  1  0.53303519  0.76837766  0.86372645  1  -1.218645  0  -0.386383  -0.639717  0  2.324575  0
O  O158  1  0.39277886  0.17149658  0.96915719  1  -1.185527  0  -0.362928  -0.588061  0  2.284401  0
O  O159  1  0.59123313  0.27578409  0.02157223  1  -1.205255  0  -0.381393  -0.60973  0  2.236444  0
O  O160  1  0.06119397  0.24728367  0.93150620  1  -0.535546  0  -0.192473  -0.445125  0  1.975055  0
O  O161  1  0.04179852  0.20302315  0.83865490  1  -0.57792  0  -0.225255  -0.478267  0  2.048903  0
O  O162  1  0.95417796  0.36524632  0.88760285  1  -0.540781  0  -0.162045  -0.423411  0  1.978676  0
O  O163  1  0.03307289  0.94031635  0.87798778  1  -0.566523  0  -0.206335  -0.462386  0  1.986376  0
O  O164  1  0.20519185  0.97372484  0.94977361  1  -0.552941  0  -0.206334  -0.451797  0  1.981306  0
O  O165  1  0.04184808  0.82923727  0.93525107  1  -0.54219  0  -0.159029  -0.422887  0  2.010268  0
O  O166  1  0.89440194  0.90260439  0.71710393  1  -1.278162  0  -0.598461  -0.798039  0  2.020544  0
O  O167  1  0.80776913  0.01889256  0.55359972  1  -1.280658  0  -0.57338  -0.775194  0  2.070094  0
O  O168  1  0.26242495  0.81073399  0.55549760  1  -1.270616  0  -0.633463  -0.822903  0  2.05347  0
O  O169  1  0.69605549  0.86766357  0.61978991  1  -1.254827  0  -0.606339  -0.796379  0  2.016533  0
O  O170  1  0.15917961  0.04263556  0.56207189  1  -1.262871  0  -0.626396  -0.806938  0  2.002074  0
O  O171  1  0.67858198  0.49037884  0.73156008  1  -1.181954  0  -0.345159  -0.577155  0  2.23065  0
O  O172  1  0.73912497  0.55778992  0.82463000  1  -1.207848  0  -0.396639  -0.615519  0  2.255357  0
O  O173  1  0.87385097  0.21709963  0.62400767  1  -1.190048  0  -0.356975  -0.602647  0  2.294195  0
O  O174  1  0.93676932  0.09250480  0.67313608  1  -1.20056  0  -0.367788  -0.599817  0  2.248456  0
O  O175  1  0.88977425  0.59907905  0.66107029  1  -1.190777  0  -0.391728  -0.602253  0  2.237887  0
O  O176  1  0.03304377  0.73162734  0.63627178  1  -1.218757  0  -0.386383  -0.639709  0  2.3245  0
O  O177  1  0.89277894  0.32849981  0.53084407  1  -1.18554  0  -0.362912  -0.587897  0  2.284464  0
O  O178  1  0.09123803  0.22422887  0.47842426  1  -1.205123  0  -0.381321  -0.609625  0  2.236368  0
O  O179  1  0.56118750  0.25272916  0.56849865  1  -0.535554  0  -0.192492  -0.44516  0  1.974956  0
O  O180  1  0.54180721  0.29698228  0.66134891  1  -0.578176  0  -0.225249  -0.478282  0  2.049055  0
O  O181  1  0.45418633  0.13475993  0.61240151  1  -0.540667  0  -0.162023  -0.423315  0  1.978675  0
O  O182  1  0.53307278  0.55968368  0.62201350  1  -0.566511  0  -0.206323  -0.462372  0  1.986309  0
O  O183  1  0.70517940  0.52626535  0.55022340  1  -0.552346  0  -0.206334  -0.451835  0  1.981227  0
O  O184  1  0.54185285  0.67076031  0.56474742  1  -0.542085  0  -0.158988  -0.42284  0  2.010133  0
O  O185  1  0.39441225  0.59739404  0.78289334  1  -1.278088  0  -0.598416  -0.797973  0  2.020534  0
O  O186  1  0.30776915  0.48110962  0.94639926  1  -1.280511  0  -0.573311  -0.775096  0  2.0701  0
O  O187  1  0.76241802  0.68927099  0.94450316  1  -1.270633  0  -0.63356  -0.822979  0  2.05339  0
O  O188  1  0.19605760  0.63233656  0.88020264  1  -1.254944  0  -0.606266  -0.796357  0  2.016548  0
O  O189  1  0.65917070  0.45737481  0.93793201  1  -1.262725  0  -0.626412  -0.806753  0  2.002188  0
O  O190  1  0.82142040  0.99038436  0.23156182  1  -1.181944  0  -0.34513  -0.577179  0  2.230621  0
O  O191  1  0.76088134  0.05778773  0.32462826  1  -1.207861  0  -0.396617  -0.615512  0  2.255352  0
O  O192  1  0.62613899  0.71710520  0.12400573  1  -1.190186  0  -0.356953  -0.602577  0  2.294076  0
O  O193  1  0.56322676  0.59250953  0.17313513  1  -1.2006  0  -0.367797  -0.599697  0  2.248554  0
O  O194  1  0.61022407  0.09907848  0.16107052  1  -1.190693  0  -0.391657  -0.602135  0  2.237848  0
O  O195  1  0.46696633  0.23162275  0.13626396  1  -1.218632  0  -0.386406  -0.639633  0  2.32443  0
O  O196  1  0.60720289  0.82850291  0.03084216  1  -1.185423  0  -0.362786  -0.587881  0  2.284953  0
O  O197  1  0.40874615  0.72423364  0.97841639  1  -1.205242  0  -0.381448  -0.609552  0  2.236261  0
O  O198  1  0.93879890  0.75271991  0.06849577  1  -0.535357  0  -0.19242  -0.445088  0  1.975149  0
O  O199  1  0.95819311  0.79698951  0.16134622  1  -0.57818  0  -0.225275  -0.478316  0  2.048955  0
O  O200  1  0.04582232  0.63476378  0.11240535  1  -0.541146  0  -0.162095  -0.423374  0  1.978598  0
O  O201  1  0.96691628  0.05967162  0.12200962  1  -0.5664  0  -0.206325  -0.462352  0  1.986509  0
O  O202  1  0.79479732  0.02628124  0.05022581  1  -0.553042  0  -0.206365  -0.451783  0  1.981059  0
O  O203  1  0.95815591  0.17076465  0.06475150  1  -0.542149  0  -0.158975  -0.422762  0  2.010282  0
O  O204  1  0.10560081  0.09739343  0.28289685  1  -1.278249  0  -0.598462  -0.798097  0  2.020416  0
O  O205  1  0.19223363  0.98110031  0.44640122  1  -1.280526  0  -0.573373  -0.775279  0  2.070027  0
O  O206  1  0.73757656  0.18926137  0.44450243  1  -1.270738  0  -0.633457  -0.822958  0  2.053469  0
O  O207  1  0.30394479  0.13233177  0.38021260  1  -1.254894  0  -0.60629  -0.796259  0  2.016611  0
O  O208  1  0.84083056  0.95736063  0.43792744  1  -1.263219  0  -0.626353  -0.806839  0  2.002113  0
O  O209  1  0.32142448  0.50961407  0.26843839  1  -1.181822  0  -0.345177  -0.577256  0  2.230506  0
O  O210  1  0.26088025  0.44219884  0.17537121  1  -1.208079  0  -0.396529  -0.615416  0  2.255554  0
O  O211  1  0.12614684  0.78289487  0.37599555  1  -1.190152  0  -0.356959  -0.60268  0  2.293879  0
O  O212  1  0.06323590  0.90748723  0.32686721  1  -1.200504  0  -0.367797  -0.599702  0  2.248593  0
O  O213  1  0.11023098  0.40091634  0.33892728  1  -1.190721  0  -0.391721  -0.602241  0  2.237854  0
O  O214  1  0.96696145  0.26837133  0.36372664  1  -1.218878  0  -0.386328  -0.639603  0  2.324851  0
O  O215  1  0.10722505  0.67148565  0.46915670  1  -1.185756  0  -0.362951  -0.588122  0  2.284935  0
O  O216  1  0.90877831  0.77577476  0.52157277  1  -1.205022  0  -0.381458  -0.609807  0  2.235992  0
O  O217  1  0.43880908  0.74726866  0.43150254  1  -0.535557  0  -0.192416  -0.445044  0  1.974924  0
O  O218  1  0.45820295  0.70301389  0.33865247  1  -0.578142  0  -0.225211  -0.478247  0  2.048875  0
O  O219  1  0.54582013  0.86523707  0.38759957  1  -0.540611  0  -0.162064  -0.423349  0  1.97857  0
O  O220  1  0.46692750  0.44031661  0.37798803  1  -0.566493  0  -0.206311  -0.462364  0  1.986419  0
O  O221  1  0.29480483  0.47371605  0.44977229  1  -0.552802  0  -0.206379  -0.45184  0  1.981362  0
O  O222  1  0.45816226  0.32922850  0.43524844  1  -0.542423  0  -0.159101  -0.423026  0  2.010461  0
O  O223  1  0.60558803  0.40260298  0.21710610  1  -1.278013  0  -0.598408  -0.797952  0  2.020526  0
O  O224  1  0.69223608  0.51889972  0.05360306  1  -1.280283  0  -0.5733  -0.775253  0  2.070063  0
O  O225  1  0.23757361  0.31074002  0.05549774  1  -1.270742  0  -0.633509  -0.823055  0  2.053381  0
O  O226  1  0.80394639  0.36766132  0.11979320  1  -1.254762  0  -0.606299  -0.796251  0  2.016722  0
O  O227  1  0.34082711  0.54263865  0.06207046  1  -1.263156  0  -0.626375  -0.806862  0  2.002093  0
