# generated using pymatgen
data_GaH4(CO)11
_symmetry_space_group_name_H-M   'P 1'
_cell_length_a   12.08489586
_cell_length_b   12.26428215
_cell_length_c   12.26349953
_cell_angle_alpha   75.95260283
_cell_angle_beta   60.48416713
_cell_angle_gamma   60.48343303
_symmetry_Int_Tables_number   1
_chemical_formula_structural   GaH4(CO)11
_chemical_formula_sum   'Ga4 H16 C44 O44'
_cell_volume   1376.42966426
_cell_formula_units_Z   4
loop_
 _symmetry_equiv_pos_site_id
 _symmetry_equiv_pos_as_xyz
  1  'x, y, z'
loop_
 _atom_site_type_symbol
 _atom_site_label
 _atom_site_symmetry_multiplicity
 _atom_site_fract_x
 _atom_site_fract_y
 _atom_site_fract_z
 _atom_site_occupancy
 _atom_site_pbe_bader_charge
 _atom_site_pbe_bader_spin_density
 _atom_site_pbe_cm5_charge
 _atom_site_pbe_ddec_charge
 _atom_site_pbe_ddec_spin_density
 _atom_site_pbe_ddec_sum_bond_order
 _atom_site_pbe_magmom
Ga  Ga0  1  0.80873099  0.38268035  0.99998047  1  1.961533  0  0.585088  1.471479  0  2.745583  0
Ga  Ga1  1  0.19140406  0.61729725  0.00003422  1  1.955493  0  0.585287  1.471806  0  2.74472  0
Ga  Ga2  1  0.55868586  0.50002082  0.88277156  1  1.956224  0  0.585458  1.472329  0  2.744228  0
Ga  Ga3  1  0.94143836  0.49999805  0.11724941  1  1.962417  0  0.58521  1.47155  0  2.74615  0
H  H4  1  0.87487452  0.56520115  0.93496938  1  0.634907  0  0.318013  0.408464  0  0.900898  0
H  H5  1  0.37507939  0.43485143  0.06513320  1  0.634153  0  0.317982  0.408438  0  0.900983  0
H  H6  1  0.55993427  0.56510534  0.06524048  1  0.606142  0  0.317042  0.407051  0  0.903034  0
H  H7  1  0.19017753  0.43492660  0.93488819  1  0.605947  0  0.317442  0.4075  0  0.902401  0
H  H8  1  0.63512852  0.49997436  0.50000244  1  0.099607  0  0.115652  0.12361  0  0.987402  0
H  H9  1  0.88492617  0.00004417  0.00013424  1  0.102279  0  0.115709  0.123669  0  0.987096  0
H  H10  1  0.11490962  0.00003846  0.99998621  1  0.100588  0  0.115753  0.123745  0  0.987173  0
H  H11  1  0.86483445  0.50017474  0.50007719  1  0.100027  0  0.115725  0.123652  0  0.986949  0
H  H12  1  0.45458223  0.44028633  0.30647152  1  0.098354  0  0.106119  0.10928  0  1.025274  0
H  H13  1  0.20138738  0.55973271  0.69341032  1  0.102466  0  0.106047  0.109016  0  1.025803  0
H  H14  1  0.51091468  0.19351327  0.94038449  1  0.116593  0  0.105877  0.108788  0  1.025253  0
H  H15  1  0.64481100  0.80650299  0.05961937  1  0.096435  0  0.105508  0.1088  0  1.025374  0
H  H16  1  0.54864424  0.80652639  0.94027490  1  0.102265  0  0.106064  0.109062  0  1.025868  0
H  H17  1  0.29546678  0.19342287  0.05978494  1  0.098574  0  0.106335  0.109328  0  1.025561  0
H  H18  1  0.10531109  0.44021548  0.69344474  1  0.096134  0  0.10549  0.108895  0  1.025363  0
H  H19  1  0.23891640  0.55980402  0.30656650  1  0.116975  0  0.105834  0.108638  0  1.025498  0
C  C20  1  0.54510750  0.49999523  0.49999871  1  0.071089  0  -0.062144  -0.070315  0  3.894654  0
C  C21  1  0.79493833  0.00003412  0.00009356  1  0.03048  0  -0.062699  -0.070665  0  3.898126  0
C  C22  1  0.20493066  0.00001665  0.99999422  1  0.021812  0  -0.062179  -0.070509  0  3.895127  0
C  C23  1  0.95485724  0.50017823  0.50006400  1  0.034265  0  -0.062592  -0.070588  0  3.897752  0
C  C24  1  0.68692632  0.44850442  0.27017491  1  1.565622  0  0.248994  0.613511  0  4.128996  0
C  C25  1  0.40555490  0.55151886  0.72984723  1  1.588016  0  0.250408  0.613958  0  4.125926  0
C  C26  1  0.70700602  0.22981554  0.94861308  1  1.579465  0  0.248995  0.614158  0  4.127335  0
C  C27  1  0.88534377  0.77018528  0.05147062  1  1.572481  0  0.250689  0.615711  0  4.127434  0
C  C28  1  0.34446819  0.77020630  0.94852644  1  1.559177  0  0.250394  0.614312  0  4.126895  0
C  C29  1  0.06321980  0.22982680  0.05148572  1  1.567238  0  0.248825  0.613756  0  4.128556  0
C  C30  1  0.86472172  0.44852398  0.72985583  1  1.572308  0  0.250636  0.615163  0  4.128641  0
C  C31  1  0.04297978  0.55164502  0.27020211  1  1.580656  0  0.249094  0.613304  0  4.128357  0
C  C32  1  0.55573773  0.47117982  0.39084123  1  -0.011011  0  -0.01678  -0.038441  0  3.985952  0
C  C33  1  0.41776103  0.52882851  0.60914290  1  -0.064151  0  -0.016879  -0.037858  0  3.985566  0
C  C34  1  0.69637448  0.10917839  0.97133823  1  0.022021  0  -0.01428  -0.035848  0  3.985914  0
C  C35  1  0.77681002  0.89086464  0.02880655  1  -0.005559  0  -0.016803  -0.038998  0  3.990356  0
C  C36  1  0.33226606  0.89088745  0.97117532  1  0.011392  0  -0.016783  -0.037508  0  3.985848  0
C  C37  1  0.19433222  0.10913998  0.02883480  1  -0.01097  0  -0.016927  -0.038693  0  3.987715  0
C  C38  1  0.97315542  0.47127075  0.60916134  1  -0.005832  0  -0.016398  -0.037917  0  3.989279  0
C  C39  1  0.05336732  0.52901907  0.39092247  1  0.019708  0  -0.014809  -0.035982  0  3.986173  0
C  C40  1  0.31130313  0.49998691  0.49995661  1  -0.010156  0  -0.013663  0.059343  0  4.020436  0
C  C41  1  0.56117964  0.00001080  0.00001299  1  -0.009469  0  -0.013782  0.058079  0  4.021965  0
C  C42  1  0.43875694  0.99998544  0.00001888  1  -0.004115  0  -0.013491  0.059349  0  4.020997  0
C  C43  1  0.18883695  0.50000566  0.49999399  1  -0.009864  0  -0.01384  0.057641  0  4.022881  0
C  C44  1  0.44109376  0.46777957  0.39194262  1  -0.016998  0  -0.08054  -0.138297  0  3.929706  0
C  C45  1  0.30087620  0.53221952  0.60795915  1  -0.053338  0  -0.079392  -0.138495  0  3.932217  0
C  C46  1  0.58289449  0.10805220  0.96787881  1  -0.084891  0  -0.080658  -0.137848  0  3.931067  0
C  C47  1  0.65879604  0.89197783  0.03216855  1  -0.086769  0  -0.079141  -0.137531  0  3.932253  0
C  C48  1  0.44917998  0.89199116  0.96779437  1  -0.052561  0  -0.079512  -0.138815  0  3.932359  0
C  C49  1  0.30895656  0.10797244  0.03226525  1  -0.02468  0  -0.08077  -0.138476  0  3.931423  0
C  C50  1  0.09127997  0.46776725  0.60799009  1  -0.08587  0  -0.079096  -0.137782  0  3.932259  0
C  C51  1  0.16694653  0.53231532  0.39203933  1  -0.085562  0  -0.080592  -0.137675  0  3.931584  0
C  C52  1  0.87482452  0.78654881  0.71329645  1  2.122968  0  0.36942  0.738558  0  4.1183  0
C  C53  1  0.37467037  0.21322829  0.28654534  1  2.120196  0  0.369387  0.738601  0  4.118525  0
C  C54  1  0.33844082  0.78657630  0.28656888  1  2.143425  0  0.36962  0.738179  0  4.118389  0
C  C55  1  0.41168334  0.21334507  0.71335865  1  2.143806  0  0.369131  0.737886  0  4.120175  0
C  C56  1  0.69479451  0.14663255  0.31849952  1  2.111315  0  0.362883  0.724917  0  4.114775  0
C  C57  1  0.16014119  0.85334771  0.68138864  1  2.142122  0  0.364576  0.726829  0  4.110445  0
C  C58  1  0.76371659  0.18114421  0.64653809  1  2.133129  0  0.363389  0.724757  0  4.108497  0
C  C59  1  0.59167514  0.81902067  0.35331875  1  2.112187  0  0.362877  0.724524  0  4.113061  0
C  C60  1  0.58996132  0.81860736  0.64640270  1  2.142326  0  0.36436  0.726561  0  4.111175  0
C  C61  1  0.05469299  0.18106585  0.35353715  1  2.110984  0  0.362949  0.723693  0  4.117314  0
C  C62  1  0.15868608  0.14648057  0.68151283  1  2.11183  0  0.361101  0.721974  0  4.11147  0
C  C63  1  0.98617797  0.85359745  0.31874200  1  2.13613  0  0.363574  0.724753  0  4.109803  0
O  O64  1  0.70634882  0.38619185  0.18737519  1  -1.177578  0  -0.264413  -0.576587  0  2.379759  0
O  O65  1  0.27987357  0.61380721  0.81265214  1  -1.176018  0  -0.264379  -0.57586  0  2.379181  0
O  O66  1  0.64368237  0.31263427  0.88626229  1  -1.177562  0  -0.263774  -0.576286  0  2.378584  0
O  O67  1  0.84248568  0.68732639  0.11361756  1  -1.178038  0  -0.26464  -0.576504  0  2.378324  0
O  O68  1  0.47016173  0.68740548  0.88625554  1  -1.175489  0  -0.26442  -0.576167  0  2.378218  0
O  O69  1  0.04385186  0.31263217  0.11374754  1  -1.178089  0  -0.264116  -0.576528  0  2.379417  0
O  O70  1  0.90767520  0.38606308  0.81256642  1  -1.178298  0  -0.264575  -0.576257  0  2.378786  0
O  O71  1  0.10647724  0.61385841  0.18739243  1  -1.17688  0  -0.263443  -0.575595  0  2.379363  0
O  O72  1  0.87527635  0.50055670  0.99913759  1  -1.251539  0  -0.487147  -0.908926  0  2.166035  0
O  O73  1  0.37509983  0.49920074  0.00066817  1  -1.251638  0  -0.487528  -0.909823  0  2.165337  0
O  O74  1  0.62435276  0.50076458  0.00076716  1  -1.224631  0  -0.486263  -0.908069  0  2.165621  0
O  O75  1  0.12575743  0.49932920  0.99929762  1  -1.223907  0  -0.486583  -0.908165  0  2.165905  0
O  O76  1  0.76468345  0.49524473  0.26058024  1  -1.155193  0  -0.249228  -0.534994  0  2.363578  0
O  O77  1  0.52047584  0.50480343  0.73941849  1  -1.157416  0  -0.249975  -0.535252  0  2.3603  0
O  O78  1  0.77521068  0.23936878  0.99531902  1  -1.15169  0  -0.250329  -0.536661  0  2.362837  0
O  O79  1  0.00978536  0.76063999  0.00489465  1  -1.150776  0  -0.250524  -0.536743  0  2.364038  0
O  O80  1  0.22960146  0.76057052  0.99530059  1  -1.15602  0  -0.249969  -0.535307  0  2.362448  0
O  O81  1  0.98547708  0.23941620  0.00474525  1  -1.155794  0  -0.24909  -0.534743  0  2.363246  0
O  O82  1  0.74018007  0.49536401  0.73951787  1  -1.150261  0  -0.25054  -0.536828  0  2.364643  0
O  O83  1  0.97485186  0.50490479  0.26055592  1  -1.152263  0  -0.250646  -0.53642  0  2.362781  0
O  O84  1  0.87476781  0.70846612  0.79137032  1  -1.091341  0  -0.176523  -0.369202  0  2.216903  0
O  O85  1  0.37462469  0.29136533  0.20852435  1  -1.090322  0  -0.176461  -0.369217  0  2.216694  0
O  O86  1  0.41637789  0.70847782  0.20850262  1  -1.11123  0  -0.175844  -0.368105  0  2.217875  0
O  O87  1  0.33351453  0.29145386  0.79141645  1  -1.112946  0  -0.17627  -0.368613  0  2.217801  0
O  O88  1  0.87499301  0.86411147  0.63562204  1  -1.043155  0  -0.1679  -0.345315  0  2.200891  0
O  O89  1  0.37482115  0.13549791  0.36405131  1  -1.041299  0  -0.167864  -0.34542  0  2.201216  0
O  O90  1  0.26097587  0.86420442  0.36417016  1  -1.043785  0  -0.168645  -0.345732  0  2.200109  0
O  O91  1  0.48938264  0.13571133  0.63577039  1  -1.042428  0  -0.168074  -0.345231  0  2.201367  0
O  O92  1  0.74474760  0.15028829  0.37814665  1  -1.052446  0  -0.175418  -0.352469  0  2.233306  0
O  O93  1  0.27348127  0.84946271  0.62159040  1  -1.070608  0  -0.17536  -0.351779  0  2.22817  0
O  O94  1  0.87315190  0.12131559  0.65045920  1  -1.060253  0  -0.175185  -0.352097  0  2.231488  0
O  O95  1  0.64526414  0.87884209  0.34928432  1  -1.051414  0  -0.174568  -0.35169  0  2.233611  0
O  O96  1  0.47668468  0.87833291  0.65013458  1  -1.070981  0  -0.175288  -0.352223  0  2.228893  0
O  O97  1  0.00519734  0.12120321  0.34948247  1  -1.05211  0  -0.175458  -0.352225  0  2.234692  0
O  O98  1  0.10507708  0.15036474  0.62176706  1  -1.054297  0  -0.173808  -0.350324  0  2.231313  0
O  O99  1  0.87677686  0.84962491  0.37861870  1  -1.06119  0  -0.175391  -0.352253  0  2.23249  0
O  O100  1  0.64531508  0.14195081  0.25888820  1  -1.068603  0  -0.172987  -0.361174  0  2.275572  0
O  O101  1  0.04628242  0.85825309  0.74114295  1  -1.08037  0  -0.174859  -0.363818  0  2.275833  0
O  O102  1  0.65480531  0.24100657  0.64156700  1  -1.082066  0  -0.173734  -0.361476  0  2.270173  0
O  O103  1  0.53753885  0.75923485  0.35837449  1  -1.069807  0  -0.173962  -0.36155  0  2.272339  0
O  O104  1  0.70375345  0.75885839  0.64162577  1  -1.081468  0  -0.174408  -0.363033  0  2.277126  0
O  O105  1  0.10366936  0.24094911  0.35859915  1  -1.068445  0  -0.173061  -0.360235  0  2.27638  0
O  O106  1  0.21282946  0.14155354  0.74124077  1  -1.067683  0  -0.172678  -0.360113  0  2.273086  0
O  O107  1  0.09507069  0.85859780  0.25888376  1  -1.084141  0  -0.173856  -0.361364  0  2.27142  0
