# generated using pymatgen
data_ZnH12C16N2O7
_symmetry_space_group_name_H-M   'P 1'
_cell_length_a   11.75604225
_cell_length_b   11.75600097
_cell_length_c   14.44168906
_cell_angle_alpha   71.77878528
_cell_angle_beta   71.77840464
_cell_angle_gamma   62.49925553
_symmetry_Int_Tables_number   1
_chemical_formula_structural   ZnH12C16N2O7
_chemical_formula_sum   'Zn4 H48 C64 N8 O28'
_cell_volume   1647.70551437
_cell_formula_units_Z   4
loop_
 _symmetry_equiv_pos_site_id
 _symmetry_equiv_pos_as_xyz
  1  'x, y, z'
loop_
 _atom_site_type_symbol
 _atom_site_label
 _atom_site_symmetry_multiplicity
 _atom_site_fract_x
 _atom_site_fract_y
 _atom_site_fract_z
 _atom_site_occupancy
 _atom_site_pbe_bader_charge
 _atom_site_pbe_bader_spin_density
 _atom_site_pbe_cm5_charge
 _atom_site_pbe_ddec_charge
 _atom_site_pbe_ddec_spin_density
 _atom_site_pbe_ddec_sum_bond_order
 _atom_site_pbe_magmom
Zn  Zn0  1  0.85638170  0.66576613  0.56075901  1  1.296756  0  0.701938  0.902515  0  2.25662  0
Zn  Zn1  1  0.33423369  0.14361797  0.93924205  1  1.296738  0  0.701904  0.902497  0  2.256676  0
Zn  Zn2  1  0.14361600  0.33423546  0.43924203  1  1.296707  0  0.701923  0.902518  0  2.256554  0
Zn  Zn3  1  0.66576499  0.85638324  0.06075885  1  1.296752  0  0.701944  0.902567  0  2.256501  0
H  H4  1  0.43752914  0.97954236  0.73621455  1  0.551807  0  0.313999  0.290528  0  0.989696  0
H  H5  1  0.02046427  0.56246572  0.76378198  1  0.551829  0  0.314006  0.290525  0  0.989702  0
H  H6  1  0.56246852  0.02046283  0.26378491  1  0.55181  0  0.313995  0.290505  0  0.989744  0
H  H7  1  0.97953934  0.43753178  0.23621515  1  0.5518  0  0.314011  0.29054  0  0.989697  0
H  H8  1  0.26751790  0.08660914  0.21838484  1  0.127511  0  0.110602  0.11105  0  1.031926  0
H  H9  1  0.91339380  0.73248206  0.28161828  1  0.127344  0  0.110567  0.110972  0  1.032007  0
H  H10  1  0.73247886  0.91338925  0.78161654  1  0.127604  0  0.110595  0.11105  0  1.031897  0
H  H11  1  0.08660977  0.26751631  0.71838280  1  0.127506  0  0.110586  0.111026  0  1.031945  0
H  H12  1  0.35165238  0.67945030  0.34946622  1  0.166871  0  0.116278  0.124628  0  0.988501  0
H  H13  1  0.32055504  0.64834881  0.15053338  1  0.166863  0  0.11626  0.124564  0  0.988511  0
H  H14  1  0.64835120  0.32054626  0.65053669  1  0.16695  0  0.116305  0.124673  0  0.988535  0
H  H15  1  0.67945142  0.35165198  0.84946846  1  0.16689  0  0.116278  0.124625  0  0.988511  0
H  H16  1  0.96626898  0.97507797  0.42658677  1  0.112358  0  0.108372  0.109141  0  1.04039  0
H  H17  1  0.02492193  0.03373142  0.07341549  1  0.112229  0  0.108381  0.109175  0  1.040369  0
H  H18  1  0.03373074  0.02491837  0.57341300  1  0.112354  0  0.108388  0.109155  0  1.040366  0
H  H19  1  0.97507483  0.96626787  0.92658498  1  0.112318  0  0.10838  0.109121  0  1.04038  0
H  H20  1  0.61761645  0.74394916  0.74042646  1  0.172681  0  0.143592  0.117815  0  0.988803  0
H  H21  1  0.25605671  0.38237979  0.75957421  1  0.172715  0  0.14357  0.117779  0  0.988887  0
H  H22  1  0.38238222  0.25605204  0.25957513  1  0.172732  0  0.143582  0.117793  0  0.988826  0
H  H23  1  0.74394687  0.61761949  0.24042526  1  0.172674  0  0.143588  0.117821  0  0.988823  0
H  H24  1  0.81028866  0.93920278  0.40193660  1  0.09757  0  0.101279  0.116761  0  1.026621  0
H  H25  1  0.06079128  0.18971615  0.09806221  1  0.097696  0  0.101274  0.116741  0  1.026561  0
H  H26  1  0.18971003  0.06079753  0.59806382  1  0.097572  0  0.101304  0.116794  0  1.026604  0
H  H27  1  0.93920540  0.81029033  0.90193648  1  0.09771  0  0.1013  0.116783  0  1.026548  0
H  H28  1  0.69503971  0.17718738  0.33251645  1  0.058316  0  0.093893  0.094099  0  1.01583  0
H  H29  1  0.82280617  0.30497040  0.16747646  1  0.05848  0  0.093868  0.094036  0  1.015944  0
H  H30  1  0.30496001  0.82281078  0.66748009  1  0.058438  0  0.093897  0.094099  0  1.015819  0
H  H31  1  0.17719143  0.69504290  0.83251962  1  0.058265  0  0.093917  0.094088  0  1.015889  0
H  H32  1  0.38992108  0.22448927  0.59725360  1  0.105748  0  0.105915  0.127645  0  1.002659  0
H  H33  1  0.77551115  0.61008466  0.90273895  1  0.105608  0  0.105885  0.127657  0  1.00269  0
H  H34  1  0.61008249  0.77551364  0.40274011  1  0.105658  0  0.105881  0.127641  0  1.002676  0
H  H35  1  0.22449046  0.38991992  0.09725553  1  0.105689  0  0.10591  0.12766  0  1.002655  0
H  H36  1  0.48879581  0.31677374  0.42789009  1  0.059025  0  0.104828  0.111618  0  0.983646  0
H  H37  1  0.68322431  0.51121024  0.07210376  1  0.058998  0  0.104843  0.111594  0  0.983675  0
H  H38  1  0.51120291  0.68322842  0.57210294  1  0.059101  0  0.104844  0.111605  0  0.983583  0
H  H39  1  0.31677428  0.48880087  0.92789331  1  0.059036  0  0.104847  0.111618  0  0.98368  0
H  H40  1  0.92314076  0.58433771  0.40309721  1  0.659638  0  0.285958  0.37262  0  0.983546  0
H  H41  1  0.41566113  0.07686117  0.09690319  1  0.659642  0  0.285951  0.372618  0  0.983564  0
H  H42  1  0.07685987  0.41566271  0.59690478  1  0.659678  0  0.285946  0.37263  0  0.983531  0
H  H43  1  0.58433660  0.92313683  0.90309873  1  0.659625  0  0.285946  0.372612  0  0.98356  0
H  H44  1  0.81883193  0.52796991  0.46763604  1  0.663414  0  0.287511  0.388214  0  0.950268  0
H  H45  1  0.47202601  0.18117131  0.03236491  1  0.663315  0  0.287522  0.388251  0  0.950219  0
H  H46  1  0.18117069  0.47202705  0.53236493  1  0.663415  0  0.287528  0.388239  0  0.950237  0
H  H47  1  0.52797073  0.81882797  0.96763834  1  0.663312  0  0.287523  0.388213  0  0.95026  0
H  H48  1  0.85250224  0.29590330  0.38058906  1  0.651144  0  0.329106  0.378626  0  0.895994  0
H  H49  1  0.70409665  0.14749316  0.11941342  1  0.651362  0  0.329127  0.378673  0  0.895931  0
H  H50  1  0.14749840  0.70409533  0.61941268  1  0.651129  0  0.329123  0.378727  0  0.895898  0
H  H51  1  0.29589916  0.85250291  0.88058947  1  0.651186  0  0.329064  0.378567  0  0.896027  0
C  C52  1  0.23747676  0.00942893  0.26698442  1  -0.000689  0  -0.06356  -0.077699  0  3.900604  0
C  C53  1  0.99057542  0.76252181  0.23301717  1  -0.000496  0  -0.063508  -0.07763  0  3.900695  0
C  C54  1  0.76252001  0.99056947  0.73301557  1  -0.000716  0  -0.063559  -0.077732  0  3.900568  0
C  C55  1  0.00942914  0.23747527  0.76698468  1  -0.000809  0  -0.063561  -0.07769  0  3.900629  0
C  C56  1  0.45974850  0.83370062  0.21312004  1  1.56392  0  0.20954  0.576196  0  4.18607  0
C  C57  1  0.16630608  0.54025060  0.28688056  1  1.563837  0  0.209472  0.576104  0  4.186113  0
C  C58  1  0.54025019  0.16629789  0.78688221  1  1.564161  0  0.209503  0.576176  0  4.186125  0
C  C59  1  0.83369944  0.45974789  0.71312000  1  1.563987  0  0.209545  0.576248  0  4.186041  0
C  C60  1  0.15353462  0.81610127  0.39483579  1  -0.023535  0  -0.014052  -0.036447  0  3.961568  0
C  C61  1  0.18390009  0.84646647  0.10516583  1  -0.023536  0  -0.014057  -0.036518  0  3.961749  0
C  C62  1  0.84646607  0.18389377  0.60516614  1  -0.02353  0  -0.014072  -0.036501  0  3.961509  0
C  C63  1  0.81610155  0.15353268  0.89483346  1  -0.023529  0  -0.014043  -0.036495  0  3.96167  0
C  C64  1  0.28244808  0.78166581  0.34144701  1  -0.039348  0  -0.053617  -0.067544  0  3.873389  0
C  C65  1  0.21833678  0.71755274  0.15855595  1  -0.039362  0  -0.053597  -0.067434  0  3.873377  0
C  C66  1  0.71755357  0.21832974  0.65855525  1  -0.039387  0  -0.053655  -0.067617  0  3.873477  0
C  C67  1  0.78166677  0.28244742  0.84144538  1  -0.039639  0  -0.053624  -0.067514  0  3.873278  0
C  C68  1  0.32366618  0.87763684  0.27481468  1  -0.027973  0  -0.016096  -0.043224  0  3.96133  0
C  C69  1  0.12236669  0.67633193  0.22518542  1  -0.028586  0  -0.016106  -0.04324  0  3.961439  0
C  C70  1  0.67633060  0.12236157  0.72518392  1  -0.028334  0  -0.016083  -0.04321  0  3.961384  0
C  C71  1  0.87763979  0.32366706  0.77481616  1  -0.027999  0  -0.01607  -0.043254  0  3.961292  0
C  C72  1  0.10951356  0.04462187  0.32302633  1  -0.031351  0  -0.020923  -0.056515  0  3.991847  0
C  C73  1  0.95537952  0.89048438  0.17697457  1  -0.031377  0  -0.020911  -0.056451  0  3.991835  0
C  C74  1  0.89048324  0.95537565  0.67697110  1  -0.031378  0  -0.020974  -0.056557  0  3.991967  0
C  C75  1  0.04462111  0.10951423  0.82302926  1  -0.031243  0  -0.020877  -0.056444  0  3.991887  0
C  C76  1  0.06637660  0.94775129  0.38443632  1  0.011843  0  -0.065401  -0.082585  0  3.893968  0
C  C77  1  0.05224989  0.93362368  0.11556550  1  0.011942  0  -0.06539  -0.082598  0  3.894012  0
C  C78  1  0.93362408  0.05224465  0.61556399  1  0.011877  0  -0.065322  -0.08247  0  3.893891  0
C  C79  1  0.94774980  0.06637355  0.88443544  1  0.011758  0  -0.065411  -0.082553  0  3.89405  0
C  C80  1  0.66643172  0.95040919  0.53963468  1  0.35741  0  0.084226  0.140387  0  4.03815  0
C  C81  1  0.04958773  0.33356560  0.96036426  1  0.357061  0  0.084259  0.140449  0  4.038173  0
C  C82  1  0.33356990  0.04959086  0.46036507  1  0.357423  0  0.084243  0.140376  0  4.038207  0
C  C83  1  0.95041295  0.66643215  0.03963492  1  0.357286  0  0.084263  0.140419  0  4.038213  0
C  C84  1  0.10773921  0.71357646  0.46468810  1  1.563934  0  0.21514  0.583195  0  4.209343  0
C  C85  1  0.28642183  0.89226389  0.03531153  1  1.563948  0  0.215247  0.583307  0  4.209157  0
C  C86  1  0.89226147  0.28641948  0.53531430  1  1.563937  0  0.215188  0.583301  0  4.209094  0
C  C87  1  0.71357684  0.10773823  0.96468776  1  1.563952  0  0.215178  0.583277  0  4.209278  0
C  C88  1  0.61561334  0.82867956  0.68151371  1  1.034684  0  0.167632  0.191421  0  3.936541  0
C  C89  1  0.17132152  0.38438812  0.81848572  1  1.035082  0  0.167665  0.19149  0  3.936541  0
C  C90  1  0.38438337  0.17132332  0.31848795  1  1.034648  0  0.1676  0.191367  0  3.936721  0
C  C91  1  0.82867911  0.61561322  0.18151327  1  1.03468  0  0.167587  0.191345  0  3.936629  0
C  C92  1  0.02437131  0.18491520  0.32117357  1  1.482915  0  0.241802  0.585015  0  4.09864  0
C  C93  1  0.81508767  0.97562585  0.17882506  1  1.482904  0  0.241745  0.584997  0  4.098747  0
C  C94  1  0.97562646  0.81508192  0.67882510  1  1.482871  0  0.241796  0.58501  0  4.098939  0
C  C95  1  0.18491203  0.02437228  0.82117496  1  1.482818  0  0.241772  0.585016  0  4.098615  0
C  C96  1  0.54875338  0.03132113  0.59372710  1  0.371488  0  0.094004  0.139598  0  4.010187  0
C  C97  1  0.96867859  0.45124439  0.90627140  1  0.371663  0  0.094007  0.139608  0  4.010319  0
C  C98  1  0.45125019  0.96867996  0.40627054  1  0.371524  0  0.093988  0.139636  0  4.010208  0
C  C99  1  0.03132012  0.54875413  0.09372877  1  0.371497  0  0.093994  0.139575  0  4.010362  0
C  C100  1  0.72083831  0.00170877  0.44426912  1  -0.035452  0  -0.097991  -0.161986  0  3.974966  0
C  C101  1  0.99828362  0.27916677  0.05573027  1  -0.035516  0  -0.098073  -0.162104  0  3.975001  0
C  C102  1  0.27916232  0.99829257  0.55573056  1  -0.035483  0  -0.097996  -0.16199  0  3.975108  0
C  C103  1  0.00171208  0.72083920  0.94427019  1  -0.035405  0  -0.098056  -0.162074  0  3.97489  0
C  C104  1  0.65504080  0.13417536  0.40661227  1  0.019955  0  -0.102564  -0.087447  0  4.03434  0
C  C105  1  0.86581721  0.34496834  0.09338389  1  0.019683  0  -0.102495  -0.08733  0  4.034108  0
C  C106  1  0.34495786  0.86582855  0.59338658  1  0.019939  0  -0.102593  -0.087487  0  4.034453  0
C  C107  1  0.13418141  0.65504007  0.90661315  1  0.019931  0  -0.102559  -0.087403  0  4.034061  0
C  C108  1  0.48220261  0.16394359  0.55597281  1  -0.076315  0  -0.092845  -0.158121  0  3.970663  0
C  C109  1  0.83605464  0.51779977  0.94401997  1  -0.075721  0  -0.092832  -0.158187  0  3.970761  0
C  C110  1  0.51779807  0.83605417  0.44402498  1  -0.07569  0  -0.092822  -0.158174  0  3.970761  0
C  C111  1  0.16394501  0.48220377  0.05597733  1  -0.075795  0  -0.092847  -0.15813  0  3.970726  0
C  C112  1  0.53793313  0.21406994  0.46125977  1  -0.013022  0  -0.093316  -0.080915  0  4.006762  0
C  C113  1  0.78592530  0.46207502  0.03873380  1  -0.013273  0  -0.093294  -0.080806  0  4.006552  0
C  C114  1  0.46206650  0.78593539  0.53873710  1  -0.01362  0  -0.093316  -0.080852  0  4.006813  0
C  C115  1  0.21407139  0.53793148  0.96126351  1  -0.013516  0  -0.093334  -0.080899  0  4.006675  0
N  N116  1  0.70524830  0.82396686  0.59715974  1  -1.238487  0  -0.364359  -0.375425  0  3.583627  0
N  N117  1  0.17603057  0.29475290  0.90283900  1  -1.238663  0  -0.364357  -0.375468  0  3.583605  0
N  N118  1  0.29475232  0.17603446  0.40284203  1  -1.238535  0  -0.364315  -0.375337  0  3.583609  0
N  N119  1  0.82396909  0.70524884  0.09715944  1  -1.238446  0  -0.364312  -0.37541  0  3.583598  0
N  N120  1  0.52135679  0.95035552  0.68251118  1  -1.294977  0  -0.376945  -0.261072  0  3.653168  0
N  N121  1  0.04964416  0.47864308  0.81748826  1  -1.295142  0  -0.37698  -0.261107  0  3.653234  0
N  N122  1  0.47864285  0.04964800  0.31748752  1  -1.295027  0  -0.376956  -0.261077  0  3.653401  0
N  N123  1  0.95035454  0.52135724  0.18251077  1  -1.294981  0  -0.376953  -0.261046  0  3.653305  0
O  O124  1  0.49486903  0.92645856  0.15111894  1  -1.180957  0  -0.332297  -0.594073  0  2.419956  0
O  O125  1  0.07354547  0.50513268  0.34888116  1  -1.181008  0  -0.332253  -0.594012  0  2.419985  0
O  O126  1  0.50513161  0.07353915  0.84888511  1  -1.181004  0  -0.33226  -0.594066  0  2.419961  0
O  O127  1  0.92645810  0.49486751  0.65111739  1  -1.180958  0  -0.332313  -0.594097  0  2.419933  0
O  O128  1  0.83479093  0.61059305  0.44855590  1  -1.298212  0  -0.574609  -0.744824  0  2.129149  0
O  O129  1  0.38940431  0.16521054  0.05144533  1  -1.29814  0  -0.574595  -0.744836  0  2.129116  0
O  O130  1  0.16520972  0.38940468  0.55144606  1  -1.298285  0  -0.574617  -0.744847  0  2.129112  0
O  O131  1  0.61059538  0.83478669  0.94855561  1  -1.298142  0  -0.574625  -0.74482  0  2.129108  0
O  O132  1  0.98706898  0.73893989  0.47325761  1  -1.178815  0  -0.318485  -0.557055  0  2.371886  0
O  O133  1  0.26105980  0.01293413  0.02674325  1  -1.1789  0  -0.318536  -0.557078  0  2.371746  0
O  O134  1  0.01293269  0.26105658  0.52674095  1  -1.178829  0  -0.318519  -0.557159  0  2.371809  0
O  O135  1  0.73893984  0.98706759  0.97325727  1  -1.178863  0  -0.318509  -0.557104  0  2.371852  0
O  O136  1  0.06541125  0.27247683  0.28723178  1  -1.169359  0  -0.27594  -0.505775  0  2.243811  0
O  O137  1  0.72752462  0.93458734  0.21277044  1  -1.169368  0  -0.275933  -0.50575  0  2.243759  0
O  O138  1  0.93458849  0.72751862  0.71276612  1  -1.169437  0  -0.275909  -0.505707  0  2.244056  0
O  O139  1  0.27247702  0.06540910  0.78723229  1  -1.169314  0  -0.275931  -0.505784  0  2.243768  0
O  O140  1  0.18836287  0.61359394  0.51154145  1  -1.194351  0  -0.321941  -0.568431  0  2.150311  0
O  O141  1  0.38640349  0.81163812  0.98845896  1  -1.194295  0  -0.322002  -0.568503  0  2.150293  0
O  O142  1  0.81163975  0.38640212  0.48846044  1  -1.194254  0  -0.321965  -0.568454  0  2.150298  0
O  O143  1  0.61359616  0.18836179  0.01154271  1  -1.194368  0  -0.321973  -0.568471  0  2.15028  0
O  O144  1  0.53313682  0.71563767  0.22037816  1  -1.1661  0  -0.310413  -0.529039  0  2.104451  0
O  O145  1  0.28436678  0.46685867  0.27962193  1  -1.165706  0  -0.310387  -0.529  0  2.104455  0
O  O146  1  0.46685994  0.28436071  0.77962391  1  -1.166062  0  -0.310398  -0.528999  0  2.104465  0
O  O147  1  0.71563684  0.53313611  0.72037864  1  -1.166099  0  -0.310402  -0.529035  0  2.104448  0
O  O148  1  0.89819447  0.20823684  0.36278834  1  -1.159824  0  -0.320258  -0.472908  0  2.332554  0
O  O149  1  0.79176326  0.10180374  0.13721231  1  -1.159962  0  -0.320262  -0.472986  0  2.332589  0
O  O150  1  0.10180520  0.79176127  0.63721446  1  -1.159797  0  -0.320287  -0.473061  0  2.332488  0
O  O151  1  0.20823449  0.89819426  0.86278823  1  -1.159839  0  -0.320233  -0.472884  0  2.332552  0
