# generated using pymatgen
data_CuH10C10(NCl)2
_symmetry_space_group_name_H-M   'P 1'
_cell_length_a   3.77995228
_cell_length_b   8.43872427
_cell_length_c   16.90651702
_cell_angle_alpha   90.00187671
_cell_angle_beta   93.75981501
_cell_angle_gamma   90.00163438
_symmetry_Int_Tables_number   1
_chemical_formula_structural   CuH10C10(NCl)2
_chemical_formula_sum   'Cu2 H20 C20 N4 Cl4'
_cell_volume   538.12296014
_cell_formula_units_Z   2
loop_
 _symmetry_equiv_pos_site_id
 _symmetry_equiv_pos_as_xyz
  1  'x, y, z'
loop_
 _atom_site_type_symbol
 _atom_site_label
 _atom_site_symmetry_multiplicity
 _atom_site_fract_x
 _atom_site_fract_y
 _atom_site_fract_z
 _atom_site_occupancy
 _atom_site_hle17_ddec_charge
 _atom_site_hle17_ddec_spin_density
 _atom_site_hle17_ddec_sum_bond_order
 _atom_site_hle17_magmom
 _atom_site_hse06_10hf_ddec_charge
 _atom_site_hse06_10hf_ddec_spin_density
 _atom_site_hse06_10hf_ddec_sum_bond_order
 _atom_site_hse06_10hf_magmom
 _atom_site_hse06_ddec_charge
 _atom_site_hse06_ddec_spin_density
 _atom_site_hse06_ddec_sum_bond_order
 _atom_site_hse06_magmom
 _atom_site_pbe_cm5_charge
 _atom_site_pbe_ddec_charge
 _atom_site_pbe_ddec_spin_density
 _atom_site_pbe_ddec_sum_bond_order
 _atom_site_pbe_magmom
Cu  Cu0  1  0.00000227  0.99999831  0.00000074  1  0.727206  -0.665643  1.908048  -0.453  0.705563  -0.75077  2.300978  -0.566  0.795513  -0.833562  2.227893  -0.65  0.590125  0.655976  -0.697108  2.346317  -0.516
Cu  Cu1  1  0.50000090  0.49999802  0.50000093  1  0.727004  0.66565  1.907927  0.453  0.70531  0.750777  2.300828  0.566  0.79534  0.833575  2.227752  0.65  0.590082  0.655692  0.697119  2.346196  0.516
H  H2  1  0.15634909  0.02104069  0.83416308  1  0.078905  -0.001187  0.976847  -0.002  0.085256  -0.001093  1.047492  -0.001  0.08744  -0.000815  1.044741  -0.001  0.10293  0.083509  -0.001302  1.049629  -0.002
H  H3  1  0.34370585  0.52108724  0.66583533  1  0.078858  0.001186  0.976763  0.002  0.085328  0.001094  1.047278  0.001  0.08752  0.000816  1.044511  0.001  0.102961  0.083576  0.001303  1.04942  0.002
H  H4  1  0.84366328  0.97895771  0.16583830  1  0.078854  -0.001182  0.976981  -0.002  0.085253  -0.001093  1.047567  -0.001  0.087437  -0.000815  1.044815  -0.001  0.102922  0.083504  -0.001302  1.049702  -0.002
H  H5  1  0.65629608  0.47891827  0.33416830  1  0.078876  0.001185  0.976787  0.002  0.085341  0.001094  1.047304  0.001  0.087532  0.000816  1.044541  0.001  0.102948  0.08359  0.001303  1.049447  0.002
H  H6  1  0.92024361  0.50022492  0.75808057  1  0.086457  -0.000333  0.966228  -0.001  0.097989  -3.5e-05  1.028763  0.0  0.099841  5e-06  1.027779  0.0  0.102427  0.096595  -7.6e-05  1.02955  0.0
H  H7  1  0.57984596  0.00028748  0.74190769  1  0.086328  0.000332  0.966331  0.001  0.097844  3.5e-05  1.028889  0.0  0.099694  -5e-06  1.027908  0.0  0.102299  0.096433  7.6e-05  1.029692  0.0
H  H8  1  0.07976077  0.49977348  0.24192013  1  0.086431  -0.000333  0.966255  -0.001  0.097964  -3.5e-05  1.028793  0.0  0.099816  5e-06  1.027808  0.0  0.102416  0.09657  -7.6e-05  1.029577  0.0
H  H9  1  0.42015014  0.99972040  0.25808819  1  0.086408  0.000333  0.9662  0.001  0.097939  3.5e-05  1.028741  0.0  0.099791  -5e-06  1.027758  0.0  0.102352  0.096532  7.6e-05  1.029532  0.0
H  H10  1  0.13219485  0.22901041  0.72597508  1  0.109696  0.000597  0.955559  0.0  0.120973  0.000658  1.013119  0.0  0.124105  0.000522  1.012291  0.0  0.100503  0.11873  0.000762  1.013865  0.0
H  H11  1  0.36790459  0.72906784  0.77401845  1  0.109735  -0.000596  0.955729  0.0  0.120975  -0.000658  1.01332  0.0  0.124106  -0.000521  1.012499  0.0  0.100597  0.118726  -0.000762  1.014076  0.0
H  H12  1  0.86781483  0.77098563  0.27402568  1  0.109709  0.000595  0.955567  0.0  0.120954  0.000658  1.013133  0.0  0.124087  0.000521  1.012304  0.0  0.100508  0.118703  0.000762  1.013887  0.0
H  H13  1  0.63209457  0.27094360  0.22598337  1  0.109781  -0.000597  0.955649  0.0  0.120992  -0.000658  1.013287  0.0  0.124124  -0.000521  1.012464  0.0  0.100583  0.118741  -0.000762  1.014041  0.0
H  H14  1  0.75393701  0.55837449  0.89675446  1  0.106957  -0.000934  0.989646  -0.001  0.115956  -0.000994  1.052933  -0.001  0.119827  -0.000735  1.050824  0.0  0.09238  0.113274  -0.001196  1.054408  -0.001
H  H15  1  0.74611635  0.05841379  0.60323200  1  0.106977  0.000935  0.989686  0.001  0.115967  0.000994  1.05295  0.001  0.119847  0.000735  1.05083  0.0  0.092386  0.113283  0.001195  1.05443  0.001
H  H16  1  0.24606468  0.44162273  0.10324562  1  0.106988  -0.000935  0.989727  -0.001  0.115991  -0.000994  1.052995  -0.001  0.119862  -0.000735  1.050886  0.0  0.092396  0.113308  -0.001196  1.05447  -0.001
H  H17  1  0.25387971  0.94158580  0.39676328  1  0.106995  0.000935  0.989678  0.001  0.115978  0.000994  1.052952  0.001  0.119856  0.000735  1.050836  0.0  0.092383  0.113293  0.001195  1.05443  0.001
H  H18  1  0.79286314  0.33628162  0.99670279  1  0.081065  -0.001172  0.966165  -0.002  0.088543  -0.001091  1.033287  -0.001  0.090686  -0.000819  1.031061  -0.001  0.105219  0.086823  -0.001291  1.035077  -0.001
H  H19  1  0.70716818  0.83630512  0.50328751  1  0.081161  0.001169  0.966224  0.002  0.088492  0.001089  1.033554  0.001  0.090611  0.000818  1.031355  0.001  0.10524  0.08677  0.00129  1.035341  0.001
H  H20  1  0.20713589  0.66371678  0.00329726  1  0.081067  -0.001171  0.966159  -0.002  0.08853  -0.001091  1.033295  -0.001  0.090673  -0.000819  1.03107  -0.001  0.105224  0.086812  -0.001292  1.035086  -0.001
H  H21  1  0.29282805  0.16368973  0.49671015  1  0.081195  0.00117  0.966191  0.002  0.088524  0.00109  1.033517  0.001  0.090632  0.000819  1.031331  0.001  0.105256  0.086807  0.001291  1.035303  0.001
C  C22  1  0.84395932  0.44076912  0.88022892  1  -0.125397  -0.010794  3.724641  -0.011  -0.132976  -0.004419  3.965661  -0.005  -0.141096  -0.00409  3.986546  -0.005  -0.088481  -0.127675  -0.004627  3.951405  -0.005
C  C23  1  0.65608643  0.94080774  0.61976033  1  -0.125295  0.010775  3.724856  0.011  -0.132795  0.004417  3.965847  0.005  -0.140916  0.004087  3.986721  0.005  -0.088294  -0.127496  0.004624  3.951592  0.005
C  C24  1  0.15603698  0.55922810  0.11976991  1  -0.125542  -0.010775  3.724787  -0.011  -0.133134  -0.004419  3.965805  -0.005  -0.141256  -0.004089  3.986691  -0.005  -0.088562  -0.127835  -0.004626  3.951557  -0.005
C  C25  1  0.34390706  0.05919303  0.38023610  1  -0.125251  0.010777  3.724708  0.011  -0.132753  0.004418  3.965701  0.005  -0.140871  0.004088  3.986572  0.005  -0.088299  -0.127455  0.004625  3.95144  0.005
C  C26  1  0.86703380  0.31950275  0.93614672  1  0.130777  0.007745  3.675752  0.008  0.101733  0.000916  3.922298  0.002  0.110616  0.002065  3.942671  0.003  0.043473  0.096254  -1e-05  3.908912  0.001
C  C27  1  0.63300432  0.81953981  0.56384219  1  0.130811  -0.007732  3.675526  -0.008  0.101755  -0.000917  3.922133  -0.002  0.110657  -0.002065  3.942506  -0.003  0.043438  0.096278  1e-05  3.908753  -0.001
C  C28  1  0.13295729  0.68049446  0.06385324  1  0.13082  0.007728  3.675648  0.008  0.10181  0.000917  3.922156  0.002  0.110694  0.002064  3.942528  0.003  0.043518  0.096323  -1e-05  3.908777  0.001
C  C29  1  0.36699198  0.18046096  0.43615665  1  0.130703  -0.007734  3.67548  -0.008  0.101664  -0.000917  3.922066  -0.002  0.110575  -0.002065  3.942442  -0.003  0.043403  0.096181  1e-05  3.90869  -0.001
C  C30  1  0.06962202  0.14188333  0.84433979  1  0.116832  0.007673  3.698382  0.008  0.086187  0.000944  3.951208  0.002  0.094972  0.00208  3.971411  0.003  0.039235  0.080754  2.4e-05  3.937963  0.001
C  C31  1  0.43042145  0.64193634  0.65565107  1  0.116473  -0.007657  3.69831  -0.008  0.085727  -0.000944  3.951199  -0.002  0.094514  -0.002078  3.971392  -0.003  0.038876  0.080297  -2.2e-05  3.937959  -0.001
C  C32  1  0.93037706  0.85811152  0.15566086  1  0.116744  0.00766  3.698656  0.008  0.086053  0.000946  3.951447  0.002  0.094838  0.002079  3.971649  0.003  0.039171  0.080619  2.4e-05  3.938195  0.001
C  C33  1  0.56957506  0.35807035  0.34435073  1  0.11639  -0.00766  3.69835  -0.008  0.085643  -0.000944  3.951222  -0.002  0.094429  -0.002079  3.971416  -0.003  0.038915  0.080207  -2.3e-05  3.937981  -0.001
C  C34  1  0.05637022  0.25724712  0.78547154  1  -0.125992  -0.009419  3.73574  -0.009  -0.134934  -0.003039  3.981617  -0.003  -0.142726  -0.003079  4.00255  -0.003  -0.087712  -0.129818  -0.002951  3.967296  -0.003
C  C35  1  0.44367805  0.75729701  0.71452249  1  -0.125987  0.009408  3.735493  0.009  -0.134962  0.003041  3.981578  0.003  -0.142755  0.003079  4.002512  0.003  -0.087837  -0.129845  0.002953  3.96725  0.003
C  C36  1  0.94362082  0.74274891  0.21452783  1  -0.125959  -0.009404  3.735813  -0.009  -0.134824  -0.00304  3.981649  -0.003  -0.142616  -0.003078  4.002582  -0.003  -0.087669  -0.129708  -0.002952  3.96732  -0.003
C  C37  1  0.55631307  0.24270969  0.28547806  1  -0.125852  0.009408  3.735309  0.009  -0.134804  0.00304  3.981358  0.003  -0.142596  0.003079  4.002291  0.003  -0.08778  -0.129687  0.002953  3.967024  0.003
C  C38  1  0.93949193  0.40876009  0.80361876  1  -0.000311  0.009687  3.71812  0.009  -0.018173  0.002912  3.96104  0.003  -0.013365  0.003263  3.979212  0.003  -0.067669  -0.021071  0.002578  3.948579  0.002
C  C39  1  0.56057555  0.90881776  0.69636902  1  -0.000355  -0.009675  3.717942  -0.009  -0.018203  -0.002913  3.960971  -0.003  -0.013389  -0.003262  3.97914  -0.003  -0.06766  -0.021088  -0.002578  3.948511  -0.002
C  C40  1  0.06050172  0.59123357  0.19638004  1  -0.000213  0.00967  3.718102  0.009  -0.018114  0.002913  3.961056  0.003  -0.013305  0.003262  3.979226  0.003  -0.067636  -0.021008  0.002578  3.948572  0.002
C  C41  1  0.43942067  0.09119012  0.30362863  1  -0.000552  -0.009673  3.71796  -0.009  -0.018419  -0.002913  3.961012  -0.003  -0.013609  -0.003262  3.979186  -0.003  -0.067737  -0.021304  -0.002578  3.94854  -0.002
N  N42  1  0.97641624  0.17279829  0.91828020  1  -0.287851  -0.083097  3.372751  -0.1  -0.227451  -0.056686  3.652693  -0.073  -0.261505  -0.048632  3.680994  -0.066  -0.350226  -0.207762  -0.060435  3.635825  -0.076
N  N43  1  0.52359965  0.67282671  0.58171190  1  -0.287436  0.083082  3.37216  0.1  -0.226836  0.056685  3.651858  0.073  -0.260925  0.048628  3.680236  0.066  -0.349888  -0.207137  0.06043  3.634963  0.076
N  N44  1  0.02358011  0.82719893  0.08171923  1  -0.287735  -0.083084  3.372549  -0.1  -0.227349  -0.056686  3.6525  -0.073  -0.261404  -0.048631  3.680803  -0.066  -0.350197  -0.207659  -0.060438  3.635622  -0.076
N  N45  1  0.47639685  0.32717170  0.41828989  1  -0.287407  0.083084  3.372215  0.1  -0.226806  0.056685  3.651898  0.073  -0.260895  0.048628  3.680275  0.066  -0.349922  -0.207114  0.060434  3.635017  0.076
Cl  Cl46  1  0.38693522  0.15069273  0.08034066  1  -0.53473  -0.121106  1.003127  -0.135  -0.535879  -0.082244  1.296642  -0.097  -0.566543  -0.065083  1.272072  -0.08  -0.287144  -0.517583  -0.092262  1.314133  -0.105
Cl  Cl47  1  0.11307442  0.65064586  0.41964989  1  -0.534823  0.121108  1.003283  0.135  -0.535991  0.082243  1.296825  0.097  -0.56668  0.065082  1.272275  0.08  -0.287168  -0.517681  0.092263  1.314314  0.105
Cl  Cl48  1  0.61307454  0.84930330  0.91966129  1  -0.534735  -0.121109  1.003169  -0.135  -0.535878  -0.082247  1.296677  -0.097  -0.566542  -0.065086  1.272109  -0.08  -0.287129  -0.517584  -0.09226  1.314171  -0.105
Cl  Cl49  1  0.88693269  0.34935254  0.58035203  1  -0.53478  0.121108  1.003194  0.135  -0.535953  0.082243  1.29675  0.097  -0.566641  0.065081  1.272196  0.08  -0.287153  -0.517644  0.092256  1.314242  0.105
