# generated using pymatgen
data_Al4H35C60O20F
_symmetry_space_group_name_H-M   'P 1'
_cell_length_a   6.68320075
_cell_length_b   22.79835961
_cell_length_c   24.88119765
_cell_angle_alpha   107.68286211
_cell_angle_beta   89.83198658
_cell_angle_gamma   89.85097970
_symmetry_Int_Tables_number   1
_chemical_formula_structural   Al4H35C60O20F
_chemical_formula_sum   'Al4 H35 C60 O20 F1'
_cell_volume   3611.89108257
_cell_formula_units_Z   1
loop_
 _symmetry_equiv_pos_site_id
 _symmetry_equiv_pos_as_xyz
  1  'x, y, z'
loop_
 _atom_site_type_symbol
 _atom_site_label
 _atom_site_symmetry_multiplicity
 _atom_site_fract_x
 _atom_site_fract_y
 _atom_site_fract_z
 _atom_site_occupancy
 _atom_site_pbe_bader_charge
 _atom_site_pbe_bader_spin_density
 _atom_site_pbe_cm5_charge
 _atom_site_pbe_ddec_charge
 _atom_site_pbe_ddec_spin_density
 _atom_site_pbe_ddec_sum_bond_order
 _atom_site_pbe_magmom
Al  Al0  1  0.13521830  0.50040431  0.49991541  1  2.503536  0  0.404949  1.649793  0  2.576739  0
Al  Al1  1  0.63559065  0.49924951  0.49987340  1  2.503063  0  0.404729  1.65075  0  2.57612  0
Al  Al2  1  0.67475076  0.00001448  0.00013698  1  2.502751  0  0.404149  1.651317  0  2.575854  0
Al  Al3  1  0.17489703  0.00001821  0.99929156  1  2.503819  0  0.404294  1.650032  0  2.577119  0
H  H4  1  0.60465817  0.11899606  0.90839739  1  0.122207  0  0.108459  0.112421  0  1.003144  0
H  H5  1  0.59591002  0.18429006  0.84421353  1  0.057336  0  0.101543  0.099062  0  1.011176  0
H  H6  1  0.22750807  0.15430766  0.81322716  1  0.047702  0  0.098121  0.09536  0  1.024037  0
H  H7  1  0.23694244  0.09180349  0.88019016  1  0.090537  0  0.108681  0.113384  0  0.999916  0
H  H8  1  0.13432338  0.27087525  0.82943263  1  0.059365  0  0.101521  0.102375  0  0.996335  0
H  H9  1  0.13399780  0.33738094  0.76741842  1  0.067907  0  0.102267  0.103836  0  1.001725  0
H  H10  1  0.68030433  0.22260992  0.66524494  1  0.058867  0  0.099425  0.099894  0  1.017585  0
H  H11  1  0.58075798  0.31455779  0.65889472  1  0.034072  0  0.098777  0.096432  0  1.022001  0
H  H12  1  0.57395780  0.37984599  0.59493139  1  0.086098  0  0.10698  0.10937  0  1.004785  0
H  H13  1  0.20647712  0.40984241  0.61699023  1  0.082324  0  0.10899  0.112951  0  1.001032  0
H  H14  1  0.21566990  0.34483433  0.68115836  1  0.055781  0  0.099164  0.096497  0  1.021442  0
H  H15  1  0.10898236  0.87649940  0.08718690  1  0.089066  0  0.107844  0.111163  0  1.002045  0
H  H16  1  0.10020610  0.81084013  0.15083762  1  0.068619  0  0.102068  0.100432  0  1.008819  0
H  H17  1  0.72201724  0.84990848  0.19002992  1  0.06136  0  0.098147  0.09518  0  1.027578  0
H  H18  1  0.73322535  0.91205444  0.12290484  1  0.092322  0  0.108806  0.113061  0  0.99704  0
H  H19  1  0.65617192  0.73492457  0.17460300  1  0.076562  0  0.101046  0.101494  0  0.998856  0
H  H20  1  0.66495570  0.66993906  0.23776838  1  0.066976  0  0.101262  0.10738  0  1.00147  0
H  H21  1  0.16236995  0.77118536  0.32977833  1  0.037897  0  0.101208  0.104426  0  1.009589  0
H  H22  1  0.08479680  0.67171240  0.32752607  1  0.134343  0  0.097162  0.103931  0  1.05437  0
H  H23  1  0.07006697  0.60708025  0.39184812  1  0.081345  0  0.107683  0.113483  0  1.008723  0
H  H24  1  0.71376743  0.60533854  0.39766296  1  0.118651  0  0.117403  0.144418  0  0.994945  0
H  H25  1  0.30714672  0.91360259  0.34203488  1  0.004876  0  0.085122  0.111578  0  1.00179  0
H  H26  1  0.34565819  0.92396026  0.27487705  1  0.033681  0  0.084563  0.113629  0  1.017684  0
H  H27  1  0.12673123  0.95440174  0.31441673  1  0.042263  0  0.087963  0.116202  0  0.997816  0
H  H28  1  0.04205598  0.85863232  0.23817416  1  0.00799  0  0.087238  0.076929  0  1.027678  0
H  H29  1  0.00679503  0.84702500  0.30434724  1  0.00517  0  0.09319  0.089514  0  0.975852  0
H  H30  1  0.86388901  0.08497105  0.65579431  1  0.03165  0  0.084926  0.111367  0  1.00252  0
H  H31  1  0.89256722  0.07497000  0.72338674  1  0.026133  0  0.084689  0.113625  0  1.018921  0
H  H32  1  0.69027323  0.03894394  0.67958250  1  0.035802  0  0.088654  0.117218  0  0.997151  0
H  H33  1  0.56712403  0.13160781  0.75446024  1  0.028386  0  0.088087  0.079605  0  1.019625  0
H  H34  1  0.54019422  0.14258057  0.68775459  1  0.022768  0  0.092073  0.087324  0  0.976365  0
H  H35  1  0.38369274  0.41902557  0.48143448  1  0.653225  0  0.36144  0.441352  0  0.836336  0
H  H36  1  0.88224804  0.58018947  0.52639862  1  0.613144  0  0.359684  0.439683  0  0.839943  0
H  H37  1  0.42373087  0.08072635  0.02295397  1  0.608468  0  0.360277  0.439817  0  0.838974  0
H  H38  1  0.92573639  0.91916517  0.98039374  1  0.602819  0  0.36111  0.441185  0  0.836966  0
C  C39  1  0.38564815  0.58506945  0.58679796  1  1.695819  0  0.277101  0.703069  0  4.1813  0
C  C40  1  0.38540230  0.56315500  0.43749923  1  1.569403  0  0.267765  0.642685  0  4.094731  0
C  C41  1  0.88700424  0.41510840  0.41300880  1  1.694939  0  0.277306  0.700533  0  4.182665  0
C  C42  1  0.88723809  0.43640857  0.56248675  1  1.568548  0  0.266147  0.643069  0  4.100388  0
C  C43  1  0.74012752  0.12691895  0.88716659  1  -0.050975  0  -0.080105  -0.082943  0  3.980383  0
C  C44  1  0.73556105  0.16260400  0.85075815  1  -0.02008  0  -0.088878  -0.135193  0  3.986471  0
C  C45  1  0.91030596  0.17244023  0.82311431  1  -0.04921  0  0.001369  0.088435  0  3.99324  0
C  C46  1  0.09122557  0.14701723  0.83458372  1  -0.037335  0  -0.091623  -0.1444  0  3.988148  0
C  C47  1  0.09703918  0.11192795  0.87161166  1  -0.007141  0  -0.079916  -0.082379  0  3.97638  0
C  C48  1  0.92084623  0.10105427  0.89773731  1  -0.070699  0  -0.017717  -0.051692  0  3.981566  0
C  C49  1  0.03521409  0.26016462  0.79296201  1  -0.04606  0  -0.09269  -0.125335  0  4.027462  0
C  C50  1  0.03529451  0.29756158  0.75799171  1  -0.057257  0  -0.095426  -0.13768  0  4.014375  0
C  C51  1  0.90380359  0.28556608  0.71202517  1  -0.023864  0  -0.011996  0.067467  0  4.037561  0
C  C52  1  0.77728784  0.23434510  0.70221636  1  -0.024818  0  -0.093588  -0.193618  0  3.96794  0
C  C53  1  0.77560723  0.19594694  0.73657344  1  -0.003565  0  -0.006585  0.083519  0  3.92858  0
C  C54  1  0.90554016  0.20971874  0.78362918  1  -0.030375  0  -0.008743  0.009233  0  3.958858  0
C  C55  1  0.71876628  0.33503531  0.64953446  1  -0.045169  0  -0.092473  -0.13899  0  3.986097  0
C  C56  1  0.71383172  0.37164903  0.61392894  1  -0.058076  0  -0.080879  -0.079782  0  3.984819  0
C  C57  1  0.88997547  0.39860294  0.60186365  1  -0.038232  0  -0.018711  -0.05473  0  3.984436  0
C  C58  1  0.07027850  0.38879729  0.62662200  1  -0.027413  0  -0.080582  -0.080832  0  3.97911  0
C  C59  1  0.07418266  0.35270717  0.66267090  1  0.015273  0  -0.091558  -0.137411  0  3.981966  0
C  C60  1  0.89887219  0.32482810  0.67459678  1  -0.031655  0  -0.001271  0.082637  0  3.9933  0
C  C61  1  0.92165317  0.13597967  0.13782345  1  0.092982  0  0.00064  -0.135836  0  3.831655  0
C  C62  1  0.91533462  0.17989744  0.18098616  1  -0.177166  0  -0.008269  0.026649  0  4.260117  0
C  C63  1  0.90841359  0.22802911  0.22807125  1  -0.106541  0  0.001635  -0.001113  0  4.186898  0
C  C64  1  0.90167851  0.27248059  0.27127575  1  0.083476  0  0.00197  -0.000714  0  4.187169  0
C  C65  1  0.89523386  0.32057176  0.31839887  1  -0.345612  0  -0.007692  0.027557  0  4.259557  0
C  C66  1  0.89017143  0.36443605  0.36161562  1  0.240981  0  0.002616  -0.134594  0  3.829131  0
C  C67  1  0.38728057  0.63567191  0.63822618  1  0.237055  0  0.000187  -0.138315  0  3.831835  0
C  C68  1  0.39375508  0.67950406  0.68142898  1  -0.350713  0  -0.007858  0.028697  0  4.259907  0
C  C69  1  0.40202389  0.72757225  0.72851435  1  0.128144  0  0.001623  -0.001853  0  4.188996  0
C  C70  1  0.41087011  0.77200448  0.77164295  1  -0.103128  0  0.002202  0.000199  0  4.188671  0
C  C71  1  0.41945593  0.82019528  0.81862259  1  -0.378652  0  -0.008137  0.026074  0  4.260001  0
C  C72  1  0.42666305  0.86417758  0.86169112  1  0.26314  0  0.0014  -0.134773  0  3.830533  0
C  C73  1  0.24256284  0.87036904  0.10995220  1  -0.039722  0  -0.080317  -0.082801  0  3.983672  0
C  C74  1  0.23770228  0.83452099  0.14621805  1  -0.014703  0  -0.08852  -0.135634  0  3.986104  0
C  C75  1  0.40930577  0.82720979  0.17617039  1  -0.082359  0  0.000953  0.088977  0  3.988947  0
C  C76  1  0.58810146  0.85518072  0.16690391  1  -0.042857  0  -0.091283  -0.1432  0  3.986742  0
C  C77  1  0.59474746  0.89017857  0.12981261  1  5.5e-05  0  -0.079926  -0.081564  0  3.978294  0
C  C78  1  0.42102747  0.89868856  0.10154937  1  -0.047563  0  -0.019296  -0.054102  0  3.984235  0
C  C79  1  0.54847290  0.74316556  0.20918715  1  -0.057291  0  -0.092762  -0.12538  0  4.02398  0
C  C80  1  0.55336988  0.70637498  0.24466031  1  0.019367  0  -0.095291  -0.136144  0  4.008391  0
C  C81  1  0.41150645  0.71519037  0.28818132  1  -0.081214  0  -0.011221  0.083822  0  4.037695  0
C  C82  1  0.26965604  0.76245736  0.29502065  1  0.017491  0  -0.091367  -0.188796  0  3.9523  0
C  C83  1  0.26382087  0.80038667  0.26023745  1  0.019636  0  -0.006208  0.082324  0  3.925913  0
C  C84  1  0.40502711  0.78998330  0.21570453  1  -0.070061  0  -0.007787  0.010088  0  3.9543  0
C  C85  1  0.22244718  0.65760821  0.34331155  1  -0.058164  0  -0.08775  -0.115913  0  3.989146  0
C  C86  1  0.21347697  0.62116479  0.37902631  1  0.017304  0  -0.086328  -0.099623  0  3.986589  0
C  C87  1  0.39026336  0.60169413  0.39867705  1  -0.012807  0  -0.015518  -0.024961  0  3.992184  0
C  C88  1  0.57529568  0.61960121  0.38227711  1  -0.015205  0  -0.090906  -0.215742  0  3.987419  0
C  C89  1  0.57848913  0.65598940  0.34685346  1  0.381102  0  0.097082  0.237297  0  4.044452  0
C  C90  1  0.40575950  0.67616322  0.32580632  1  0.058297  0  -0.009028  -0.026621  0  4.005438  0
C  C91  1  0.42465295  0.93664356  0.06227887  1  1.564534  0  0.267063  0.643971  0  4.098231  0
C  C92  1  0.42663650  0.91496300  0.91299329  1  1.694578  0  0.276245  0.698956  0  4.185735  0
C  C93  1  0.92414789  0.06314099  0.93706829  1  1.568156  0  0.266645  0.642083  0  4.100132  0
C  C94  1  0.92358517  0.08525169  0.08649307  1  1.7062  0  0.276476  0.699745  0  4.183553  0
C  C95  1  0.12157130  0.85468148  0.27545800  1  0.013551  0  -0.161854  -0.147444  0  3.989645  0
C  C96  1  0.23145368  0.91532548  0.30339336  1  -0.060937  0  -0.242483  -0.346805  0  3.95755  0
C  C97  1  0.65141622  0.13797754  0.71871856  1  -0.01699  0  -0.161366  -0.146457  0  3.989455  0
C  C98  1  0.78195568  0.08074194  0.69278633  1  -0.072206  0  -0.242411  -0.347031  0  3.956051  0
O  O99  1  0.55389349  0.54865418  0.45386830  1  -1.260316  0  -0.23713  -0.596185  0  2.352999  0
O  O100  1  0.21500806  0.56660553  0.56597538  1  -1.229273  0  -0.223724  -0.574621  0  2.279056  0
O  O101  1  0.05644238  0.45243524  0.54772060  1  -1.262495  0  -0.239616  -0.603893  0  2.355077  0
O  O102  1  0.21436397  0.54855205  0.45222073  1  -1.252387  0  -0.236489  -0.593788  0  2.340395  0
O  O103  1  0.05653867  0.43470952  0.43386380  1  -1.227994  0  -0.221974  -0.571108  0  2.282737  0
O  O104  1  0.55627079  0.56433318  0.56698022  1  -1.228674  0  -0.223284  -0.574454  0  2.281543  0
O  O105  1  0.38510934  0.46357212  0.49434003  1  -1.453602  0  -0.447394  -1.000151  0  2.210333  0
O  O106  1  0.71545775  0.43479161  0.43277944  1  -1.228487  0  -0.222422  -0.570318  0  2.280679  0
O  O107  1  0.71685014  0.44911708  0.54564354  1  -1.252829  0  -0.240848  -0.604577  0  2.341625  0
O  O108  1  0.88436716  0.53660330  0.50605344  1  -1.414321  0  -0.447385  -0.998099  0  2.201516  0
O  O109  1  0.25525888  0.93507451  0.93260166  1  -1.224714  0  -0.221607  -0.569315  0  2.284948  0
O  O110  1  0.59546138  0.95197596  0.04794959  1  -1.254929  0  -0.239052  -0.601484  0  2.34396  0
O  O111  1  0.75302658  0.06557162  0.06646793  1  -1.225602  0  -0.223044  -0.57241  0  2.284267  0
O  O112  1  0.59647519  0.93417856  0.93388982  1  -1.230716  0  -0.22288  -0.571927  0  2.279156  0
O  O113  1  0.75521228  0.04895491  0.95352533  1  -1.258991  0  -0.238059  -0.600034  0  2.353978  0
O  O114  1  0.25591152  0.95022915  0.04522954  1  -1.261672  0  -0.239441  -0.603108  0  2.35232  0
O  O115  1  0.42440819  0.03653631  0.00556708  1  -1.40913  0  -0.446979  -0.998372  0  2.207369  0
O  O116  1  0.09478117  0.04845450  0.95202129  1  -1.251499  0  -0.237718  -0.597747  0  2.343068  0
O  O117  1  0.09441823  0.06566448  0.06596252  1  -1.233795  0  -0.223293  -0.573055  0  2.278343  0
O  O118  1  0.92525039  0.96369369  0.99412040  1  -1.403077  0  -0.447179  -1.000214  0  2.210307  0
F  F119  1  0.76153283  0.67455928  0.33314979  1  -0.648599  0  -0.094278  -0.149294  0  1.392951  0
