# generated using pymatgen
data_ZnH23C30(NO)4
_symmetry_space_group_name_H-M   'P 1'
_cell_length_a   8.51970958
_cell_length_b   16.95335834
_cell_length_c   18.21460256
_cell_angle_alpha   89.99932569
_cell_angle_beta   89.99937173
_cell_angle_gamma   93.23895747
_symmetry_Int_Tables_number   1
_chemical_formula_structural   ZnH23C30(NO)4
_chemical_formula_sum   'Zn4 H92 C120 N16 O16'
_cell_volume   2626.67249159
_cell_formula_units_Z   4
loop_
 _symmetry_equiv_pos_site_id
 _symmetry_equiv_pos_as_xyz
  1  'x, y, z'
loop_
 _atom_site_type_symbol
 _atom_site_label
 _atom_site_symmetry_multiplicity
 _atom_site_fract_x
 _atom_site_fract_y
 _atom_site_fract_z
 _atom_site_occupancy
 _atom_site_pbe_bader_charge
 _atom_site_pbe_bader_spin_density
 _atom_site_pbe_cm5_charge
 _atom_site_pbe_ddec_charge
 _atom_site_pbe_ddec_spin_density
 _atom_site_pbe_ddec_sum_bond_order
 _atom_site_pbe_magmom
Zn  Zn0  1  0.86056162  0.92140836  0.18797297  1  1.24553  0  0.693021  0.761471  0  2.375062  0
Zn  Zn1  1  0.63943776  0.57858684  0.68797524  1  1.245544  0  0.69298  0.761378  0  2.375058  0
Zn  Zn2  1  0.13942885  0.07859692  0.81202683  1  1.24546  0  0.693047  0.761544  0  2.374894  0
Zn  Zn3  1  0.36056603  0.42141079  0.31202896  1  1.245458  0  0.693025  0.761489  0  2.375151  0
H  H4  1  0.29188212  0.81753688  0.08378220  1  0.084301  0  0.094862  0.099527  0  1.071943  0
H  H5  1  0.20812108  0.68246146  0.58379128  1  0.084365  0  0.094842  0.099513  0  1.071808  0
H  H6  1  0.70810176  0.18244948  0.91621157  1  0.084116  0  0.094859  0.099485  0  1.071875  0
H  H7  1  0.79189768  0.31753327  0.41622226  1  0.084351  0  0.09484  0.099476  0  1.071944  0
H  H8  1  0.15959041  0.58318308  0.16566476  1  0.089378  0  0.101527  0.112994  0  1.038867  0
H  H9  1  0.34041000  0.91681823  0.66565372  1  0.089535  0  0.101535  0.113074  0  1.038839  0
H  H10  1  0.84043456  0.41680339  0.83434933  1  0.089897  0  0.101517  0.113099  0  1.038813  0
H  H11  1  0.65957990  0.08319295  0.33432468  1  0.089628  0  0.101503  0.11298  0  1.038875  0
H  H12  1  0.60415137  0.69702920  0.22513673  1  0.098052  0  0.099618  0.110412  0  1.031771  0
H  H13  1  0.89583966  0.80298495  0.72513482  1  0.09865  0  0.099622  0.110387  0  1.031832  0
H  H14  1  0.39584147  0.30298790  0.77487405  1  0.098842  0  0.099645  0.110408  0  1.031747  0
H  H15  1  0.10415234  0.19702388  0.27485840  1  0.098115  0  0.09959  0.110344  0  1.031777  0
H  H16  1  0.83424617  0.66798106  0.06111899  1  0.078803  0  0.109889  0.093635  0  0.985621  0
H  H17  1  0.66575391  0.83201474  0.56110643  1  0.079041  0  0.109865  0.09362  0  0.985652  0
H  H18  1  0.16574672  0.33198997  0.93890168  1  0.079957  0  0.109992  0.0938  0  0.985678  0
H  H19  1  0.33423187  0.16799053  0.43887087  1  0.079057  0  0.109934  0.093647  0  0.985689  0
H  H20  1  0.91004962  0.62601893  0.14098515  1  0.033201  0  0.10536  0.081901  0  0.971309  0
H  H21  1  0.58994397  0.87398931  0.64096596  1  0.033642  0  0.105372  0.082008  0  0.97109  0
H  H22  1  0.08995515  0.37396513  0.85904266  1  0.033855  0  0.105436  0.082155  0  0.971137  0
H  H23  1  0.41004113  0.12603248  0.35900530  1  0.032981  0  0.10538  0.081908  0  0.97131  0
H  H24  1  0.15730650  0.62457701  0.97397755  1  0.099004  0  0.094724  0.093601  0  1.03452  0
H  H25  1  0.34268820  0.87540461  0.47395608  1  0.098821  0  0.094694  0.093663  0  1.034487  0
H  H26  1  0.84267154  0.37539811  0.02604367  1  0.098493  0  0.094697  0.093781  0  1.034754  0
H  H27  1  0.65730057  0.12459534  0.52600969  1  0.099353  0  0.094725  0.093611  0  1.034737  0
H  H28  1  0.79769816  0.49627234  0.09810403  1  0.068213  0  0.098147  0.09833  0  1.011471  0
H  H29  1  0.70227234  0.00372187  0.59807655  1  0.06856  0  0.098161  0.09825  0  1.01129  0
H  H30  1  0.20226491  0.50369387  0.90192433  1  0.067851  0  0.098133  0.098119  0  1.011248  0
H  H31  1  0.29771408  0.99627808  0.40189197  1  0.068239  0  0.098145  0.098249  0  1.011506  0
H  H32  1  0.87427275  0.75480462  0.22734002  1  0.143912  0  0.120292  0.096536  0  1.015365  0
H  H33  1  0.62573676  0.74519537  0.72733240  1  0.143694  0  0.120293  0.096617  0  1.015396  0
H  H34  1  0.12570370  0.24521302  0.77267846  1  0.144298  0  0.12035  0.096517  0  1.015576  0
H  H35  1  0.37424584  0.25480161  0.27266082  1  0.143667  0  0.12032  0.096552  0  1.015544  0
H  H36  1  0.04225618  0.66655582  0.29820883  1  0.084985  0  0.116705  0.12533  0  0.98136  0
H  H37  1  0.45776289  0.83345196  0.79820244  1  0.085067  0  0.116746  0.125377  0  0.981235  0
H  H38  1  0.95773478  0.33346599  0.70180470  1  0.085172  0  0.116702  0.125332  0  0.981331  0
H  H39  1  0.54223469  0.16655392  0.20178859  1  0.084829  0  0.116732  0.125301  0  0.981238  0
H  H40  1  0.37345765  0.86727053  0.32653367  1  0.109099  0  0.110886  0.117985  0  1.001329  0
H  H41  1  0.12652409  0.63274620  0.82652117  1  0.10942  0  0.110925  0.117976  0  1.001131  0
H  H42  1  0.62652661  0.13274300  0.67348426  1  0.109366  0  0.110861  0.117899  0  1.001191  0
H  H43  1  0.87347864  0.36725262  0.17348248  1  0.109333  0  0.110906  0.117896  0  1.001322  0
H  H44  1  0.18729515  0.94778869  0.25536611  1  0.13726  0  0.118029  0.096611  0  1.018121  0
H  H45  1  0.31268566  0.55222549  0.75535787  1  0.137532  0  0.117985  0.096545  0  1.017945  0
H  H46  1  0.81270139  0.05223019  0.74464907  1  0.137618  0  0.117982  0.096555  0  1.017972  0
H  H47  1  0.68731114  0.44777272  0.24464633  1  0.137569  0  0.117972  0.096525  0  1.01796  0
H  H48  1  0.43171293  0.74596323  0.38402922  1  0.093646  0  0.106032  0.099881  0  1.026977  0
H  H49  1  0.06829322  0.75405276  0.88402511  1  0.093552  0  0.106042  0.099803  0  1.026863  0
H  H50  1  0.56828513  0.25404738  0.61597827  1  0.093755  0  0.106052  0.099773  0  1.02691  0
H  H51  1  0.93170518  0.24594959  0.11596921  1  0.093488  0  0.106062  0.099823  0  1.026899  0
H  H52  1  0.15744040  0.61959908  0.39576951  1  0.08913  0  0.114641  0.118139  0  0.979816  0
H  H53  1  0.34257084  0.88041204  0.89575060  1  0.089267  0  0.114555  0.118173  0  0.979803  0
H  H54  1  0.84254521  0.38041622  0.60423743  1  0.089613  0  0.11462  0.118177  0  0.979805  0
H  H55  1  0.65741418  0.11959736  0.10423438  1  0.089253  0  0.114626  0.118241  0  0.979735  0
H  H56  1  0.17570375  0.54642800  0.51415343  1  0.103051  0  0.119552  0.140358  0  0.972645  0
H  H57  1  0.32430829  0.95357193  0.01414608  1  0.102867  0  0.119577  0.140345  0  0.972599  0
H  H58  1  0.82428766  0.45357491  0.48584473  1  0.103136  0  0.119514  0.140245  0  0.972681  0
H  H59  1  0.67567266  0.04642033  0.98585044  1  0.102576  0  0.119528  0.14031  0  0.972383  0
H  H60  1  0.33751679  0.51010820  0.62251516  1  0.147906  0  0.124994  0.105374  0  0.991035  0
H  H61  1  0.16249566  0.98988608  0.12251376  1  0.148024  0  0.125039  0.105501  0  0.991067  0
H  H62  1  0.66246264  0.48989232  0.37748685  1  0.148134  0  0.124972  0.105329  0  0.991155  0
H  H63  1  0.83751723  0.01010863  0.87749209  1  0.148162  0  0.12498  0.105367  0  0.991224  0
H  H64  1  0.73420297  0.63085330  0.54000609  1  0.138416  0  0.116849  0.094075  0  1.044176  0
H  H65  1  0.76580726  0.86914519  0.04000759  1  0.138583  0  0.116856  0.094177  0  1.044201  0
H  H66  1  0.26578109  0.36914664  0.46000031  1  0.138427  0  0.11694  0.094207  0  1.04412  0
H  H67  1  0.23419841  0.13085954  0.95999057  1  0.138564  0  0.116869  0.094177  0  1.044121  0
H  H68  1  0.59692813  0.67032776  0.42773643  1  0.168703  0  0.106231  0.114834  0  1.074842  0
H  H69  1  0.90309326  0.82968541  0.92773145  1  0.16866  0  0.106248  0.114835  0  1.074761  0
H  H70  1  0.40306622  0.32968107  0.57227272  1  0.168754  0  0.106173  0.114781  0  1.074803  0
H  H71  1  0.09689258  0.17032045  0.07225848  1  0.168667  0  0.106291  0.114949  0  1.074771  0
H  H72  1  0.04409875  0.75502210  0.05535213  1  0.446333  0  0.297597  0.240753  0  1.005201  0
H  H73  1  0.45589658  0.74497307  0.55535763  1  0.446117  0  0.297634  0.240803  0  1.005354  0
H  H74  1  0.95587912  0.24495125  0.94465153  1  0.446145  0  0.297565  0.240774  0  1.005657  0
H  H75  1  0.54410374  0.25502515  0.44464272  1  0.446199  0  0.297576  0.240707  0  1.00527  0
H  H76  1  0.94096679  0.71448716  0.48729906  1  0.084356  0  0.10668  0.07787  0  1.012556  0
H  H77  1  0.55903824  0.78550563  0.98728588  1  0.084862  0  0.106673  0.077823  0  1.012576  0
H  H78  1  0.05901434  0.28550686  0.51270844  1  0.084675  0  0.10663  0.077745  0  1.012539  0
H  H79  1  0.44099777  0.21448561  0.01268812  1  0.084424  0  0.106715  0.077948  0  1.012442  0
H  H80  1  0.04069574  0.84587026  0.52975785  1  0.088705  0  0.099863  0.105738  0  1.05417  0
H  H81  1  0.45931530  0.65411173  0.02973641  1  0.088844  0  0.099793  0.105635  0  1.054189  0
H  H82  1  0.95930815  0.15411675  0.47024251  1  0.088547  0  0.099825  0.105732  0  1.054048  0
H  H83  1  0.54068748  0.34587586  0.97023100  1  0.088231  0  0.09987  0.105732  0  1.054176  0
H  H84  1  0.65957403  0.81080269  0.32870016  1  0.082972  0  0.107565  0.078155  0  1.015967  0
H  H85  1  0.84049922  0.68918958  0.82870574  1  0.082748  0  0.107704  0.078284  0  1.016109  0
H  H86  1  0.34042418  0.18919789  0.67131447  1  0.083119  0  0.107587  0.078239  0  1.015735  0
H  H87  1  0.15959717  0.31078353  0.17129132  1  0.083211  0  0.107655  0.078267  0  1.016008  0
H  H88  1  0.90381443  0.03604055  0.43789504  1  0.093196  0  0.099823  0.09853  0  1.034077  0
H  H89  1  0.59621987  0.46394377  0.93788203  1  0.093227  0  0.099782  0.098411  0  1.034312  0
H  H90  1  0.09620169  0.96395121  0.56211684  1  0.093406  0  0.099825  0.09848  0  1.034233  0
H  H91  1  0.40379617  0.53603560  0.06209472  1  0.093442  0  0.099809  0.0984  0  1.034028  0
H  H92  1  0.74514053  0.94762263  0.36519249  1  0.093057  0  0.104884  0.119378  0  1.0193  0
H  H93  1  0.75493704  0.55237445  0.86519937  1  0.092524  0  0.104992  0.119411  0  1.019534  0
H  H94  1  0.25486427  0.05238505  0.63481556  1  0.092916  0  0.104885  0.119329  0  1.019496  0
H  H95  1  0.24509907  0.44760615  0.13479440  1  0.092832  0  0.104912  0.119463  0  1.019233  0
C  C96  1  0.57062877  0.83647619  0.14669684  1  1.562555  0  0.197015  0.565766  0  4.226988  0
C  C97  1  0.92936467  0.66353197  0.64669838  1  1.562456  0  0.197224  0.565922  0  4.227195  0
C  C98  1  0.42934679  0.16353258  0.85330407  1  1.562491  0  0.197106  0.565699  0  4.227389  0
C  C99  1  0.07064875  0.33646806  0.35330362  1  1.562601  0  0.197211  0.565883  0  4.227042  0
C  C100  1  0.45839445  0.76472388  0.15319339  1  -0.030071  0  -0.026162  -0.023856  0  4.020274  0
C  C101  1  0.04159729  0.73528172  0.65319289  1  -0.029935  0  -0.026233  -0.023981  0  4.020537  0
C  C102  1  0.54158657  0.23528078  0.84681027  1  -0.02972  0  -0.026148  -0.023821  0  4.020551  0
C  C103  1  0.95841279  0.26472007  0.34680856  1  -0.029711  0  -0.026182  -0.02394  0  4.020456  0
C  C104  1  0.31617754  0.76523827  0.11556515  1  -0.032247  0  -0.099657  -0.205965  0  3.940361  0
C  C105  1  0.18382158  0.73476197  0.61557491  1  -0.031906  0  -0.099688  -0.206005  0  3.940587  0
C  C106  1  0.68381256  0.23475165  0.88442807  1  -0.0319  0  -0.099773  -0.206101  0  3.940481  0
C  C107  1  0.81618615  0.26523981  0.38442929  1  -0.031948  0  -0.099691  -0.205965  0  3.94059  0
C  C108  1  0.20486872  0.70061917  0.11883787  1  0.401533  0  0.09512  0.23225  0  4.112402  0
C  C109  1  0.29512891  0.79937866  0.61884364  1  0.401112  0  0.095227  0.232605  0  4.112053  0
C  C110  1  0.79513147  0.29936605  0.88116359  1  0.401629  0  0.095186  0.232511  0  4.11225  0
C  C111  1  0.70486286  0.20062780  0.38114903  1  0.401682  0  0.095074  0.23237  0  4.112357  0
C  C112  1  0.24193174  0.63433941  0.16081762  1  -0.069551  0  -0.104304  -0.228261  0  3.954418  0
C  C113  1  0.25806890  0.86566316  0.66081632  1  -0.069652  0  -0.104408  -0.228549  0  3.954616  0
C  C114  1  0.75808296  0.36565000  0.83918603  1  -0.070334  0  -0.104163  -0.228168  0  3.954432  0
C  C115  1  0.74192997  0.13434391  0.33917526  1  -0.07007  0  -0.104242  -0.22821  0  3.954276  0
C  C116  1  0.38500146  0.63381989  0.19878789  1  -0.03844  0  -0.026211  -0.022591  0  4.023495  0
C  C117  1  0.11499091  0.86619098  0.69878128  1  -0.038831  0  -0.02609  -0.022593  0  4.023455  0
C  C118  1  0.61500645  0.36618367  0.80121961  1  -0.038869  0  -0.026313  -0.022925  0  4.023788  0
C  C119  1  0.88500819  0.13381845  0.30121140  1  -0.038556  0  -0.026287  -0.022831  0  4.023797  0
C  C120  1  0.49397367  0.69862926  0.19515447  1  -0.04258  0  -0.101027  -0.158266  0  3.976595  0
C  C121  1  0.00601439  0.80138460  0.69514690  1  -0.04356  0  -0.101039  -0.158208  0  3.976283  0
C  C122  1  0.50602086  0.30138134  0.80485632  1  -0.043787  0  -0.101069  -0.158178  0  3.976623  0
C  C123  1  0.99398559  0.19862189  0.30485017  1  -0.043144  0  -0.100964  -0.158088  0  3.97644  0
C  C124  1  0.41994247  0.56394933  0.24568405  1  1.561194  0  0.194659  0.560504  0  4.221318  0
C  C125  1  0.08005830  0.93606268  0.74567525  1  1.561769  0  0.194616  0.560553  0  4.2211  0
C  C126  1  0.58008105  0.43605781  0.75432839  1  1.561202  0  0.194687  0.560631  0  4.220705  0
C  C127  1  0.91994351  0.06395031  0.25431138  1  1.561218  0  0.194744  0.560669  0  4.221259  0
C  C128  1  0.94027668  0.64288248  0.08388629  1  0.358763  0  -0.051469  -0.050852  0  3.966403  0
C  C129  1  0.55971985  0.85711830  0.58387018  1  0.35819  0  -0.051359  -0.050768  0  3.966325  0
C  C130  1  0.05971840  0.35709859  0.91613768  1  0.356964  0  -0.051602  -0.051257  0  3.966935  0
C  C131  1  0.44026271  0.14288990  0.41610548  1  0.359177  0  -0.051506  -0.050742  0  3.966286  0
C  C132  1  0.97479280  0.56883686  0.04111046  1  -0.04359  0  -0.017832  0.074851  0  3.974711  0
C  C133  1  0.52520243  0.93115271  0.54108388  1  -0.044494  0  -0.018071  0.074413  0  3.974875  0
C  C134  1  0.02517926  0.43113706  0.95891240  1  -0.044396  0  -0.018049  0.074475  0  3.975036  0
C  C135  1  0.47478763  0.06884843  0.45888354  1  -0.044398  0  -0.01777  0.074783  0  3.974632  0
C  C136  1  0.08744425  0.56996394  0.98522503  1  -0.056545  0  -0.09844  -0.136267  0  4.011308  0
C  C137  1  0.41256661  0.93001758  0.48519331  1  -0.054961  0  -0.098293  -0.136034  0  4.010999  0
C  C138  1  0.91253715  0.43000942  0.01479894  1  -0.054699  0  -0.098184  -0.136167  0  4.011528  0
C  C139  1  0.58743172  0.06998418  0.51477246  1  -0.056576  0  -0.098413  -0.136193  0  4.01194  0
C  C140  1  0.88804494  0.49795275  0.05549237  1  -0.093699  0  -0.096555  -0.136937  0  4.006619  0
C  C141  1  0.61192914  0.00204383  0.55546318  1  -0.094495  0  -0.096515  -0.1367  0  4.006637  0
C  C142  1  0.11192483  0.50202175  0.94453599  1  -0.093656  0  -0.096379  -0.136242  0  4.006224  0
C  C143  1  0.38805874  0.99795907  0.44450314  1  -0.093924  0  -0.096524  -0.136759  0  4.006276  0
C  C144  1  0.98639095  0.77665464  0.25036729  1  0.464241  0  0.046463  0.094243  0  3.944283  0
C  C145  1  0.51361641  0.72335271  0.75036268  1  0.464906  0  0.046317  0.094021  0  3.944394  0
C  C146  1  0.01359432  0.22336893  0.74964679  1  0.465365  0  0.046219  0.094193  0  3.944511  0
C  C147  1  0.48637676  0.27664431  0.24964098  1  0.464907  0  0.046266  0.094049  0  3.944552  0
C  C148  1  0.08056921  0.72825569  0.29006715  1  -0.012993  0  -0.072692  -0.154695  0  3.919169  0
C  C149  1  0.41943726  0.77175336  0.79005610  1  -0.013865  0  -0.072828  -0.154736  0  3.919205  0
C  C150  1  0.91942064  0.27176672  0.70994474  1  -0.01437  0  -0.072743  -0.154858  0  3.919333  0
C  C151  1  0.58056589  0.22824960  0.20994481  1  -0.013343  0  -0.072806  -0.15465  0  3.918971  0
C  C152  1  0.22128957  0.76024163  0.32083699  1  -0.038286  0  0.012666  0.149633  0  4.021882  0
C  C153  1  0.27871192  0.73977169  0.82082479  1  -0.03819  0  0.012814  0.149531  0  4.021667  0
C  C154  1  0.77870233  0.23977783  0.67917545  1  -0.03839  0  0.012807  0.1495  0  4.021797  0
C  C155  1  0.72128795  0.26023361  0.17917062  1  -0.038306  0  0.012814  0.149511  0  4.021346  0
C  C156  1  0.26355854  0.83997936  0.30554983  1  0.010623  0  -0.077349  -0.165324  0  3.919547  0
C  C157  1  0.23642361  0.66003648  0.80553264  1  0.010743  0  -0.077373  -0.165289  0  3.919338  0
C  C158  1  0.73642532  0.16004184  0.69446755  1  0.01054  0  -0.077263  -0.165019  0  3.919373  0
C  C159  1  0.76357138  0.33996704  0.19446333  1  0.010849  0  -0.077384  -0.165114  0  3.919336  0
C  C160  1  0.16242587  0.88496317  0.26583941  1  0.439137  0  0.044248  0.087535  0  3.945381  0
C  C161  1  0.33756607  0.61504735  0.76582820  1  0.438408  0  0.044285  0.087733  0  3.944998  0
C  C162  1  0.83756128  0.11505568  0.73417961  1  0.439073  0  0.044325  0.087574  0  3.945246  0
C  C163  1  0.66242610  0.38495143  0.23417161  1  0.438489  0  0.044336  0.087679  0  3.945051  0
C  C164  1  0.31804347  0.71666447  0.37024347  1  -0.096618  0  -0.071802  -0.105955  0  3.940275  0
C  C165  1  0.18196624  0.78334877  0.87023792  1  -0.096708  0  -0.071926  -0.105955  0  3.939967  0
C  C166  1  0.68195705  0.28334733  0.62975963  1  -0.096775  0  -0.071824  -0.105653  0  3.940076  0
C  C167  1  0.81802553  0.21665769  0.12975310  1  -0.096192  0  -0.071842  -0.105767  0  3.939948  0
C  C168  1  0.27348578  0.64854944  0.40515165  1  0.031452  0  -0.070552  -0.105745  0  3.916421  0
C  C169  1  0.22653123  0.85146275  0.90514516  1  0.031936  0  -0.070339  -0.105611  0  3.916134  0
C  C170  1  0.72651122  0.35146235  0.59485365  1  0.031303  0  -0.070503  -0.105787  0  3.916504  0
C  C171  1  0.77346078  0.14854608  0.09484696  1  0.031554  0  -0.070567  -0.10593  0  3.916508  0
C  C172  1  0.36853045  0.61583196  0.46270100  1  -0.038523  0  0.012744  0.151149  0  4.005885  0
C  C173  1  0.13148078  0.88418295  0.96269467  1  -0.039051  0  0.01267  0.151035  0  4.005853  0
C  C174  1  0.63146167  0.38417805  0.53730649  1  -0.038946  0  0.01274  0.151035  0  4.006128  0
C  C175  1  0.86850687  0.11581759  0.03730075  1  -0.03877  0  0.012652  0.150958  0  4.005855  0
C  C176  1  0.29938528  0.56635607  0.51715555  1  0.031788  0  -0.073198  -0.164454  0  3.90219  0
C  C177  1  0.20062481  0.93364853  0.01715233  1  0.031594  0  -0.073161  -0.164255  0  3.902148  0
C  C178  1  0.70060290  0.43364979  0.48285030  1  0.031595  0  -0.073226  -0.164292  0  3.902161  0
C  C179  1  0.79935204  0.06634961  0.98284748  1  0.031757  0  -0.073076  -0.164115  0  3.90155  0
C  C180  1  0.38722899  0.54672914  0.57811036  1  0.416211  0  0.051825  0.096498  0  3.931166  0
C  C181  1  0.11278562  0.95326459  0.07811179  1  0.416462  0  0.051695  0.096229  0  3.931526  0
C  C182  1  0.61276218  0.45327142  0.42189439  1  0.416401  0  0.051846  0.096552  0  3.931147  0
C  C183  1  0.88721248  0.04673480  0.92189187  1  0.415947  0  0.051805  0.096399  0  3.931539  0
C  C184  1  0.60945547  0.61526246  0.53206561  1  0.401927  0  0.038119  0.077064  0  3.956277  0
C  C185  1  0.89054987  0.88474380  0.03206301  1  0.402417  0  0.038105  0.076973  0  3.956266  0
C  C186  1  0.39053324  0.38473691  0.46793805  1  0.401811  0  0.03797  0.076871  0  3.956339  0
C  C187  1  0.10944970  0.11525855  0.96793460  1  0.402418  0  0.038109  0.077024  0  3.95625  0
C  C188  1  0.53017679  0.63695441  0.46970584  1  -0.066757  0  -0.086284  -0.182875  0  3.929119  0
C  C189  1  0.96983451  0.86306168  0.96969963  1  -0.067202  0  -0.086298  -0.182843  0  3.9288  0
C  C190  1  0.46981826  0.36304970  0.53029726  1  -0.066983  0  -0.086189  -0.182678  0  3.928972  0
C  C191  1  0.03015308  0.13693827  0.03029359  1  -0.06694  0  -0.086272  -0.182858  0  3.928989  0
C  C192  1  0.89871547  0.76752578  0.46143064  1  0.481603  0  0.030592  0.072915  0  4.018458  0
C  C193  1  0.60131949  0.73246688  0.96142273  1  0.482457  0  0.030546  0.072775  0  4.018472  0
C  C194  1  0.10127504  0.23246827  0.53857960  1  0.481538  0  0.030644  0.073146  0  4.018052  0
C  C195  1  0.39873254  0.26752028  0.03856280  1  0.48106  0  0.030645  0.072968  0  4.018486  0
C  C196  1  0.95513931  0.84170721  0.48526044  1  -0.083665  0  -0.08917  -0.180027  0  3.928953  0
C  C197  1  0.54490181  0.65828218  0.98524975  1  -0.084706  0  -0.089146  -0.179966  0  3.928609  0
C  C198  1  0.04486024  0.15828333  0.51474815  1  -0.083734  0  -0.08921  -0.180265  0  3.928603  0
C  C199  1  0.45514065  0.34170317  0.01473304  1  -0.082957  0  -0.089194  -0.180047  0  3.929076  0
C  C200  1  0.90056430  0.90961598  0.45126059  1  -0.018169  0  0.002347  0.14263  0  4.021321  0
C  C201  1  0.59948793  0.59037096  0.95125306  1  -0.016833  0  0.002469  0.142866  0  4.021059  0
C  C202  1  0.09945557  0.09037816  0.54874856  1  -0.01763  0  0.002574  0.143044  0  4.02111  0
C  C203  1  0.40054725  0.40961200  0.04872809  1  -0.018336  0  0.00244  0.142672  0  4.021798  0
C  C204  1  0.74131711  0.82081149  0.37448624  1  0.483648  0  0.032195  0.075602  0  4.017439  0
C  C205  1  0.75874133  0.67918423  0.87448796  1  0.484438  0  0.032167  0.075497  0  4.018007  0
C  C206  1  0.25868862  0.17919383  0.62552290  1  0.483072  0  0.032298  0.075782  0  4.017822  0
C  C207  1  0.24132925  0.32080062  0.12550197  1  0.484721  0  0.032136  0.075584  0  4.01809  0
C  C208  1  0.95136864  0.98989165  0.47185121  1  -0.007408  0  -0.082406  -0.115652  0  3.955121  0
C  C209  1  0.54866553  0.51009554  0.97183709  1  -0.100674  0  -0.082198  -0.115213  0  3.955257  0
C  C210  1  0.04866162  0.01010075  0.52815903  1  -0.100817  0  -0.082212  -0.115132  0  3.955043  0
C  C211  1  0.45134722  0.48988618  0.02813637  1  -0.008184  0  -0.08241  -0.115428  0  3.955284  0
C  C212  1  0.79032327  0.89749442  0.39435439  1  -0.058524  0  -0.085506  -0.172682  0  3.920126  0
C  C213  1  0.70974277  0.60249986  0.89435221  1  -0.059701  0  -0.085736  -0.172869  0  3.920473  0
C  C214  1  0.20969896  0.10251154  0.60565310  1  -0.058784  0  -0.085687  -0.172955  0  3.920487  0
C  C215  1  0.29029963  0.39748491  0.10563003  1  -0.058554  0  -0.085574  -0.172813  0  3.920491  0
N  N216  1  0.06395340  0.70455058  0.08272433  1  -1.236958  0  -0.444732  -0.33197  0  3.621522  0
N  N217  1  0.43604947  0.79544423  0.58272668  1  -1.23642  0  -0.444846  -0.332249  0  3.621705  0
N  N218  1  0.93604120  0.29542577  0.91728042  1  -1.236981  0  -0.444773  -0.332225  0  3.622147  0
N  N219  1  0.56393743  0.20456044  0.41725886  1  -1.236731  0  -0.444662  -0.331987  0  3.621617  0
N  N220  1  0.02411482  0.85416326  0.23959285  1  -1.2641  0  -0.332586  -0.2416  0  3.565711  0
N  N221  1  0.47589491  0.64584296  0.73959269  1  -1.263793  0  -0.332513  -0.241577  0  3.565512  0
N  N222  1  0.97588190  0.14585739  0.76041574  1  -1.264668  0  -0.332608  -0.24163  0  3.565669  0
N  N223  1  0.52410066  0.35415466  0.26040986  1  -1.264011  0  -0.332486  -0.241596  0  3.565788  0
N  N224  1  0.53866442  0.57271363  0.58682208  1  -1.25857  0  -0.339253  -0.250735  0  3.610311  0
N  N225  1  0.96135004  0.92727949  0.08682362  1  -1.258691  0  -0.339183  -0.250747  0  3.610527  0
N  N226  1  0.46133202  0.42728103  0.41317883  1  -1.258528  0  -0.339256  -0.250855  0  3.610546  0
N  N227  1  0.03864495  0.07272403  0.91317619  1  -1.25873  0  -0.339282  -0.2509  0  3.610683  0
N  N228  1  0.79302515  0.75598776  0.40694227  1  -1.192479  0  -0.33043  -0.280457  0  3.36192  0
N  N229  1  0.70702674  0.74400866  0.90693809  1  -1.192854  0  -0.330451  -0.280297  0  3.362032  0
N  N230  1  0.20696744  0.24401516  0.59307017  1  -1.192061  0  -0.330531  -0.280706  0  3.362435  0
N  N231  1  0.29304144  0.25597558  0.09305129  1  -1.192639  0  -0.330546  -0.280623  0  3.36195  0
O  O232  1  0.69161124  0.83651305  0.19027475  1  -1.18298  0  -0.336811  -0.565423  0  2.369496  0
O  O233  1  0.80838188  0.66349037  0.69027637  1  -1.183104  0  -0.336899  -0.56549  0  2.369486  0
O  O234  1  0.30836399  0.16350399  0.80972945  1  -1.183155  0  -0.336864  -0.565445  0  2.369514  0
O  O235  1  0.19161868  0.33651021  0.30971850  1  -1.183157  0  -0.336954  -0.565513  0  2.369441  0
O  O236  1  0.54574196  0.88959171  0.10115075  1  -1.185362  0  -0.33966  -0.566937  0  2.099341  0
O  O237  1  0.95425520  0.61041946  0.60115217  1  -1.18497  0  -0.339695  -0.566946  0  2.099555  0
O  O238  1  0.45423759  0.11040999  0.89884192  1  -1.185172  0  -0.339663  -0.566859  0  2.099642  0
O  O239  1  0.04577330  0.38957884  0.39885368  1  -1.185292  0  -0.339653  -0.566917  0  2.099505  0
O  O240  1  0.55374186  0.55723501  0.27262696  1  -1.183379  0  -0.330876  -0.560603  0  2.116175  0
O  O241  1  0.94626243  0.94278205  0.77261785  1  -1.183727  0  -0.330821  -0.560546  0  2.11614  0
O  O242  1  0.44628584  0.44277864  0.72738768  1  -1.183111  0  -0.330739  -0.560478  0  2.115964  0
O  O243  1  0.05374009  0.05723803  0.22736440  1  -1.183477  0  -0.330895  -0.56061  0  2.116309  0
O  O244  1  0.30151086  0.51267318  0.25558162  1  -1.167941  0  -0.340954  -0.554287  0  2.319104  0
O  O245  1  0.19849565  0.98733989  0.75557004  1  -1.167737  0  -0.340984  -0.554352  0  2.318816  0
O  O246  1  0.69852522  0.48733046  0.74443191  1  -1.167602  0  -0.34106  -0.55439  0  2.31865  0
O  O247  1  0.80150441  0.01267900  0.24441056  1  -1.167958  0  -0.340992  -0.554376  0  2.318934  0
