# generated using pymatgen
data_SnH12C5O2
_symmetry_space_group_name_H-M   'P 1'
_cell_length_a   7.63742088
_cell_length_b   9.25208776
_cell_length_c   10.77034456
_cell_angle_alpha   89.99924488
_cell_angle_beta   89.99981794
_cell_angle_gamma   90.00085098
_symmetry_Int_Tables_number   1
_chemical_formula_structural   SnH12C5O2
_chemical_formula_sum   'Sn4 H48 C20 O8'
_cell_volume   761.05503755
_cell_formula_units_Z   4
loop_
 _symmetry_equiv_pos_site_id
 _symmetry_equiv_pos_as_xyz
  1  'x, y, z'
loop_
 _atom_site_type_symbol
 _atom_site_label
 _atom_site_symmetry_multiplicity
 _atom_site_fract_x
 _atom_site_fract_y
 _atom_site_fract_z
 _atom_site_occupancy
 _atom_site_hle17_bader_spin_density
 _atom_site_hle17_ddec_charge
 _atom_site_hle17_ddec_spin_density
 _atom_site_hle17_ddec_sum_bond_order
 _atom_site_hle17_magmom
 _atom_site_hse06_10hf_bader_spin_density
 _atom_site_hse06_10hf_ddec_charge
 _atom_site_hse06_10hf_ddec_spin_density
 _atom_site_hse06_10hf_ddec_sum_bond_order
 _atom_site_hse06_10hf_magmom
 _atom_site_hse06_bader_spin_density
 _atom_site_hse06_ddec_charge
 _atom_site_hse06_ddec_spin_density
 _atom_site_hse06_ddec_sum_bond_order
 _atom_site_hse06_magmom
 _atom_site_pbe_bader_spin_density
 _atom_site_pbe_cm5_charge
 _atom_site_pbe_ddec_charge
 _atom_site_pbe_ddec_spin_density
 _atom_site_pbe_ddec_sum_bond_order
 _atom_site_pbe_magmom
Sn  Sn0  1  0.25002186  0.17878114  0.91016467  1  0  1.354763  0  2.890729  0  0  1.222288  0  3.383297  0  0  1.261038  0  3.367391  0  0  0.510924  1.196313  0  3.393153  0
Sn  Sn1  1  0.75000336  0.67876162  0.58985511  1  0  1.354791  0  2.891151  0  0  1.222366  0  3.383452  0  0  1.26106  0  3.367651  0  0  0.510971  1.196407  0  3.3933  0
Sn  Sn2  1  0.24995114  0.32123400  0.41017431  1  0  1.354696  0  2.890655  0  0  1.22223  0  3.383087  0  0  1.260884  0  3.367363  0  0  0.510849  1.19626  0  3.392934  0
Sn  Sn3  1  0.75003215  0.82124907  0.08982390  1  0  1.354698  0  2.890765  0  0  1.222169  0  3.383244  0  0  1.260843  0  3.36749  0  0  0.510921  1.196199  0  3.393102  0
H  H4  1  0.25002870  0.51165654  0.87612771  1  0  0.130953  0  0.958748  0  0  0.152696  0  1.01533  0  0  0.154213  0  1.016064  0  0  0.09943  0.151483  0  1.015138  0
H  H5  1  0.75000023  0.01166219  0.62385306  1  0  0.130891  0  0.959014  0  0  0.152625  0  1.015598  0  0  0.154143  0  1.016333  0  0  0.099426  0.151411  0  1.015402  0
H  H6  1  0.25000009  0.98835829  0.37613272  1  0  0.131012  0  0.958884  0  0  0.152793  0  1.015413  0  0  0.154314  0  1.016142  0  0  0.099486  0.151582  0  1.015214  0
H  H7  1  0.75000436  0.48835205  0.12387571  1  0  0.130932  0  0.958775  0  0  0.152631  0  1.015415  0  0  0.154151  0  1.016147  0  0  0.099451  0.151422  0  1.015213  0
H  H8  1  0.13481304  0.62270834  0.76767848  1  0  0.144771  0  0.936626  0  0  0.16848  0  0.990389  0  0  0.170651  0  0.990369  0  0  0.107199  0.166834  0  0.990568  0
H  H9  1  0.86520861  0.12271378  0.73230478  1  0  0.144792  0  0.936418  0  0  0.168433  0  0.990284  0  0  0.170601  0  0.990267  0  0  0.107236  0.166787  0  0.990459  0
H  H10  1  0.36520065  0.87731036  0.26767431  1  0  0.144754  0  0.936615  0  0  0.168483  0  0.990364  0  0  0.17065  0  0.990354  0  0  0.107228  0.166836  0  0.99054  0
H  H11  1  0.63481240  0.37730200  0.23233814  1  0  0.144757  0  0.936671  0  0  0.168411  0  0.9905  0  0  0.170578  0  0.990484  0  0  0.107166  0.166762  0  0.990683  0
H  H12  1  0.86520562  0.37729052  0.23232866  1  0  0.144699  0  0.936542  0  0  0.168405  0  0.990328  0  0  0.170572  0  0.990312  0  0  0.107186  0.166762  0  0.990502  0
H  H13  1  0.13479957  0.87730238  0.26768100  1  0  0.144759  0  0.936575  0  0  0.168471  0  0.990348  0  0  0.170639  0  0.990333  0  0  0.107239  0.166829  0  0.990519  0
H  H14  1  0.63479575  0.12270904  0.73230312  1  0  0.144759  0  0.936537  0  0  0.168379  0  0.990416  0  0  0.170545  0  0.990403  0  0  0.107205  0.166732  0  0.990588  0
H  H15  1  0.36522328  0.62271092  0.76766807  1  0  0.14479  0  0.936354  0  0  0.168428  0  0.990237  0  0  0.170591  0  0.990226  0  0  0.107188  0.166785  0  0.990411  0
H  H16  1  0.03465337  0.35738306  0.03619925  1  0  0.149414  0  1.006624  0  0  0.167304  0  1.065243  0  0  0.169752  0  1.066147  0  0  0.083381  0.165431  0  1.065065  0
H  H17  1  0.96536327  0.85735073  0.46381341  1  0  0.1493  0  1.006123  0  0  0.167143  0  1.064824  0  0  0.169598  0  1.065715  0  0  0.083266  0.165275  0  1.064635  0
H  H18  1  0.46531517  0.14261526  0.53619986  1  0  0.149407  0  1.00658  0  0  0.167304  0  1.065208  0  0  0.169747  0  1.066115  0  0  0.083432  0.165432  0  1.065026  0
H  H19  1  0.53468194  0.64263246  0.96379803  1  0  0.149446  0  1.006597  0  0  0.167321  0  1.065228  0  0  0.169766  0  1.066134  0  0  0.083419  0.165459  0  1.065041  0
H  H20  1  0.96533910  0.64263418  0.96377817  1  0  0.149484  0  1.006566  0  0  0.167421  0  1.065114  0  0  0.169894  0  1.065984  0  0  0.083497  0.165548  0  1.06494  0
H  H21  1  0.03461742  0.14263516  0.53621694  1  0  0.149455  0  1.006554  0  0  0.167411  0  1.065107  0  0  0.169881  0  1.06598  0  0  0.083462  0.165536  0  1.064933  0
H  H22  1  0.53468254  0.85735983  0.46377199  1  0  0.149463  0  1.006577  0  0  0.16742  0  1.065111  0  0  0.169886  0  1.065993  0  0  0.083518  0.165545  0  1.064932  0
H  H23  1  0.46535898  0.35738045  0.03620725  1  0  0.149378  0  1.006673  0  0  0.167332  0  1.065204  0  0  0.169787  0  1.0661  0  0  0.083431  0.165458  0  1.065032  0
H  H24  1  0.91613016  0.19787672  0.99236750  1  0  0.165335  0  1.005035  0  0  0.180356  0  1.065482  0  0  0.183755  0  1.065466  0  0  0.086783  0.177597  0  1.066348  0
H  H25  1  0.08387705  0.69785202  0.50765207  1  0  0.165327  0  1.004932  0  0  0.180315  0  1.06545  0  0  0.183712  0  1.065429  0  0  0.086751  0.177555  0  1.066317  0
H  H26  1  0.58384095  0.30212308  0.49236092  1  0  0.165246  0  1.00527  0  0  0.180272  0  1.065716  0  0  0.183667  0  1.065699  0  0  0.086768  0.177508  0  1.066587  0
H  H27  1  0.41615249  0.80213295  0.00762636  1  0  0.16537  0  1.005098  0  0  0.18039  0  1.065522  0  0  0.18379  0  1.065496  0  0  0.08678  0.177635  0  1.066389  0
H  H28  1  0.08388195  0.80212539  0.00759972  1  0  0.165283  0  1.005262  0  0  0.180378  0  1.0656  0  0  0.183782  0  1.06557  0  0  0.086777  0.177618  0  1.066475  0
H  H29  1  0.91610887  0.30213388  0.49238477  1  0  0.165321  0  1.005113  0  0  0.180375  0  1.06553  0  0  0.183778  0  1.065501  0  0  0.086763  0.17761  0  1.066407  0
H  H30  1  0.41613450  0.69786174  0.50760073  1  0  0.165349  0  1.00518  0  0  0.180427  0  1.065525  0  0  0.183827  0  1.065503  0  0  0.086765  0.177669  0  1.066388  0
H  H31  1  0.58387140  0.19788105  0.99238635  1  0  0.165289  0  1.005252  0  0  0.180341  0  1.065641  0  0  0.18374  0  1.065621  0  0  0.08678  0.177583  0  1.066513  0
H  H32  1  0.95262827  0.33760737  0.88116691  1  0  0.150244  0  1.01305  0  0  0.168325  0  1.071421  0  0  0.170459  0  1.073149  0  0  0.081968  0.166808  0  1.070348  0
H  H33  1  0.04737607  0.83757612  0.61884369  1  0  0.15021  0  1.013079  0  0  0.168285  0  1.071453  0  0  0.170418  0  1.073179  0  0  0.081951  0.166769  0  1.070372  0
H  H34  1  0.54734739  0.16238985  0.38116100  1  0  0.150292  0  1.013048  0  0  0.168337  0  1.071443  0  0  0.170472  0  1.073161  0  0  0.082013  0.166817  0  1.070368  0
H  H35  1  0.45264368  0.66240168  0.11883431  1  0  0.150294  0  1.013091  0  0  0.168383  0  1.071422  0  0  0.170519  0  1.073143  0  0  0.082006  0.166869  0  1.070342  0
H  H36  1  0.04740348  0.66239473  0.11880216  1  0  0.150268  0  1.01309  0  0  0.168309  0  1.071488  0  0  0.170443  0  1.073216  0  0  0.081976  0.166796  0  1.070402  0
H  H37  1  0.95256795  0.16240328  0.38119687  1  0  0.150262  0  1.013075  0  0  0.16842  0  1.07136  0  0  0.170555  0  1.073082  0  0  0.082029  0.166903  0  1.070281  0
H  H38  1  0.45261366  0.83759821  0.61879692  1  0  0.150256  0  1.013074  0  0  0.168297  0  1.071474  0  0  0.170428  0  1.073204  0  0  0.081967  0.166779  0  1.070393  0
H  H39  1  0.54739461  0.33760042  0.88118861  1  0  0.15021  0  1.013027  0  0  0.168292  0  1.07139  0  0  0.170422  0  1.073122  0  0  0.081999  0.166776  0  1.070311  0
H  H40  1  0.25000017  0.02122486  0.69734505  1  0  0.153213  0  0.99924  0  0  0.173086  0  1.053717  0  0  0.175925  0  1.053725  0  0  0.085992  0.17037  0  1.055114  0
H  H41  1  0.74998310  0.52119119  0.80266254  1  0  0.153255  0  0.999374  0  0  0.173133  0  1.053774  0  0  0.175974  0  1.05378  0  0  0.085947  0.170413  0  1.055179  0
H  H42  1  0.24997664  0.47879146  0.19734181  1  0  0.153235  0  0.99929  0  0  0.173109  0  1.053738  0  0  0.175951  0  1.053744  0  0  0.085979  0.170388  0  1.055143  0
H  H43  1  0.74999885  0.97878806  0.30265745  1  0  0.1533  0  0.99936  0  0  0.173139  0  1.053848  0  0  0.17598  0  1.053852  0  0  0.08598  0.170424  0  1.055246  0
H  H44  1  0.13359908  0.92409507  0.81574306  1  0  0.150413  0  1.000331  0  0  0.170292  0  1.056425  0  0  0.172647  0  1.057455  0  0  0.085868  0.168545  0  1.055805  0
H  H45  1  0.86639102  0.42407642  0.68426844  1  0  0.150429  0  1.000294  0  0  0.170215  0  1.056521  0  0  0.172574  0  1.057546  0  0  0.085834  0.168468  0  1.055902  0
H  H46  1  0.36638946  0.57590342  0.31574778  1  0  0.15035  0  1.000336  0  0  0.170182  0  1.056517  0  0  0.17254  0  1.057542  0  0  0.08583  0.168436  0  1.055893  0
H  H47  1  0.63359360  0.07590229  0.18425127  1  0  0.150477  0  1.000244  0  0  0.170301  0  1.056401  0  0  0.172658  0  1.057428  0  0  0.085929  0.168555  0  1.055779  0
H  H48  1  0.86639863  0.07592649  0.18426129  1  0  0.150456  0  1.000449  0  0  0.17031  0  1.056576  0  0  0.172673  0  1.057589  0  0  0.08593  0.168562  0  1.055952  0
H  H49  1  0.13358050  0.57591813  0.31574612  1  0  0.150463  0  1.000567  0  0  0.170337  0  1.056621  0  0  0.1727  0  1.057641  0  0  0.085907  0.168588  0  1.055999  0
H  H50  1  0.63358861  0.42407058  0.68426307  1  0  0.150491  0  1.000678  0  0  0.17035  0  1.056745  0  0  0.172711  0  1.057767  0  0  0.08591  0.168603  0  1.056121  0
H  H51  1  0.36640542  0.92409117  0.81573637  1  0  0.150352  0  1.000467  0  0  0.170253  0  1.05655  0  0  0.172607  0  1.057583  0  0  0.085835  0.168506  0  1.05593  0
C  C52  1  0.25002465  0.43450141  0.68508132  1  0  0.747111  0  3.82352  0  0  0.702696  0  4.120687  0  0  0.736817  0  4.111987  0  0  0.231941  0.679585  0  4.125308  0
C  C53  1  0.74997348  0.93449456  0.81492914  1  0  0.74729  0  3.82362  0  0  0.70256  0  4.121278  0  0  0.736696  0  4.112564  0  0  0.232001  0.679441  0  4.125899  0
C  C54  1  0.24998495  0.06549673  0.18509100  1  0  0.746829  0  3.823869  0  0  0.702318  0  4.121198  0  0  0.736461  0  4.112486  0  0  0.231799  0.679189  0  4.125831  0
C  C55  1  0.74999662  0.56546503  0.31493974  1  0  0.746854  0  3.82374  0  0  0.70227  0  4.121228  0  0  0.736405  0  4.112521  0  0  0.231607  0.67916  0  4.125837  0
C  C56  1  0.25001885  0.55348245  0.78116301  1  0  -0.456312  0  3.636466  0  0  -0.535084  0  3.863363  0  0  -0.54248  0  3.867098  0  0  -0.236759  -0.529701  0  3.86053  0
C  C57  1  0.74999901  0.05348228  0.71881730  1  0  -0.456345  0  3.636265  0  0  -0.534943  0  3.863243  0  0  -0.542345  0  3.866982  0  0  -0.236912  -0.529554  0  3.860394  0
C  C58  1  0.25000000  0.94652632  0.28117220  1  0  -0.456167  0  3.636875  0  0  -0.535016  0  3.863738  0  0  -0.542423  0  3.867467  0  0  -0.236775  -0.529624  0  3.860894  0
C  C59  1  0.75000898  0.44652074  0.21884041  1  0  -0.45596  0  3.63679  0  0  -0.534666  0  3.863757  0  0  -0.542064  0  3.867487  0  0  -0.236596  -0.529283  0  3.860919  0
C  C60  1  0.00835592  0.28077237  0.96101412  1  0  -0.725532  0  3.521858  0  0  -0.765788  0  3.754025  0  0  -0.779456  0  3.759917  0  0  -0.340168  -0.756025  0  3.750449  0
C  C61  1  0.99165270  0.78074165  0.53900082  1  0  -0.725283  0  3.521252  0  0  -0.765464  0  3.753573  0  0  -0.779132  0  3.759458  0  0  -0.339965  -0.755708  0  3.749996  0
C  C62  1  0.49162203  0.21922360  0.46100869  1  0  -0.725442  0  3.521974  0  0  -0.765687  0  3.754197  0  0  -0.779318  0  3.760078  0  0  -0.340226  -0.755921  0  3.75061  0
C  C63  1  0.50837132  0.71923741  0.03898600  1  0  -0.725632  0  3.521972  0  0  -0.76588  0  3.754147  0  0  -0.779522  0  3.760024  0  0  -0.340201  -0.756122  0  3.750531  0
C  C64  1  0.99166405  0.71923515  0.03896330  1  0  -0.72547  0  3.522185  0  0  -0.765764  0  3.754233  0  0  -0.779464  0  3.76011  0  0  -0.340182  -0.755988  0  3.750638  0
C  C65  1  0.00831359  0.21923884  0.46103046  1  0  -0.725519  0  3.522155  0  0  -0.765884  0  3.754132  0  0  -0.779578  0  3.760005  0  0  -0.340193  -0.756111  0  3.750549  0
C  C66  1  0.50835735  0.78075581  0.53896223  1  0  -0.725595  0  3.521953  0  0  -0.765928  0  3.754077  0  0  -0.779602  0  3.75993  0  0  -0.340261  -0.756165  0  3.750511  0
C  C67  1  0.49165520  0.28077010  0.96102857  1  0  -0.725307  0  3.52217  0  0  -0.765641  0  3.754286  0  0  -0.779325  0  3.760182  0  0  -0.340139  -0.755862  0  3.750677  0
C  C68  1  0.25000417  0.98910077  0.79514809  1  0  -0.709057  0  3.504405  0  0  -0.749526  0  3.730491  0  0  -0.762583  0  3.736147  0  0  -0.335342  -0.740195  0  3.727237  0
C  C69  1  0.74998572  0.48908029  0.70486269  1  0  -0.709258  0  3.504968  0  0  -0.74958  0  3.731037  0  0  -0.762638  0  3.736686  0  0  -0.335352  -0.740247  0  3.727783  0
C  C70  1  0.24997794  0.51090885  0.29514444  1  0  -0.709081  0  3.504575  0  0  -0.749467  0  3.730677  0  0  -0.762523  0  3.736321  0  0  -0.33533  -0.740134  0  3.727422  0
C  C71  1  0.75000533  0.01090998  0.20485812  1  0  -0.709279  0  3.504664  0  0  -0.749634  0  3.730755  0  0  -0.762684  0  3.736402  0  0  -0.335482  -0.7403  0  3.727493  0
O  O72  1  0.25000381  0.30203701  0.71556112  1  0  -0.657651  0  2.014739  0  0  -0.589874  0  2.252155  0  0  -0.616794  0  2.245922  0  0  -0.286  -0.571397  0  2.256005  0
O  O73  1  0.74999208  0.80204362  0.78443502  1  0  -0.657801  0  2.014739  0  0  -0.589942  0  2.252318  0  0  -0.61685  0  2.246049  0  0  -0.286125  -0.571494  0  2.256239  0
O  O74  1  0.24997290  0.19796389  0.21554147  1  0  -0.657638  0  2.014953  0  0  -0.589771  0  2.252342  0  0  -0.616673  0  2.246074  0  0  -0.286007  -0.571314  0  2.256249  0
O  O75  1  0.75003711  0.69795537  0.28445902  1  0  -0.657724  0  2.013883  0  0  -0.589872  0  2.251374  0  0  -0.616781  0  2.245109  0  0  -0.286018  -0.571431  0  2.255305  0
O  O76  1  0.25000307  0.47622045  0.57135121  1  0  -0.632306  0  2.011259  0  0  -0.55419  0  2.242927  0  0  -0.581692  0  2.237015  0  0  -0.280203  -0.534814  0  2.246683  0
O  O77  1  0.75000886  0.97622587  0.92862722  1  0  -0.632251  0  2.011937  0  0  -0.553964  0  2.243664  0  0  -0.581473  0  2.237745  0  0  -0.280114  -0.534562  0  2.247408  0
O  O78  1  0.25000456  0.02378921  0.07135113  1  0  -0.632309  0  2.010878  0  0  -0.554272  0  2.242692  0  0  -0.581799  0  2.236776  0  0  -0.280344  -0.534873  0  2.246443  0
O  O79  1  0.75001559  0.52377949  0.42866707  1  0  -0.63232  0  2.011817  0  0  -0.55416  0  2.2436  0  0  -0.58167  0  2.237678  0  0  -0.280182  -0.534786  0  2.247359  0
