# generated using pymatgen
data_BiH9C14N2O9
_symmetry_space_group_name_H-M   'P 1'
_cell_length_a   7.71677655
_cell_length_b   12.69147371
_cell_length_c   15.35771062
_cell_angle_alpha   108.71865310
_cell_angle_beta   90.00001461
_cell_angle_gamma   89.99991635
_symmetry_Int_Tables_number   1
_chemical_formula_structural   BiH9C14N2O9
_chemical_formula_sum   'Bi4 H36 C56 N8 O36'
_cell_volume   1424.53452171
_cell_formula_units_Z   4
loop_
 _symmetry_equiv_pos_site_id
 _symmetry_equiv_pos_as_xyz
  1  'x, y, z'
loop_
 _atom_site_type_symbol
 _atom_site_label
 _atom_site_symmetry_multiplicity
 _atom_site_fract_x
 _atom_site_fract_y
 _atom_site_fract_z
 _atom_site_occupancy
 _atom_site_hle17_bader_spin_density
 _atom_site_hle17_ddec_charge
 _atom_site_hle17_ddec_spin_density
 _atom_site_hle17_ddec_sum_bond_order
 _atom_site_hle17_magmom
 _atom_site_hse06_10hf_bader_spin_density
 _atom_site_hse06_10hf_ddec_charge
 _atom_site_hse06_10hf_ddec_spin_density
 _atom_site_hse06_10hf_ddec_sum_bond_order
 _atom_site_hse06_10hf_magmom
 _atom_site_hse06_bader_spin_density
 _atom_site_hse06_ddec_charge
 _atom_site_hse06_ddec_spin_density
 _atom_site_hse06_ddec_sum_bond_order
 _atom_site_hse06_magmom
 _atom_site_pbe_bader_spin_density
 _atom_site_pbe_cm5_charge
 _atom_site_pbe_ddec_charge
 _atom_site_pbe_ddec_spin_density
 _atom_site_pbe_ddec_sum_bond_order
 _atom_site_pbe_magmom
Bi  Bi0  1  0.71326758  0.42016827  0.24555586  1  0  1.660307  0  2.039677  0  0  1.441454  0  2.494387  0  0  1.51932  0  2.443883  0  0  0.906835  1.386237  0  2.529353  0
Bi  Bi1  1  0.21327178  0.07982893  0.75444445  1  0  1.660323  0  2.039647  0  0  1.441476  0  2.494355  0  0  1.51934  0  2.443848  0  0  0.906841  1.386258  0  2.529317  0
Bi  Bi2  1  0.28673709  0.57983243  0.75444460  1  0  1.660295  0  2.039677  0  0  1.441435  0  2.494391  0  0  1.519303  0  2.443887  0  0  0.906846  1.386213  0  2.52937  0
Bi  Bi3  1  0.78673159  0.92017174  0.24555861  1  0  1.660334  0  2.039674  0  0  1.441468  0  2.494391  0  0  1.519333  0  2.443887  0  0  0.906826  1.386246  0  2.529357  0
H  H4  1  0.33621483  0.67764971  0.53473657  1  0  0.131383  0  0.940788  0  0  0.137279  0  1.0041  0  0  0.141399  0  1.002576  0  0  0.113523  0.134307  0  1.0054  0
H  H5  1  0.83621357  0.82235194  0.46526272  1  0  0.131383  0  0.94084  0  0  0.137276  0  1.004157  0  0  0.141396  0  1.002631  0  0  0.113513  0.134301  0  1.005462  0
H  H6  1  0.66378595  0.32234932  0.46526409  1  0  0.131362  0  0.940822  0  0  0.137282  0  1.004115  0  0  0.14137  0  1.002628  0  0  0.113527  0.134311  0  1.005413  0
H  H7  1  0.16378592  0.17764876  0.53473645  1  0  0.131399  0  0.940779  0  0  0.137302  0  1.00409  0  0  0.141415  0  1.002572  0  0  0.11352  0.13433  0  1.005389  0
H  H8  1  0.56947280  0.74316679  0.65572614  1  0  0.121042  0  0.970127  0  0  0.126826  0  1.034388  0  0  0.13077  0  1.030604  0  0  0.115632  0.12396  0  1.037114  0
H  H9  1  0.06947248  0.75683511  0.34427318  1  0  0.120995  0  0.970147  0  0  0.126781  0  1.034413  0  0  0.130724  0  1.03063  0  0  0.115599  0.123907  0  1.037142  0
H  H10  1  0.43052669  0.25683307  0.34427410  1  0  0.121002  0  0.970139  0  0  0.126787  0  1.034409  0  0  0.130731  0  1.030626  0  0  0.115618  0.123919  0  1.037127  0
H  H11  1  0.93052571  0.24316477  0.65572511  1  0  0.121044  0  0.970153  0  0  0.126807  0  1.034423  0  0  0.130751  0  1.03064  0  0  0.115626  0.123936  0  1.037144  0
H  H12  1  0.93994761  0.56099650  0.45321614  1  0  0.103429  0  0.94493  0  0  0.107112  0  1.016207  0  0  0.110705  0  1.012007  0  0  0.124294  0.104446  0  1.019309  0
H  H13  1  0.43994825  0.93900422  0.54678356  1  0  0.103443  0  0.944903  0  0  0.107125  0  1.016174  0  0  0.110718  0  1.011975  0  0  0.124287  0.104458  0  1.019285  0
H  H14  1  0.06005188  0.43900419  0.54678497  1  0  0.103451  0  0.944891  0  0  0.107145  0  1.016159  0  0  0.110736  0  1.011966  0  0  0.12429  0.104481  0  1.019265  0
H  H15  1  0.56005124  0.06099649  0.45321495  1  0  0.103443  0  0.944883  0  0  0.107146  0  1.016132  0  0  0.110734  0  1.011945  0  0  0.124299  0.104478  0  1.019243  0
H  H16  1  0.64702874  0.60508829  0.97177106  1  0  0.131391  0  0.950594  0  0  0.13612  0  1.016151  0  0  0.140727  0  1.013468  0  0  0.11353  0.132742  0  1.018282  0
H  H17  1  0.14702664  0.89491269  0.02822997  1  0  0.131375  0  0.950613  0  0  0.136096  0  1.016178  0  0  0.140719  0  1.013475  0  0  0.113518  0.132705  0  1.018319  0
H  H18  1  0.35297204  0.39491157  0.02822983  1  0  0.131422  0  0.95058  0  0  0.13615  0  1.016123  0  0  0.140759  0  1.013438  0  0  0.113554  0.132759  0  1.018267  0
H  H19  1  0.85297414  0.10508801  0.97176984  1  0  0.131409  0  0.950611  0  0  0.136121  0  1.01618  0  0  0.140768  0  1.013449  0  0  0.113539  0.132727  0  1.018324  0
H  H20  1  0.80070445  0.46174879  0.84501220  1  0  0.121847  0  0.934833  0  0  0.132483  0  0.991961  0  0  0.136537  0  0.988061  0  0  0.118814  0.129449  0  0.994925  0
H  H21  1  0.30070457  0.03825166  0.15498834  1  0  0.12179  0  0.934871  0  0  0.132454  0  0.991987  0  0  0.136508  0  0.988085  0  0  0.118812  0.129419  0  0.99495  0
H  H22  1  0.19929245  0.53825106  0.15498868  1  0  0.121799  0  0.934849  0  0  0.132436  0  0.991986  0  0  0.13649  0  0.988086  0  0  0.118801  0.129401  0  0.994946  0
H  H23  1  0.69930011  0.96174821  0.84501060  1  0  0.12179  0  0.934809  0  0  0.132433  0  0.991959  0  0  0.136486  0  0.988057  0  0  0.118799  0.129392  0  0.994932  0
H  H24  1  0.92813849  0.29176387  0.03974263  1  0  0.100873  0  0.949132  0  0  0.104375  0  1.019948  0  0  0.108612  0  1.015172  0  0  0.121624  0.101229  0  1.023477  0
H  H25  1  0.42813860  0.20823314  0.96025635  1  0  0.100891  0  0.949166  0  0  0.104389  0  1.019974  0  0  0.108611  0  1.015214  0  0  0.121629  0.10124  0  1.023504  0
H  H26  1  0.07186229  0.70823433  0.96025715  1  0  0.100909  0  0.949166  0  0  0.10441  0  1.019978  0  0  0.108638  0  1.015212  0  0  0.121643  0.101263  0  1.023508  0
H  H27  1  0.57186348  0.79176589  0.03974301  1  0  0.10093  0  0.949133  0  0  0.104421  0  1.019946  0  0  0.108648  0  1.01518  0  0  0.121641  0.10127  0  1.023477  0
H  H28  1  0.94435602  0.75751507  0.76724132  1  0  0.392105  0  0.894526  0  0  0.360844  0  0.975132  0  0  0.373958  0  0.960958  0  0  0.302313  0.351651  0  0.984964  0
H  H29  1  0.44435569  0.74248398  0.23275793  1  0  0.392112  0  0.894465  0  0  0.36086  0  0.975058  0  0  0.373976  0  0.960884  0  0  0.302304  0.351667  0  0.984891  0
H  H30  1  0.05564476  0.24248479  0.23275892  1  0  0.392084  0  0.89454  0  0  0.360823  0  0.975146  0  0  0.373939  0  0.960972  0  0  0.302306  0.351629  0  0.984987  0
H  H31  1  0.55564380  0.25751589  0.76724165  1  0  0.392109  0  0.894494  0  0  0.360859  0  0.975085  0  0  0.373973  0  0.960913  0  0  0.302302  0.351664  0  0.984927  0
H  H32  1  0.97674268  0.58790363  0.24059849  1  0  0.426995  0  0.880403  0  0  0.391778  0  0.951703  0  0  0.403735  0  0.934428  0  0  0.289408  0.383335  0  0.963871  0
H  H33  1  0.47674478  0.91209705  0.75940251  1  0  0.427004  0  0.880396  0  0  0.391788  0  0.951692  0  0  0.403746  0  0.934417  0  0  0.289402  0.383349  0  0.963855  0
H  H34  1  0.02325422  0.41209623  0.75940175  1  0  0.426988  0  0.880415  0  0  0.391774  0  0.951709  0  0  0.403731  0  0.934435  0  0  0.289393  0.383333  0  0.963875  0
H  H35  1  0.52325341  0.08790448  0.24059818  1  0  0.42709  0  0.880289  0  0  0.391888  0  0.951559  0  0  0.403845  0  0.934284  0  0  0.289442  0.383448  0  0.963723  0
H  H36  1  0.07996028  0.53165039  0.30738145  1  0  0.432574  0  0.873925  0  0  0.397495  0  0.943239  0  0  0.410553  0  0.924457  0  0  0.287115  0.388283  0  0.956456  0
H  H37  1  0.57996008  0.96834982  0.69261872  1  0  0.432578  0  0.873924  0  0  0.397486  0  0.943257  0  0  0.410545  0  0.924475  0  0  0.287109  0.388275  0  0.956476  0
H  H38  1  0.92003791  0.46834946  0.69262009  1  0  0.432549  0  0.873967  0  0  0.397492  0  0.94323  0  0  0.410546  0  0.924456  0  0  0.287137  0.388283  0  0.956442  0
H  H39  1  0.42003812  0.03165004  0.30738087  1  0  0.432544  0  0.873979  0  0  0.397485  0  0.943244  0  0  0.41054  0  0.92447  0  0  0.287116  0.388274  0  0.956462  0
C  C40  1  0.51761061  0.58493878  0.43317545  1  0  0.105457  0  3.746713  0  0  0.102156  0  3.99452  0  0  0.105653  0  4.014282  0  0  0.115606  0.099829  0  3.98113  0
C  C41  1  0.01761002  0.91506233  0.56682430  1  0  0.105548  0  3.746675  0  0  0.10223  0  3.994488  0  0  0.105727  0  4.014254  0  0  0.115633  0.099908  0  3.981092  0
C  C42  1  0.48239018  0.41506191  0.56682436  1  0  0.105564  0  3.746738  0  0  0.102227  0  3.994556  0  0  0.105728  0  4.014311  0  0  0.11563  0.099899  0  3.981166  0
C  C43  1  0.98238947  0.08493838  0.43317486  1  0  0.105488  0  3.746714  0  0  0.102177  0  3.994522  0  0  0.105675  0  4.01428  0  0  0.115619  0.099855  0  3.981127  0
C  C44  1  0.47213041  0.65637494  0.51974799  1  0  -0.116536  0  3.675098  0  0  -0.138398  0  3.932674  0  0  -0.145768  0  3.952716  0  0  -0.075034  -0.133703  0  3.919329  0
C  C45  1  0.97212910  0.84362658  0.48025193  1  0  -0.11658  0  3.675177  0  0  -0.138435  0  3.932756  0  0  -0.145806  0  3.9528  0  0  -0.075033  -0.133735  0  3.91939  0
C  C46  1  0.52787037  0.34362576  0.48025247  1  0  -0.116588  0  3.67517  0  0  -0.138479  0  3.932763  0  0  -0.145826  0  3.95282  0  0  -0.075061  -0.133787  0  3.919405  0
C  C47  1  0.02786909  0.15637329  0.51974635  1  0  -0.116555  0  3.675213  0  0  -0.138456  0  3.932773  0  0  -0.145822  0  3.952822  0  0  -0.075038  -0.133765  0  3.919417  0
C  C48  1  0.60095231  0.69204348  0.58603062  1  0  0.024198  0  3.636703  0  0  -0.009124  0  3.892705  0  0  -0.001295  0  3.905411  0  0  -0.051984  -0.014008  0  3.884098  0
C  C49  1  0.10095320  0.80795839  0.41396870  1  0  0.024317  0  3.636726  0  0  -0.009011  0  3.892723  0  0  -0.001183  0  3.905429  0  0  -0.051957  -0.013886  0  3.8841  0
C  C50  1  0.39904718  0.30795721  0.41396985  1  0  0.024282  0  3.636763  0  0  -0.009041  0  3.892768  0  0  -0.001211  0  3.905465  0  0  -0.051974  -0.013917  0  3.88414  0
C  C51  1  0.89904759  0.19204232  0.58602981  1  0  0.024186  0  3.636789  0  0  -0.00906  0  3.892706  0  0  -0.001231  0  3.905409  0  0  -0.05197  -0.01394  0  3.884081  0
C  C52  1  0.77140435  0.65586282  0.56376949  1  0  -0.111607  0  3.703478  0  0  -0.087978  0  3.942919  0  0  -0.100752  0  3.9644  0  0  -0.004008  -0.079966  0  3.92876  0
C  C53  1  0.27140257  0.84413888  0.43623045  1  0  -0.111808  0  3.703667  0  0  -0.088154  0  3.9431  0  0  -0.10093  0  3.964579  0  0  -0.004045  -0.080138  0  3.928933  0
C  C54  1  0.22859773  0.34413703  0.43623139  1  0  -0.111678  0  3.703609  0  0  -0.088036  0  3.943027  0  0  -0.100809  0  3.964508  0  0  -0.004004  -0.08002  0  3.928859  0
C  C55  1  0.72859562  0.15586182  0.56376806  1  0  -0.111674  0  3.703578  0  0  -0.088063  0  3.943011  0  0  -0.100836  0  3.964489  0  0  -0.004016  -0.08005  0  3.928843  0
C  C56  1  0.80812181  0.58856570  0.47371476  1  0  0.157602  0  3.624236  0  0  0.113311  0  3.88006  0  0  0.124204  0  3.894543  0  0  0.07018  0.106271  0  3.870207  0
C  C57  1  0.30812121  0.91143515  0.52628431  1  0  0.157602  0  3.624207  0  0  0.113308  0  3.880034  0  0  0.124203  0  3.894514  0  0  0.070168  0.106264  0  3.87019  0
C  C58  1  0.19188027  0.41143416  0.52628613  1  0  0.157586  0  3.624259  0  0  0.113286  0  3.880067  0  0  0.124178  0  3.894552  0  0  0.070197  0.106239  0  3.870219  0
C  C59  1  0.69187828  0.08856556  0.47371486  1  0  0.157621  0  3.62422  0  0  0.113312  0  3.880053  0  0  0.124205  0  3.894533  0  0  0.070163  0.106266  0  3.870209  0
C  C60  1  0.37933789  0.53242683  0.36334916  1  0  0.617998  0  3.90789  0  0  0.559911  0  4.216073  0  0  0.594482  0  4.207836  0  0  0.216875  0.536566  0  4.220732  0
C  C61  1  0.87933377  0.96757227  0.63665140  1  0  0.617916  0  3.908138  0  0  0.559849  0  4.216295  0  0  0.594411  0  4.208075  0  0  0.21681  0.536502  0  4.22096  0
C  C62  1  0.62066678  0.46757137  0.63665063  1  0  0.617886  0  3.908111  0  0  0.559845  0  4.216217  0  0  0.594412  0  4.207988  0  0  0.216821  0.536502  0  4.220873  0
C  C63  1  0.12066442  0.03242759  0.36334884  1  0  0.617985  0  3.907996  0  0  0.559892  0  4.216164  0  0  0.594463  0  4.207924  0  0  0.216845  0.536542  0  4.220827  0
C  C64  1  0.90873111  0.68108141  0.63639948  1  0  0.670998  0  3.803557  0  0  0.616938  0  4.105726  0  0  0.652089  0  4.096501  0  0  0.236039  0.593074  0  4.111512  0
C  C65  1  0.40872676  0.81891769  0.36359783  1  0  0.671082  0  3.80331  0  0  0.617013  0  4.105495  0  0  0.652168  0  4.096269  0  0  0.236097  0.593143  0  4.111287  0
C  C66  1  0.09126838  0.31891928  0.36360098  1  0  0.671045  0  3.803543  0  0  0.616988  0  4.105717  0  0  0.652141  0  4.096491  0  0  0.23605  0.593116  0  4.111506  0
C  C67  1  0.59127014  0.18108136  0.63640024  1  0  0.671051  0  3.803411  0  0  0.616977  0  4.105594  0  0  0.652128  0  4.096368  0  0  0.236068  0.593113  0  4.111377  0
C  C68  1  0.71252877  0.52465921  0.07208621  1  0  0.091407  0  3.762258  0  0  0.089393  0  4.009287  0  0  0.091265  0  4.029322  0  0  0.114881  0.088133  0  3.995751  0
C  C69  1  0.21252821  0.97534005  0.92791372  1  0  0.091379  0  3.762284  0  0  0.089412  0  4.009232  0  0  0.091283  0  4.029271  0  0  0.114895  0.08815  0  3.995693  0
C  C70  1  0.28747072  0.47533814  0.92791465  1  0  0.091328  0  3.76232  0  0  0.089325  0  4.009327  0  0  0.091196  0  4.029363  0  0  0.114893  0.088063  0  3.995796  0
C  C71  1  0.78747128  0.02466232  0.07208589  1  0  0.091285  0  3.762222  0  0  0.089307  0  4.009235  0  0  0.091177  0  4.029279  0  0  0.114881  0.08805  0  3.995687  0
C  C72  1  0.71292163  0.53555599  0.98462564  1  0  -0.105057  0  3.661906  0  0  -0.127234  0  3.920074  0  0  -0.133119  0  3.939291  0  0  -0.070196  -0.12347  0  3.907333  0
C  C73  1  0.21292454  0.96444327  0.01537493  1  0  -0.105049  0  3.661888  0  0  -0.127219  0  3.920037  0  0  -0.133118  0  3.939247  0  0  -0.070186  -0.12344  0  3.907292  0
C  C74  1  0.28707527  0.46444221  0.01537479  1  0  -0.105142  0  3.661925  0  0  -0.127313  0  3.920094  0  0  -0.1332  0  3.939309  0  0  -0.070245  -0.123533  0  3.907351  0
C  C75  1  0.78707754  0.03555660  0.98462400  1  0  -0.10516  0  3.661941  0  0  -0.127325  0  3.920132  0  0  -0.133243  0  3.939328  0  0  -0.070245  -0.123545  0  3.907388  0
C  C76  1  0.79765657  0.45469743  0.91380183  1  0  0.014663  0  3.620537  0  0  -0.017924  0  3.874309  0  0  -0.012375  0  3.888872  0  0  -0.052064  -0.021273  0  3.864462  0
C  C77  1  0.29765664  0.04530219  0.08619849  1  0  0.014816  0  3.620527  0  0  -0.017858  0  3.874295  0  0  -0.012312  0  3.888863  0  0  -0.052032  -0.021209  0  3.864438  0
C  C78  1  0.20233903  0.54530243  0.08619905  1  0  0.01485  0  3.620464  0  0  -0.017793  0  3.874216  0  0  -0.012245  0  3.888781  0  0  -0.052034  -0.021138  0  3.864354  0
C  C79  1  0.70234545  0.95469684  0.91380088  1  0  0.014926  0  3.620498  0  0  -0.017746  0  3.874271  0  0  -0.012198  0  3.888846  0  0  -0.05201  -0.021094  0  3.864417  0
C  C80  1  0.87962614  0.36609942  0.93264204  1  0  -0.09042  0  3.688085  0  0  -0.065903  0  3.927488  0  0  -0.07617  0  3.948086  0  0  -0.002251  -0.059608  0  3.913922  0
C  C81  1  0.37962857  0.13389930  0.06735804  1  0  -0.090494  0  3.688212  0  0  -0.065846  0  3.927441  0  0  -0.076106  0  3.948029  0  0  -0.002221  -0.059547  0  3.913867  0
C  C82  1  0.12037205  0.63389878  0.06735775  1  0  -0.090556  0  3.688196  0  0  -0.065879  0  3.927412  0  0  -0.076144  0  3.94801  0  0  -0.002228  -0.059584  0  3.913838  0
C  C83  1  0.62037480  0.86610056  0.93264219  1  0  -0.090647  0  3.688353  0  0  -0.065945  0  3.927539  0  0  -0.076212  0  3.948133  0  0  -0.002254  -0.059655  0  3.913966  0
C  C84  1  0.86853710  0.36010972  0.02201291  1  0  0.13741  0  3.650533  0  0  0.09456  0  3.90391  0  0  0.103476  0  3.918994  0  0  0.06566  0.088879  0  3.893661  0
C  C85  1  0.36853996  0.13988901  0.97798653  1  0  0.137334  0  3.650552  0  0  0.09446  0  3.903882  0  0  0.103385  0  3.91897  0  0  0.065615  0.088778  0  3.893633  0
C  C86  1  0.13146110  0.63989014  0.97798733  1  0  0.137337  0  3.650526  0  0  0.094425  0  3.903887  0  0  0.103347  0  3.918974  0  0  0.065595  0.088744  0  3.893641  0
C  C87  1  0.63146212  0.86011168  0.02201393  1  0  0.1373  0  3.650544  0  0  0.094418  0  3.903868  0  0  0.10334  0  3.918953  0  0  0.065601  0.088733  0  3.893622  0
C  C88  1  0.63069011  0.60824243  0.15404782  1  0  0.630051  0  3.88588  0  0  0.571079  0  4.192315  0  0  0.606966  0  4.182892  0  0  0.225303  0.546783  0  4.197908  0
C  C89  1  0.13069101  0.89175690  0.84595277  1  0  0.630045  0  3.885771  0  0  0.571063  0  4.192197  0  0  0.60695  0  4.182773  0  0  0.22528  0.546766  0  4.197794  0
C  C90  1  0.36931068  0.39175409  0.84595347  1  0  0.630119  0  3.885705  0  0  0.571132  0  4.192166  0  0  0.607021  0  4.182739  0  0  0.225294  0.546826  0  4.197772  0
C  C91  1  0.86930978  0.10824631  0.15404577  1  0  0.63024  0  3.885535  0  0  0.571209  0  4.192048  0  0  0.607097  0  4.182623  0  0  0.225323  0.546913  0  4.197645  0
C  C92  1  0.98466102  0.27951890  0.86271902  1  0  0.652636  0  3.904179  0  0  0.596033  0  4.205255  0  0  0.63166  0  4.198353  0  0  0.214083  0.572005  0  4.209024  0
C  C93  1  0.48466069  0.22048138  0.13728150  1  0  0.652634  0  3.904232  0  0  0.596017  0  4.205271  0  0  0.631641  0  4.198369  0  0  0.214105  0.571991  0  4.209038  0
C  C94  1  0.01533718  0.72048013  0.13728164  1  0  0.652658  0  3.904228  0  0  0.596017  0  4.205283  0  0  0.631642  0  4.198382  0  0  0.214108  0.571996  0  4.209042  0
C  C95  1  0.51534010  0.77952015  0.86271919  1  0  0.652782  0  3.904089  0  0  0.596133  0  4.205144  0  0  0.631761  0  4.198238  0  0  0.214133  0.572126  0  4.208891  0
N  N96  1  0.68296077  0.55362016  0.41048850  1  0  -0.349247  0  3.230962  0  0  -0.276775  0  3.475592  0  0  -0.297871  0  3.497657  0  0  -0.29183  -0.262471  0  3.460388  0
N  N97  1  0.18296012  0.94637996  0.58951100  1  0  -0.349216  0  3.230859  0  0  -0.276737  0  3.475483  0  0  -0.297833  0  3.497546  0  0  -0.291806  -0.262434  0  3.460279  0
N  N98  1  0.31704131  0.44637971  0.58951108  1  0  -0.349274  0  3.231011  0  0  -0.276799  0  3.475646  0  0  -0.297896  0  3.497712  0  0  -0.291866  -0.262492  0  3.460441  0
N  N99  1  0.81703808  0.05361991  0.41048793  1  0  -0.349254  0  3.230898  0  0  -0.276777  0  3.475533  0  0  -0.297873  0  3.497595  0  0  -0.291836  -0.262474  0  3.460329  0
N  N100  1  0.78684877  0.43745940  0.08921048  1  0  -0.326687  0  3.281362  0  0  -0.254452  0  3.522722  0  0  -0.273992  0  3.545662  0  0  -0.292368  -0.241182  0  3.506927  0
N  N101  1  0.28684790  0.06253856  0.91078939  1  0  -0.326663  0  3.281405  0  0  -0.254453  0  3.522754  0  0  -0.273989  0  3.545682  0  0  -0.292406  -0.241184  0  3.506959  0
N  N102  1  0.21315202  0.56253796  0.91078908  1  0  -0.32663  0  3.281371  0  0  -0.254377  0  3.522718  0  0  -0.273915  0  3.545652  0  0  -0.292379  -0.241111  0  3.506933  0
N  N103  1  0.71315289  0.93746213  0.08921172  1  0  -0.326579  0  3.281312  0  0  -0.25436  0  3.522674  0  0  -0.273897  0  3.545606  0  0  -0.292377  -0.241094  0  3.506878  0
O  O104  1  0.42397319  0.45326454  0.29118096  1  0  -0.604594  0  2.063942  0  0  -0.540833  0  2.310751  0  0  -0.571358  0  2.304437  0  0  -0.287418  -0.519456  0  2.314137  0
O  O105  1  0.92397011  0.04673331  0.70881825  1  0  -0.604538  0  2.063944  0  0  -0.540825  0  2.310783  0  0  -0.571335  0  2.304453  0  0  -0.287392  -0.519443  0  2.314165  0
O  O106  1  0.57602760  0.54673282  0.70881991  1  0  -0.604542  0  2.063917  0  0  -0.540796  0  2.310688  0  0  -0.571321  0  2.304377  0  0  -0.287409  -0.519417  0  2.314073  0
O  O107  1  0.07602808  0.95326574  0.29117981  1  0  -0.604614  0  2.063901  0  0  -0.540824  0  2.310676  0  0  -0.57135  0  2.304365  0  0  -0.287432  -0.519444  0  2.31406  0
O  O108  1  0.22631282  0.56592826  0.38249782  1  0  -0.57935  0  2.003235  0  0  -0.524026  0  2.231146  0  0  -0.549964  0  2.223788  0  0  -0.291196  -0.505886  0  2.235659  0
O  O109  1  0.72631007  0.93407100  0.61750016  1  0  -0.579372  0  2.003459  0  0  -0.524016  0  2.231327  0  0  -0.549951  0  2.223973  0  0  -0.291176  -0.505878  0  2.235851  0
O  O110  1  0.77368796  0.43407161  0.61750112  1  0  -0.579325  0  2.003549  0  0  -0.523992  0  2.231385  0  0  -0.549921  0  2.224027  0  0  -0.291158  -0.505852  0  2.235899  0
O  O111  1  0.27368813  0.06592804  0.38249856  1  0  -0.579336  0  2.003459  0  0  -0.523995  0  2.231323  0  0  -0.54993  0  2.223967  0  0  -0.291155  -0.505857  0  2.235841  0
O  O112  1  0.05990392  0.64693958  0.62115405  1  0  -0.594374  0  1.940362  0  0  -0.549199  0  2.173025  0  0  -0.573423  0  2.16519  0  0  -0.287026  -0.532385  0  2.178082  0
O  O113  1  0.55990772  0.85306150  0.37884505  1  0  -0.594409  0  1.940063  0  0  -0.549238  0  2.172751  0  0  -0.573467  0  2.164914  0  0  -0.287053  -0.532422  0  2.17781  0
O  O114  1  0.94009686  0.35306111  0.37884641  1  0  -0.594377  0  1.940346  0  0  -0.549196  0  2.17301  0  0  -0.573421  0  2.165168  0  0  -0.287018  -0.532383  0  2.178067  0
O  O115  1  0.44009436  0.14693837  0.62115454  1  0  -0.594377  0  1.940161  0  0  -0.549206  0  2.172836  0  0  -0.573431  0  2.164999  0  0  -0.287043  -0.532393  0  2.177892  0
O  O116  1  0.84870081  0.74010344  0.71816162  1  0  -0.519698  0  2.121042  0  0  -0.468983  0  2.343344  0  0  -0.49154  0  2.329015  0  0  -0.318405  -0.453335  0  2.352759  0
O  O117  1  0.34870045  0.75989819  0.28183897  1  0  -0.519673  0  2.121017  0  0  -0.468986  0  2.34336  0  0  -0.491531  0  2.328996  0  0  -0.318407  -0.453339  0  2.352773  0
O  O118  1  0.15129868  0.25989726  0.28183884  1  0  -0.519664  0  2.121016  0  0  -0.468975  0  2.343367  0  0  -0.491527  0  2.329015  0  0  -0.318401  -0.453325  0  2.352786  0
O  O119  1  0.65129774  0.24010251  0.71816084  1  0  -0.519713  0  2.121056  0  0  -0.468992  0  2.343339  0  0  -0.491553  0  2.329016  0  0  -0.318396  -0.453347  0  2.352755  0
O  O120  1  0.62467728  0.58424145  0.22900894  1  0  -0.589115  0  2.08554  0  0  -0.517363  0  2.32883  0  0  -0.547793  0  2.322185  0  0  -0.274341  -0.49639  0  2.332755  0
O  O121  1  0.12467939  0.91575706  0.77099078  1  0  -0.589189  0  2.0854  0  0  -0.517434  0  2.328695  0  0  -0.547863  0  2.322048  0  0  -0.27438  -0.496463  0  2.332631  0
O  O122  1  0.37532221  0.41575674  0.77099215  1  0  -0.589155  0  2.085297  0  0  -0.517398  0  2.3286  0  0  -0.547827  0  2.321954  0  0  -0.274362  -0.496419  0  2.332531  0
O  O123  1  0.87532010  0.08424364  0.22900903  1  0  -0.589234  0  2.085192  0  0  -0.517457  0  2.328509  0  0  -0.547888  0  2.321864  0  0  -0.274385  -0.496479  0  2.332433  0
O  O124  1  0.56955826  0.69761518  0.14718764  1  0  -0.603226  0  1.985718  0  0  -0.550704  0  2.215949  0  0  -0.576746  0  2.207509  0  0  -0.292544  -0.532626  0  2.221326  0
O  O125  1  0.06955938  0.80238422  0.85281230  1  0  -0.603128  0  1.985727  0  0  -0.550611  0  2.215959  0  0  -0.576652  0  2.207522  0  0  -0.292481  -0.532534  0  2.221338  0
O  O126  1  0.43044512  0.30238385  0.85281302  1  0  -0.603146  0  1.985806  0  0  -0.550636  0  2.216053  0  0  -0.576676  0  2.207613  0  0  -0.292493  -0.532554  0  2.221435  0
O  O127  1  0.93044530  0.19761648  0.14718751  1  0  -0.603214  0  1.985813  0  0  -0.550669  0  2.216065  0  0  -0.576712  0  2.207629  0  0  -0.292501  -0.532595  0  2.221447  0
O  O128  1  0.03949560  0.29859576  0.79126703  1  0  -0.642445  0  2.034376  0  0  -0.580451  0  2.263214  0  0  -0.608884  0  2.255155  0  0  -0.297414  -0.560543  0  2.268144  0
O  O129  1  0.53949450  0.20140494  0.20873355  1  0  -0.642388  0  2.034413  0  0  -0.580405  0  2.263248  0  0  -0.608839  0  2.255192  0  0  -0.297372  -0.5605  0  2.268181  0
O  O130  1  0.96050389  0.70140494  0.20873344  1  0  -0.642425  0  2.034451  0  0  -0.580431  0  2.263322  0  0  -0.608866  0  2.255265  0  0  -0.29743  -0.56053  0  2.268255  0
O  O131  1  0.46050628  0.79859659  0.79126714  1  0  -0.642457  0  2.034367  0  0  -0.580476  0  2.263245  0  0  -0.60891  0  2.255186  0  0  -0.297405  -0.560581  0  2.268179  0
O  O132  1  0.02098155  0.19133615  0.88182235  1  0  -0.616893  0  1.988459  0  0  -0.558132  0  2.224486  0  0  -0.588244  0  2.218961  0  0  -0.292031  -0.537074  0  2.227471  0
O  O133  1  0.52097755  0.30866456  0.11817888  1  0  -0.616939  0  1.988441  0  0  -0.558208  0  2.224502  0  0  -0.588313  0  2.218964  0  0  -0.292121  -0.537154  0  2.227493  0
O  O134  1  0.97901794  0.80866372  0.11817724  1  0  -0.616902  0  1.988442  0  0  -0.558156  0  2.224501  0  0  -0.588265  0  2.21897  0  0  -0.292047  -0.537101  0  2.227485  0
O  O135  1  0.47902064  0.69133696  0.88182311  1  0  -0.616944  0  1.988373  0  0  -0.558205  0  2.224451  0  0  -0.588312  0  2.218913  0  0  -0.292079  -0.537154  0  2.227436  0
O  O136  1  0.98400616  0.51964413  0.25975801  1  0  -0.875117  0  1.895863  0  0  -0.811668  0  2.098529  0  0  -0.836826  0  2.064765  0  0  -0.571585  -0.793793  0  2.121922  0
O  O137  1  0.48400421  0.98035489  0.74024058  1  0  -0.875123  0  1.895879  0  0  -0.81167  0  2.098563  0  0  -0.836828  0  2.064798  0  0  -0.57156  -0.793793  0  2.121959  0
O  O138  1  0.01599333  0.48035573  0.74024287  1  0  -0.875111  0  1.895884  0  0  -0.811683  0  2.098559  0  0  -0.836837  0  2.0648  0  0  -0.571595  -0.793807  0  2.12195  0
O  O139  1  0.51599528  0.01964664  0.25975945  1  0  -0.875189  0  1.895828  0  0  -0.811773  0  2.098523  0  0  -0.836928  0  2.064758  0  0  -0.57161  -0.793899  0  2.121919  0
