# generated using pymatgen
data_Co2H28C40SN4O9
_symmetry_space_group_name_H-M   'P 1'
_cell_length_a   11.81165620
_cell_length_b   11.96370162
_cell_length_c   13.56661180
_cell_angle_alpha   102.66705484
_cell_angle_beta   100.05258487
_cell_angle_gamma   99.17458083
_symmetry_Int_Tables_number   1
_chemical_formula_structural   Co2H28C40SN4O9
_chemical_formula_sum   'Co4 H56 C80 S2 N8 O18'
_cell_volume   1802.30828709
_cell_formula_units_Z   2
loop_
 _symmetry_equiv_pos_site_id
 _symmetry_equiv_pos_as_xyz
  1  'x, y, z'
loop_
 _atom_site_type_symbol
 _atom_site_label
 _atom_site_symmetry_multiplicity
 _atom_site_fract_x
 _atom_site_fract_y
 _atom_site_fract_z
 _atom_site_occupancy
 _atom_site_pbe_bader_charge
 _atom_site_pbe_bader_spin_density
 _atom_site_pbe_cm5_charge
 _atom_site_pbe_ddec_charge
 _atom_site_pbe_ddec_spin_density
 _atom_site_pbe_ddec_sum_bond_order
 _atom_site_pbe_magmom
Co  Co0  1  0.25397811  0.96701968  0.10354154  1  1.277736  2.600771  0.681156  0.923808  2.810124  2.435525  2.564
Co  Co1  1  0.74628776  0.03360184  0.89707142  1  1.278356  2.602733  0.683478  0.924409  2.810156  2.431978  2.564
Co  Co2  1  0.13023164  0.28496809  0.18466667  1  1.321299  2.62723  0.694724  0.937368  2.871853  2.440039  2.606
Co  Co3  1  0.86853461  0.71278443  0.81455116  1  1.33281  2.637937  0.699268  0.94695  2.88452  2.445475  2.619
H  H4  1  0.24314557  0.48942637  0.22986323  1  0.627875  -0.000138  0.278314  0.361515  -0.000113  0.998734  0.0
H  H5  1  0.75466994  0.51005704  0.76843315  1  0.621809  -0.00014  0.280359  0.36353  -0.00019  0.996121  0.0
H  H6  1  0.14113718  0.52621034  0.28102974  1  0.596086  0.001519  0.281665  0.344024  0.000881  1.008553  0.002
H  H7  1  0.85838863  0.47424995  0.71841732  1  0.599367  0.000871  0.282986  0.345669  0.000509  1.005954  0.001
H  H8  1  0.47204507  0.90734321  0.04280154  1  0.126204  0.002337  0.107585  0.07605  0.000787  1.05954  0.002
H  H9  1  0.52874788  0.09323280  0.95741596  1  0.132869  0.00233  0.107804  0.076568  0.0008  1.059912  0.002
H  H10  1  0.55115454  0.73007955  0.99787035  1  0.095557  0.001003  0.106549  0.115805  0.000427  1.028819  0.0
H  H11  1  0.44917630  0.27023834  0.00182452  1  0.100335  0.001081  0.105975  0.114737  0.000476  1.029514  0.0
H  H12  1  0.25029487  0.54003974  0.07756241  1  0.091127  0.000831  0.106236  0.117076  0.000274  1.029718  0.0
H  H13  1  0.75005050  0.46064813  0.92243125  1  0.082875  0.000903  0.106709  0.117622  0.000322  1.027193  0.0
H  H14  1  0.18409145  0.72816068  0.12041628  1  0.081721  0.00219  0.115081  0.078255  0.000719  1.038492  0.002
H  H15  1  0.81677813  0.27273997  0.88010212  1  0.079366  0.00228  0.114847  0.078154  0.000809  1.038237  0.002
H  H16  1  0.38845776  0.43148188  0.02047909  1  0.062814  -0.000102  0.101159  0.097562  -0.000116  1.027977  0.0
H  H17  1  0.61175554  0.56901416  0.97927527  1  0.068821  -0.000142  0.101494  0.098369  -0.000154  1.027075  0.0
H  H18  1  0.59549882  0.54121888  0.30744107  1  0.080543  -0.000113  0.101648  0.106881  -0.000161  1.018923  0.0
H  H19  1  0.40348331  0.45879104  0.69084768  1  0.080828  -8.4e-05  0.101404  0.10605  -0.000133  1.018605  0.0
H  H20  1  0.79919933  0.49980435  0.32676965  1  0.068208  8.9e-05  0.090443  0.084405  -6.2e-05  1.068255  0.0
H  H21  1  0.20009504  0.50089187  0.67231657  1  0.065173  8.3e-05  0.090794  0.084577  -6.6e-05  1.067546  0.0
H  H22  1  0.82622811  0.29661284  0.26850486  1  0.0855  0.000242  0.094914  0.099092  4.9e-05  1.06126  0.0
H  H23  1  0.17377365  0.70416516  0.73141805  1  0.064561  0.000147  0.095898  0.101691  -1e-05  1.061728  0.0
H  H24  1  0.71949412  0.02524228  0.37702605  1  0.087859  0.000119  0.10051  0.103556  4e-05  1.03065  0.0
H  H25  1  0.28105149  0.97607527  0.62415210  1  0.091366  0.000154  0.100421  0.103194  6.4e-05  1.027696  0.0
H  H26  1  0.89885144  0.96755450  0.46021879  1  0.050855  -0.000142  0.098085  0.094835  -0.000174  1.043924  0.0
H  H27  1  0.10105572  0.03286246  0.54108656  1  0.060265  -0.000163  0.099361  0.096454  -0.000192  1.041686  0.0
H  H28  1  0.06692542  0.95914838  0.37113601  1  0.091852  0.000222  0.104038  0.101531  4.8e-05  1.024996  0.0
H  H29  1  0.93307938  0.04046972  0.63034244  1  0.090216  0.000245  0.104664  0.101691  6e-05  1.026081  0.0
H  H30  1  0.99678112  0.35940827  0.35248699  1  0.081772  0.001526  0.115941  0.086217  0.000532  1.005692  0.001
H  H31  1  0.00219069  0.63895099  0.64708464  1  0.08261  0.001372  0.11684  0.087082  0.000203  1.005479  0.001
H  H32  1  0.00261328  0.35389689  0.53434256  1  0.091668  0.000799  0.103974  0.110211  0.000371  1.032667  0.0
H  H33  1  0.99704715  0.64568839  0.46541733  1  0.085811  0.000756  0.104138  0.110625  0.000365  1.032512  0.0
H  H34  1  0.31603066  0.20890628  0.52784702  1  0.078465  0.000709  0.109108  0.118059  0.000387  0.989661  0.0
H  H35  1  0.68364670  0.79068593  0.47205757  1  0.077322  0.000845  0.10953  0.118565  0.000428  0.989876  0.0
H  H36  1  0.29153729  0.21326230  0.34324589  1  0.161888  0.001165  0.119045  0.104431  -2.9e-05  1.032409  0.001
H  H37  1  0.70708269  0.78459915  0.65605197  1  0.160239  0.001285  0.117449  0.101355  0.000233  1.034438  0.001
H  H38  1  0.24850183  0.23737464  0.68471871  1  0.056671  9e-06  0.105752  0.103671  7.5e-05  1.002159  0.0
H  H39  1  0.75172232  0.76331711  0.31547108  1  0.047727  -6e-06  0.105357  0.102766  6.4e-05  1.002763  0.0
H  H40  1  0.03784763  0.35881840  0.69393318  1  0.064632  -7.5e-05  0.103309  0.095587  -7.2e-05  1.039063  0.0
H  H41  1  0.96210587  0.64148689  0.30599537  1  0.066959  -8.2e-05  0.103299  0.095776  -7e-05  1.038099  0.0
H  H42  1  0.98841669  0.41390921  0.85691080  1  0.099495  0.001038  0.106855  0.121469  0.00052  1.021633  0.0
H  H43  1  0.01221878  0.58709602  0.14335944  1  0.101479  0.001016  0.107112  0.121901  0.000458  1.023333  0.0
H  H44  1  0.99636422  0.39015088  0.03597936  1  0.122626  0.001492  0.11872  0.091134  0.000167  1.009335  0.001
H  H45  1  0.00482321  0.61126251  0.96464766  1  0.109053  0.001692  0.117961  0.088918  0.00055  1.011313  0.001
H  H46  1  0.24627531  0.18490151  0.01186750  1  0.14936  0.001289  0.119114  0.099619  0.00018  1.034194  0.001
H  H47  1  0.75502454  0.81678551  0.98840213  1  0.148094  0.00128  0.12008  0.101413  3e-05  1.031475  0.001
H  H48  1  0.24688103  0.19529552  0.83175505  1  0.057224  0.000805  0.105137  0.113204  0.000373  1.011173  0.0
H  H49  1  0.75394967  0.80605160  0.16843865  1  0.090858  0.00075  0.105386  0.113609  0.000367  1.010286  0.0
H  H50  1  0.13044725  0.76887851  0.28481481  1  0.099077  0.000129  0.106708  0.072165  -3.8e-05  1.047324  0.0
H  H51  1  0.86948829  0.23133809  0.71543878  1  0.105396  0.000104  0.106585  0.071685  -6e-05  1.04656  0.0
H  H52  1  0.29674546  0.93481968  0.35284661  1  0.125491  -4.1e-05  0.110166  0.128986  -0.0002  1.015637  0.0
H  H53  1  0.70320155  0.06525526  0.64730310  1  0.125341  -2.1e-05  0.11021  0.12896  -0.000179  1.015484  0.0
H  H54  1  0.53834648  0.94275641  0.58919827  1  0.114242  0.000154  0.102827  0.119601  4.9e-05  1.038927  0.0
H  H55  1  0.46175249  0.05719131  0.41079134  1  0.110462  0.000166  0.102915  0.11962  6.1e-05  1.038418  0.0
H  H56  1  0.43661584  0.74948627  0.57157612  1  0.085808  0.000169  0.105127  0.115468  7.4e-05  1.025269  0.0
H  H57  1  0.56351382  0.25044757  0.42837196  1  0.084357  0.000178  0.105477  0.116176  8.6e-05  1.023334  0.0
H  H58  1  0.26466127  0.58574719  0.48937020  1  0.075134  -6e-06  0.107817  0.074557  -7.4e-05  1.003007  0.0
H  H59  1  0.73526359  0.41431197  0.51073697  1  0.075274  -2.7e-05  0.108019  0.074665  -8.3e-05  1.002318  0.0
C  C60  1  0.42637316  0.82447797  0.05087672  1  0.452544  -0.007512  0.038162  0.087063  -0.007896  3.981543  -0.004
C  C61  1  0.57431003  0.17612492  0.94928733  1  0.455361  -0.007389  0.037662  0.085392  -0.007787  3.980889  -0.004
C  C62  1  0.47012005  0.72372710  0.02595211  1  -0.004865  0.00562  -0.082224  -0.164332  0.002586  3.907675  0.005
C  C63  1  0.53029592  0.27674229  0.97389784  1  -0.010762  0.00555  -0.082566  -0.164122  0.002539  3.90676  0.005
C  C64  1  0.40867875  0.61676685  0.03523177  1  -0.067796  -0.013781  0.007002  0.148149  -0.014504  4.006394  -0.008
C  C65  1  0.59160724  0.38373986  0.96456737  1  -0.068722  -0.013605  0.008351  0.150937  -0.014332  4.005427  -0.008
C  C66  1  0.30263903  0.61932087  0.06879494  1  0.016531  0.005427  -0.077549  -0.152084  0.002239  3.900174  0.005
C  C67  1  0.69774136  0.38129013  0.93112942  1  0.010349  0.005409  -0.078796  -0.154131  0.002223  3.901516  0.005
C  C68  1  0.26515601  0.72383469  0.09331447  1  0.459969  -0.009741  0.041417  0.095343  -0.010185  3.951291  -0.006
C  C69  1  0.73554220  0.27693446  0.90692760  1  0.473326  -0.009175  0.042091  0.095325  -0.009598  3.954111  -0.005
C  C70  1  0.44861332  0.50716186  0.01323722  1  -0.048355  -0.007997  -0.079502  -0.109317  -0.00868  3.950536  -0.004
C  C71  1  0.55159802  0.49330357  0.98648952  1  0.034956  -0.008368  -0.079765  -0.111268  -0.009072  3.950743  -0.004
C  C72  1  0.42525444  0.13974636  0.18987831  1  1.56449  0.000132  0.197967  0.573223  -0.000297  4.239966  -0.002
C  C73  1  0.57489942  0.85999566  0.80926963  1  1.576489  0.000551  0.197626  0.5694  0.000212  4.244098  -0.002
C  C74  1  0.64115494  0.22190863  0.22911567  1  -0.092567  0.005116  -0.008911  0.035419  0.00249  4.023319  0.003
C  C75  1  0.35903333  0.77833772  0.77092035  1  -0.095012  0.004672  -0.008035  0.036746  0.002247  4.020396  0.003
C  C76  1  0.52651502  0.24352453  0.22251339  1  -0.045117  -0.001324  -0.007983  -0.080121  -0.002102  3.905985  -0.001
C  C77  1  0.47346488  0.75636277  0.77711916  1  -0.045301  -0.001506  -0.008256  -0.078473  -0.002355  3.906527  -0.001
C  C78  1  0.51181387  0.36035852  0.24904226  1  -0.017498  0.011456  -0.016836  -0.054664  0.005958  3.955013  0.008
C  C79  1  0.48771454  0.63945379  0.74980037  1  -0.056888  0.011335  -0.017538  -0.057315  0.005901  3.957292  0.008
C  C80  1  0.39156367  0.38864145  0.23599191  1  1.536712  -0.001018  0.209196  0.564957  -0.001643  4.202654  -0.001
C  C81  1  0.60767122  0.61076807  0.76323591  1  1.551985  -0.001141  0.208938  0.564872  -0.001888  4.201601  -0.001
C  C82  1  0.61021367  0.45220807  0.28699606  1  0.012665  -0.001982  -0.093008  -0.107276  -0.002386  3.990499  -0.001
C  C83  1  0.38908816  0.54788910  0.71160873  1  0.057495  -0.000925  -0.090649  -0.102327  -0.001326  3.985661  -0.001
C  C84  1  0.72277178  0.42864093  0.29708191  1  -0.099627  0.005902  -0.097013  -0.078119  0.002894  4.045212  0.004
C  C85  1  0.27671870  0.57184492  0.70201315  1  -0.09822  0.005603  -0.097978  -0.079466  0.002755  4.046117  0.003
C  C86  1  0.73851673  0.31453392  0.26633204  1  -0.023731  -0.00281  -0.095039  -0.123335  -0.003014  3.99886  -0.002
C  C87  1  0.26137376  0.68602784  0.73331459  1  -0.007237  -0.001853  -0.096449  -0.125666  -0.002014  3.997622  -0.001
C  C88  1  0.79455369  0.06770558  0.25301860  1  -0.1547  0.003247  -0.009862  0.027246  0.001682  3.996038  0.002
C  C89  1  0.20652088  0.93347756  0.74842452  1  -0.14628  0.002387  -0.00881  0.027569  0.001219  3.997698  0.001
C  C90  1  0.79754406  0.03062119  0.34428016  1  -0.007501  -0.000924  -0.084408  -0.115458  -0.001054  3.989595  -0.001
C  C91  1  0.20318940  0.97063891  0.65716226  1  -0.018125  6.4e-05  -0.084801  -0.113308  -8.2e-05  3.985924  0.0
C  C92  1  0.89766321  0.99744224  0.38994903  1  -0.008406  0.002241  -0.094126  -0.084486  0.00106  4.021462  0.001
C  C93  1  0.10269509  0.00325148  0.61152931  1  -0.059764  0.001355  -0.095868  -0.088046  0.000598  4.021231  0.001
C  C94  1  0.99228366  0.99448308  0.34144355  1  -0.07373  -0.000768  -0.081063  -0.087584  -0.001106  3.968179  0.0
C  C95  1  0.00812375  0.00573464  0.66011132  1  -0.017135  -0.000306  -0.082127  -0.088345  -0.000678  3.972489  0.0
C  C96  1  0.99251660  0.03594979  0.25279576  1  -0.017164  0.004425  -0.012281  -0.057116  0.001849  3.967413  0.003
C  C97  1  0.00835803  0.96425692  0.74880204  1  -0.021707  0.003099  -0.011006  -0.055078  0.001239  3.970401  0.002
C  C98  1  0.89533889  0.07837240  0.21092294  1  0.030808  0.006053  0.001134  -0.074082  0.002598  3.913357  0.005
C  C99  1  0.10587302  0.92230786  0.79059087  1  0.022634  0.007994  0.000999  -0.072985  0.003879  3.913893  0.006
C  C100  1  0.09155145  0.02781555  0.19861536  1  1.54708  0.000351  0.217652  0.580811  -0.000586  4.143025  -0.001
C  C101  1  0.90907554  0.97146826  0.80279016  1  1.544528  0.002961  0.215784  0.577401  0.002182  4.144764  0.001
C  C102  1  0.89584928  0.13140647  0.11997340  1  1.627132  0.016164  0.223953  0.612542  0.01182  4.204362  0.015
C  C103  1  0.10382848  0.86585743  0.87945228  1  1.637642  0.015657  0.2231  0.611543  0.01151  4.214776  0.015
C  C104  1  0.06620083  0.32669049  0.39458277  1  0.473444  -0.008173  0.040577  0.085419  -0.008274  3.980767  -0.004
C  C105  1  0.93279069  0.67152541  0.60484464  1  0.476502  -0.008655  0.041725  0.086572  -0.009307  3.980004  -0.005
C  C106  1  0.07095710  0.32450640  0.49679621  1  -0.057026  0.002381  -0.08383  -0.169293  0.000576  3.91752  0.003
C  C107  1  0.92845333  0.67462057  0.50287738  1  -0.001716  0.001801  -0.084368  -0.169869  0.000377  3.915081  0.002
C  C108  1  0.16237481  0.28214594  0.54960912  1  -0.000675  -0.017747  0.002484  0.134207  -0.018547  4.035828  -0.01
C  C109  1  0.83727252  0.71741301  0.45020265  1  -0.056472  -0.017226  0.002659  0.13476  -0.018012  4.034413  -0.01
C  C110  1  0.24314575  0.24270481  0.49197017  1  -0.033746  0.001751  -0.081249  -0.170181  -9.5e-05  3.919791  0.003
C  C111  1  0.75628652  0.75644056  0.50775674  1  -0.029986  0.002176  -0.080964  -0.170079  0.000177  3.921339  0.003
C  C112  1  0.23103068  0.24594392  0.38918420  1  0.431874  -0.013292  0.039434  0.093973  -0.014299  3.925451  -0.008
C  C113  1  0.76781212  0.75207819  0.61022874  1  0.430855  -0.012452  0.039695  0.094986  -0.012941  3.927302  -0.007
C  C114  1  0.17607184  0.27668591  0.65651847  1  -0.02779  -0.010653  -0.080263  -0.122488  -0.011521  3.973674  -0.005
C  C115  1  0.82399131  0.72369312  0.34350368  1  -0.021089  -0.011132  -0.079956  -0.1211  -0.012005  3.972817  -0.005
C  C116  1  0.10824661  0.31664024  0.72175269  1  -0.048384  -0.015528  -0.079788  -0.115842  -0.016485  3.953641  -0.008
C  C117  1  0.89191654  0.68399720  0.27829716  1  -0.048602  -0.014691  -0.078695  -0.114865  -0.015605  3.951258  -0.008
C  C118  1  0.11796204  0.30735919  0.82740228  1  0.025057  -0.013425  0.00436  0.145012  -0.014142  4.020477  -0.008
C  C119  1  0.88266024  0.69377120  0.17279589  1  0.007974  -0.014225  0.004059  0.144693  -0.014995  4.018703  -0.008
C  C120  1  0.04731067  0.36233694  0.88824004  1  -0.056192  0.001975  -0.085693  -0.186758  0.000288  3.929843  0.003
C  C121  1  0.95344502  0.63882347  0.11209182  1  -0.055766  0.002703  -0.085352  -0.187186  0.000599  3.930294  0.003
C  C122  1  0.05162564  0.35047730  0.98810259  1  0.472321  -0.010189  0.044773  0.094098  -0.010865  3.96301  -0.006
C  C123  1  0.94938402  0.65095848  0.01236176  1  0.473201  -0.009931  0.043881  0.093332  -0.010136  3.963735  -0.005
C  C124  1  0.19099561  0.23532529  0.97458863  1  0.461905  -0.007064  0.045569  0.093516  -0.007305  3.916491  -0.004
C  C125  1  0.81016925  0.76637006  0.02575354  1  0.462898  -0.008183  0.047718  0.097294  -0.008894  3.912561  -0.005
C  C126  1  0.19118190  0.24245813  0.87399508  1  -0.042005  0.000413  -0.080199  -0.165734  -0.000626  3.914309  0.002
C  C127  1  0.80976409  0.75898201  0.12626955  1  -0.056327  0.001055  -0.080467  -0.166672  -9.3e-05  3.912918  0.002
C  C128  1  0.19986408  0.76610210  0.34831325  1  0.447043  0.000666  0.03502  0.085139  0.000368  3.991269  0.0
C  C129  1  0.80005731  0.23404098  0.65190475  1  0.438026  0.000579  0.035206  0.085701  0.000321  3.991239  0.0
C  C130  1  0.29395341  0.86059060  0.38740772  1  -0.049811  -0.000177  -0.083432  -0.173921  -0.000288  3.895047  0.0
C  C131  1  0.70601649  0.13950802  0.61275890  1  -0.051514  -5.5e-05  -0.083578  -0.174185  -0.000162  3.895371  0.0
C  C132  1  0.38338123  0.85754993  0.46990915  1  -0.032187  0.000568  0.006387  0.147059  0.000285  4.020338  0.0
C  C133  1  0.61663345  0.14246488  0.53016987  1  -0.030929  0.000519  0.006303  0.146866  0.000261  4.020506  0.0
C  C134  1  0.48525279  0.95248293  0.51811239  1  -0.105074  0.000492  -0.085663  -0.132699  0.000268  3.950145  0.0
C  C135  1  0.51480028  0.04751364  0.48191805  1  0.002949  0.000609  -0.085479  -0.132361  0.000333  3.950279  0.0
C  C136  1  0.37074052  0.75640007  0.50726742  1  -0.014782  6.5e-05  -0.083334  -0.171956  1.8e-05  3.903455  0.0
C  C137  1  0.62930098  0.24359033  0.49277334  1  -0.013189  9.7e-05  -0.083103  -0.172042  4.6e-05  3.902799  0.0
C  C138  1  0.27392720  0.66528186  0.46192855  1  0.473132  0.000581  0.043104  0.102958  0.000263  3.983067  0.0
C  C139  1  0.72603942  0.33477129  0.53817789  1  0.474417  0.000605  0.043288  0.104045  0.000295  3.981831  0.0
S  S140  1  0.65632508  0.07668161  0.18193508  1  0.107553  0.002075  0.032716  0.001601  0.000614  2.811767  0.001
S  S141  1  0.34455060  0.92363666  0.81915013  1  0.101594  0.001909  0.032303  -0.000296  0.000569  2.812018  0.001
N  N142  1  0.14378082  0.28778612  0.33988310  1  -1.227737  0.046245  -0.3363  -0.280753  0.02491  3.61247  0.042
N  N143  1  0.85473691  0.70963317  0.65933116  1  -1.222397  0.047089  -0.336874  -0.282791  0.025366  3.616713  0.043
N  N144  1  0.32563226  0.82598516  0.08525508  1  -1.223722  0.068603  -0.344106  -0.276577  0.035956  3.655973  0.054
N  N145  1  0.67522270  0.17478078  0.91514872  1  -1.230071  0.069341  -0.343847  -0.275375  0.036296  3.655676  0.054
N  N146  1  0.12270657  0.28883382  0.03194819  1  -1.217808  0.04882  -0.329612  -0.237867  0.026122  3.54647  0.044
N  N147  1  0.87851740  0.71284758  0.96852997  1  -1.206628  0.052483  -0.329117  -0.236607  0.028315  3.539439  0.046
N  N148  1  0.18815905  0.66870889  0.38372210  1  -1.232289  0.001813  -0.326993  -0.291935  0.000826  3.402072  0.001
N  N149  1  0.81174756  0.33143767  0.61647518  1  -1.232021  0.001492  -0.327283  -0.293357  0.000674  3.402265  0.001
O  O150  1  0.37970006  0.09699666  0.09250148  1  -1.130641  0.094237  -0.313014  -0.544244  0.04863  2.298365  0.074
O  O151  1  0.61970187  0.90425643  0.90660221  1  -1.138379  0.096285  -0.311691  -0.538564  0.049578  2.297902  0.076
O  O152  1  0.39200693  0.09057976  0.25628287  1  -1.16204  0.048112  -0.30416  -0.558034  0.024147  2.20453  0.041
O  O153  1  0.60871057  0.90729867  0.74205905  1  -1.163873  0.045418  -0.304652  -0.558706  0.022737  2.204974  0.038
O  O154  1  0.38063189  0.49410374  0.25287190  1  -1.157366  0.007341  -0.3174  -0.532128  0.003013  2.158129  0.006
O  O155  1  0.61834840  0.50515397  0.74381266  1  -1.158668  0.007621  -0.317239  -0.531266  0.003115  2.15827  0.007
O  O156  1  0.30590997  0.29941009  0.20673016  1  -1.139153  0.093642  -0.304981  -0.553305  0.048547  2.464197  0.081
O  O157  1  0.69358395  0.69961202  0.79740777  1  -1.142714  0.094471  -0.304826  -0.55441  0.048677  2.462172  0.083
O  O158  1  0.15298930  0.47351756  0.21752502  1  -1.233384  0.060053  -0.577979  -0.772679  0.03159  2.185718  0.049
O  O159  1  0.84510130  0.52712844  0.78116984  1  -1.226634  0.07044  -0.576146  -0.77094  0.036701  2.200873  0.058
O  O160  1  0.94206218  0.23944978  0.13787823  1  -1.161256  0.058645  -0.30993  -0.565704  0.030036  2.273625  0.044
O  O161  1  0.05730037  0.75741675  0.85618468  1  -1.175328  0.057364  -0.309706  -0.567362  0.029407  2.279019  0.043
O  O162  1  0.84767258  0.06172175  0.03284835  1  -1.155882  0.097382  -0.303847  -0.534185  0.050088  2.460356  0.077
O  O163  1  0.14912715  0.93174243  0.96869699  1  -1.158291  0.094303  -0.307064  -0.537099  0.048642  2.464597  0.074
O  O164  1  0.12360729  0.10345063  0.15058469  1  -1.149653  0.090383  -0.287708  -0.541717  0.047524  2.403201  0.077
O  O165  1  0.87637487  0.89561468  0.85045287  1  -1.15124  0.087769  -0.286162  -0.538323  0.04616  2.393168  0.073
O  O166  1  0.14233099  0.94079038  0.19841215  1  -1.133574  0.091128  -0.301129  -0.527496  0.046954  2.290778  0.074
O  O167  1  0.85828572  0.05852319  0.80295410  1  -1.132006  0.095889  -0.300197  -0.52664  0.049525  2.291338  0.077
