# generated using pymatgen
data_KBH4C4(N2O)4
_symmetry_space_group_name_H-M   'P 1'
_cell_length_a   9.77354293
_cell_length_b   10.51431635
_cell_length_c   10.89384680
_cell_angle_alpha   90.00013535
_cell_angle_beta   90.00051843
_cell_angle_gamma   106.28754954
_symmetry_Int_Tables_number   1
_chemical_formula_structural   KBH4C4(N2O)4
_chemical_formula_sum   'K4 B4 H16 C16 N32 O16'
_cell_volume   1074.54610333
_cell_formula_units_Z   4
loop_
 _symmetry_equiv_pos_site_id
 _symmetry_equiv_pos_as_xyz
  1  'x, y, z'
loop_
 _atom_site_type_symbol
 _atom_site_label
 _atom_site_symmetry_multiplicity
 _atom_site_fract_x
 _atom_site_fract_y
 _atom_site_fract_z
 _atom_site_occupancy
 _atom_site_pbe_bader_spin_density
 _atom_site_pbe_cm5_charge
 _atom_site_pbe_ddec_charge
 _atom_site_pbe_ddec_spin_density
 _atom_site_pbe_ddec_sum_bond_order
 _atom_site_pbe_magmom
K  K0  1  0.55371175  0.80586887  0.87185957  1  0  0.802108  0.767589  0  0.752457  0
K  K1  1  0.94628778  0.19412708  0.37185527  1  0  0.802099  0.767574  0  0.752484  0
K  K2  1  0.44628597  0.19412871  0.12814410  1  0  0.802091  0.767589  0  0.752438  0
K  K3  1  0.05371475  0.80586950  0.62814839  1  0  0.802106  0.767583  0  0.752484  0
B  B4  1  0.05850107  0.28566137  0.01266459  1  0  -0.224448  0.125927  0  3.621676  0
B  B5  1  0.44149352  0.71434414  0.51267000  1  0  -0.224489  0.125794  0  3.621637  0
B  B6  1  0.94149784  0.71434018  0.98733081  1  0  -0.224496  0.125851  0  3.621607  0
B  B7  1  0.55850876  0.28565839  0.48733183  1  0  -0.224478  0.125858  0  3.621534  0
H  H8  1  0.97346020  0.32158698  0.95106782  1  0  0.047653  -0.137204  0  1.046219  0
H  H9  1  0.52653170  0.67841834  0.45107131  1  0  0.047657  -0.137171  0  1.046211  0
H  H10  1  0.02653342  0.67841061  0.04892666  1  0  0.047671  -0.137199  0  1.046318  0
H  H11  1  0.47347148  0.32158717  0.54892685  1  0  0.047669  -0.137179  0  1.04624  0
H  H12  1  0.97447564  0.16191251  0.77494804  1  0  0.142509  0.109353  0  1.006371  0
H  H13  1  0.52551764  0.83808291  0.27495556  1  0  0.142508  0.10939  0  1.006317  0
H  H14  1  0.02553188  0.83808704  0.22504920  1  0  0.142504  0.109444  0  1.006283  0
H  H15  1  0.47447525  0.16191567  0.72504628  1  0  0.142506  0.109411  0  1.006264  0
H  H16  1  0.01465718  0.24347420  0.11248585  1  0  0.050908  -0.143432  0  1.068248  0
H  H17  1  0.48533823  0.75652394  0.61249263  1  0  0.050919  -0.143392  0  1.068202  0
H  H18  1  0.98534041  0.75652636  0.88751231  1  0  0.050908  -0.143427  0  1.068241  0
H  H19  1  0.51466519  0.24347562  0.38751012  1  0  0.050888  -0.143453  0  1.068235  0
H  H20  1  0.15821739  0.54999023  0.90153772  1  0  0.1468  0.113299  0  0.996679  0
H  H21  1  0.34178465  0.45001346  0.40154234  1  0  0.146803  0.11332  0  0.996595  0
H  H22  1  0.84178302  0.45001627  0.09845952  1  0  0.14679  0.113301  0  0.996478  0
H  H23  1  0.65822070  0.54998907  0.59846041  1  0  0.146775  0.113262  0  0.996577  0
C  C24  1  0.04923126  0.12425544  0.82737750  1  0  0.17969  0.156379  0  3.871595  0
C  C25  1  0.45076600  0.87575181  0.32737938  1  0  0.179718  0.156399  0  3.871611  0
C  C26  1  0.95077541  0.87574808  0.17262158  1  0  0.17971  0.156385  0  3.871521  0
C  C27  1  0.54922912  0.12425073  0.67261969  1  0  0.179709  0.156358  0  3.871478  0
C  C28  1  0.18852418  0.02272206  0.89069810  1  0  0.303322  0.247078  0  4.078429  0
C  C29  1  0.31146835  0.97727761  0.39069908  1  0  0.303433  0.247335  0  4.078356  0
C  C30  1  0.81148087  0.97727948  0.10930373  1  0  0.303363  0.247097  0  4.078801  0
C  C31  1  0.68852322  0.02271998  0.60930642  1  0  0.303448  0.24721  0  4.078724  0
C  C32  1  0.22485301  0.52560395  0.97250463  1  0  0.179203  0.1562  0  3.869551  0
C  C33  1  0.27514505  0.47440112  0.47251060  1  0  0.179167  0.156018  0  3.86968  0
C  C34  1  0.77513831  0.47439958  0.02748710  1  0  0.179255  0.156154  0  3.869715  0
C  C35  1  0.72485958  0.52560240  0.52748756  1  0  0.179255  0.156213  0  3.869519  0
C  C36  1  0.38297193  0.52840105  0.10022846  1  0  0.293707  0.229512  0  4.104776  0
C  C37  1  0.11702713  0.47159602  0.60022701  1  0  0.29374  0.229582  0  4.104718  0
C  C38  1  0.61702361  0.47159951  0.89976970  1  0  0.293785  0.229614  0  4.104777  0
C  C39  1  0.88297702  0.52840254  0.39977391  1  0  0.293729  0.229611  0  4.104891  0
N  N40  1  0.09890576  0.17411816  0.93917022  1  0  -0.097273  0.045357  0  3.671616  0
N  N41  1  0.40109136  0.82589169  0.43917526  1  0  -0.097357  0.045202  0  3.67175  0
N  N42  1  0.90109814  0.82588635  0.06082885  1  0  -0.097268  0.045312  0  3.671697  0
N  N43  1  0.59890977  0.17411382  0.56082841  1  0  -0.097351  0.045298  0  3.671683  0
N  N44  1  0.18934562  0.10830462  0.98130898  1  0  -0.248319  -0.26772  0  3.15584  0
N  N45  1  0.31064671  0.89170150  0.48131160  1  0  -0.248346  -0.267765  0  3.155909  0
N  N46  1  0.81065594  0.89169891  0.01869193  1  0  -0.248365  -0.267765  0  3.15611  0
N  N47  1  0.68935293  0.10829905  0.51869299  1  0  -0.248312  -0.267742  0  3.156066  0
N  N48  1  0.10421222  0.02720753  0.79361727  1  0  -0.38587  -0.388947  0  3.290899  0
N  N49  1  0.39578404  0.97279755  0.29361985  1  0  -0.38586  -0.38898  0  3.29088  0
N  N50  1  0.89579517  0.97279500  0.20638181  1  0  -0.385868  -0.388981  0  3.290951  0
N  N51  1  0.60420976  0.02720400  0.70638290  1  0  -0.385888  -0.388976  0  3.290848  0
N  N52  1  0.27573373  0.93324679  0.89787418  1  0  0.044752  0.494617  0  4.195986  0
N  N53  1  0.22426298  0.06675292  0.39787422  1  0  0.04461  0.494449  0  4.19618  0
N  N54  1  0.72427060  0.06675574  0.10212673  1  0  0.044676  0.494576  0  4.196224  0
N  N55  1  0.77572637  0.93324071  0.60213220  1  0  0.044438  0.49426  0  4.196438  0
N  N56  1  0.19208649  0.40615033  0.03045054  1  0  -0.095858  0.05122  0  3.664898  0
N  N57  1  0.30790874  0.59385329  0.53045183  1  0  -0.095843  0.051386  0  3.664953  0
N  N58  1  0.80790659  0.59385221  0.96954578  1  0  -0.095865  0.051293  0  3.664979  0
N  N59  1  0.69209559  0.40614924  0.46954908  1  0  -0.095799  0.051319  0  3.665008  0
N  N60  1  0.29433325  0.40703554  0.11379434  1  0  -0.229603  -0.267559  0  3.146005  0
N  N61  1  0.20565911  0.59296260  0.61379571  1  0  -0.229606  -0.267599  0  3.146014  0
N  N62  1  0.70565863  0.59296303  0.88620107  1  0  -0.229587  -0.267503  0  3.146118  0
N  N63  1  0.79434636  0.40703696  0.38620704  1  0  -0.229657  -0.26763  0  3.146217  0
N  N64  1  0.34677557  0.60596630  0.01435424  1  0  -0.38621  -0.405472  0  3.300833  0
N  N65  1  0.15322501  0.39403525  0.51435198  1  0  -0.386214  -0.405412  0  3.300889  0
N  N66  1  0.65322015  0.39403822  0.98564759  1  0  -0.386274  -0.405536  0  3.301053  0
N  N67  1  0.84678106  0.60596629  0.48564526  1  0  -0.386249  -0.405514  0  3.300941  0
N  N68  1  0.51046950  0.57177274  0.17365397  1  0  0.059522  0.47902  0  4.226065  0
N  N69  1  0.98953367  0.42821815  0.67365269  1  0  0.059495  0.478814  0  4.226174  0
N  N70  1  0.48953050  0.42821889  0.82634052  1  0  0.059444  0.478794  0  4.226174  0
N  N71  1  0.01047151  0.57178042  0.32634547  1  0  0.05957  0.478953  0  4.22606  0
O  O72  1  0.27143201  0.85509975  0.81108288  1  0  -0.173517  -0.353073  0  2.004948  0
O  O73  1  0.22856915  0.14490741  0.31108129  1  0  -0.173422  -0.353001  0  2.004889  0
O  O74  1  0.72857454  0.14490675  0.18891528  1  0  -0.173441  -0.352987  0  2.004999  0
O  O75  1  0.77141786  0.85508523  0.68892238  1  0  -0.173311  -0.352767  0  2.004929  0
O  O76  1  0.35245873  0.93995384  0.99008986  1  0  -0.161532  -0.343865  0  2.003233  0
O  O77  1  0.14753917  0.06006025  0.49008283  1  0  -0.161485  -0.343809  0  2.003343  0
O  O78  1  0.64754517  0.06005067  0.00991197  1  0  -0.161519  -0.343869  0  2.003259  0
O  O79  1  0.85245463  0.93994130  0.50992359  1  0  -0.161452  -0.343834  0  2.003435  0
O  O80  1  0.53516318  0.49290549  0.24976484  1  0  -0.120236  -0.328538  0  1.989934  0
O  O81  1  0.96483005  0.50708385  0.74975711  1  0  -0.120242  -0.328434  0  1.989955  0
O  O82  1  0.46482468  0.50708318  0.75023149  1  0  -0.120236  -0.328491  0  1.989978  0
O  O83  1  0.03517746  0.49291571  0.25024105  1  0  -0.12022  -0.328454  0  1.99003  0
O  O84  1  0.58874440  0.68599162  0.15591321  1  0  -0.12732  -0.339749  0  2.000205  0
O  O85  1  0.91126741  0.31399124  0.65591838  1  0  -0.127286  -0.339668  0  2.000219  0
O  O86  1  0.41126680  0.31399307  0.84407853  1  0  -0.127282  -0.339659  0  2.000274  0
O  O87  1  0.08873602  0.68600832  0.34408345  1  0  -0.127356  -0.339799  0  2.000212  0
