# generated using pymatgen
data_NaZnH2C3O7
_symmetry_space_group_name_H-M   'P 1'
_cell_length_a   5.95535342
_cell_length_b   7.04224994
_cell_length_c   15.50605347
_cell_angle_alpha   89.99538775
_cell_angle_beta   89.99843548
_cell_angle_gamma   100.25169338
_symmetry_Int_Tables_number   1
_chemical_formula_structural   NaZnH2C3O7
_chemical_formula_sum   'Na4 Zn4 H8 C12 O28'
_cell_volume   639.92781766
_cell_formula_units_Z   4
loop_
 _symmetry_equiv_pos_site_id
 _symmetry_equiv_pos_as_xyz
  1  'x, y, z'
loop_
 _atom_site_type_symbol
 _atom_site_label
 _atom_site_symmetry_multiplicity
 _atom_site_fract_x
 _atom_site_fract_y
 _atom_site_fract_z
 _atom_site_occupancy
 _atom_site_hle17_bader_spin_density
 _atom_site_hle17_ddec_charge
 _atom_site_hle17_ddec_spin_density
 _atom_site_hle17_ddec_sum_bond_order
 _atom_site_hle17_magmom
 _atom_site_hse06_10hf_bader_spin_density
 _atom_site_hse06_10hf_ddec_charge
 _atom_site_hse06_10hf_ddec_spin_density
 _atom_site_hse06_10hf_ddec_sum_bond_order
 _atom_site_hse06_10hf_magmom
 _atom_site_hse06_bader_spin_density
 _atom_site_hse06_ddec_charge
 _atom_site_hse06_ddec_spin_density
 _atom_site_hse06_ddec_sum_bond_order
 _atom_site_hse06_magmom
 _atom_site_pbe_bader_spin_density
 _atom_site_pbe_cm5_charge
 _atom_site_pbe_ddec_charge
 _atom_site_pbe_ddec_spin_density
 _atom_site_pbe_ddec_sum_bond_order
 _atom_site_pbe_magmom
Na  Na0  1  0.02754978  0.68978545  0.81704107  1  0  0.907169  0  0.370145  0  0  0.858697  0  0.524004  0  0  0.870315  0  0.502116  0  0  0.691822  0.850063  0  0.539763  0
Na  Na1  1  0.97241047  0.81026613  0.31705732  1  0  0.907231  0  0.370054  0  0  0.858693  0  0.523963  0  0  0.870314  0  0.502079  0  0  0.691844  0.850065  0  0.539722  0
Na  Na2  1  0.97247437  0.31023051  0.18294592  1  0  0.907185  0  0.370138  0  0  0.858677  0  0.524051  0  0  0.870302  0  0.502157  0  0  0.691814  0.850035  0  0.539813  0
Na  Na3  1  0.02757733  0.18968925  0.68296708  1  0  0.907232  0  0.370045  0  0  0.858711  0  0.523872  0  0  0.870332  0  0.501987  0  0  0.691744  0.850077  0  0.539627  0
Zn  Zn4  1  0.22707404  0.29099354  0.90091449  1  0  1.157405  0  1.73602  0  0  1.002499  0  2.184281  0  0  1.049936  0  2.12536  0  0  0.686452  0.96891  0  2.224968  0
Zn  Zn5  1  0.77293640  0.20905429  0.40091535  1  0  1.157455  0  1.735855  0  0  1.002553  0  2.184176  0  0  1.049991  0  2.125252  0  0  0.686496  0.968971  0  2.224869  0
Zn  Zn6  1  0.77293654  0.70907728  0.09909378  1  0  1.157392  0  1.736252  0  0  1.002437  0  2.184623  0  0  1.049877  0  2.125702  0  0  0.686503  0.968853  0  2.22531  0
Zn  Zn7  1  0.22705170  0.79088665  0.59907938  1  0  1.15742  0  1.736168  0  0  1.00242  0  2.184628  0  0  1.049863  0  2.125701  0  0  0.68644  0.968834  0  2.225322  0
H  H8  1  0.33110513  0.63741980  0.97478455  1  0  0.446226  0  0.842612  0  0  0.416347  0  0.902753  0  0  0.427192  0  0.887058  0  0  0.30337  0.40864  0  0.9139  0
H  H9  1  0.66883802  0.86258533  0.47477322  1  0  0.446091  0  0.842897  0  0  0.416263  0  0.902948  0  0  0.427109  0  0.887251  0  0  0.303369  0.408553  0  0.9141  0
H  H10  1  0.66894009  0.36264810  0.02522243  1  0  0.44617  0  0.842769  0  0  0.416305  0  0.902862  0  0  0.427142  0  0.887184  0  0  0.303385  0.408599  0  0.914009  0
H  H11  1  0.33116001  0.13737870  0.52522732  1  0  0.44612  0  0.842842  0  0  0.416335  0  0.902841  0  0  0.427182  0  0.887141  0  0  0.303361  0.408629  0  0.913989  0
H  H12  1  0.45190501  0.64327314  0.87978088  1  0  0.431809  0  0.869788  0  0  0.399073  0  0.935827  0  0  0.411027  0  0.918627  0  0  0.296925  0.390603  0  0.947987  0
H  H13  1  0.54804602  0.85681824  0.37977302  1  0  0.43167  0  0.870014  0  0  0.399062  0  0.935907  0  0  0.411018  0  0.918701  0  0  0.296936  0.390573  0  0.948088  0
H  H14  1  0.54813808  0.35680053  0.12022416  1  0  0.431847  0  0.86976  0  0  0.399075  0  0.935849  0  0  0.411027  0  0.918642  0  0  0.296933  0.390606  0  0.948013  0
H  H15  1  0.45191904  0.14314871  0.62023589  1  0  0.43173  0  0.869934  0  0  0.39908  0  0.935898  0  0  0.411032  0  0.918696  0  0  0.296917  0.390607  0  0.948065  0
C  C16  1  0.70116832  0.28698104  0.84971905  1  0  0.571469  0  3.894457  0  0  0.523031  0  4.194554  0  0  0.553361  0  4.186107  0  0  0.219819  0.502299  0  4.19987  0
C  C17  1  0.29883817  0.21301611  0.34970628  1  0  0.571369  0  3.89477  0  0  0.523053  0  4.194779  0  0  0.553379  0  4.186344  0  0  0.219839  0.502335  0  4.200088  0
C  C18  1  0.29883398  0.71300319  0.15029632  1  0  0.571551  0  3.894679  0  0  0.523173  0  4.194674  0  0  0.553496  0  4.186227  0  0  0.219811  0.502454  0  4.199978  0
C  C19  1  0.70114244  0.78689742  0.65026524  1  0  0.571064  0  3.895034  0  0  0.522881  0  4.19479  0  0  0.553208  0  4.186351  0  0  0.219798  0.502187  0  4.200048  0
C  C20  1  0.54878252  0.24910407  0.76769842  1  0  0.565475  0  3.891333  0  0  0.521343  0  4.186252  0  0  0.550173  0  4.179797  0  0  0.218942  0.50173  0  4.190142  0
C  C21  1  0.45126003  0.25089453  0.26768065  1  0  0.565837  0  3.890789  0  0  0.521522  0  4.186003  0  0  0.550355  0  4.179544  0  0  0.218931  0.501886  0  4.189928  0
C  C22  1  0.45121218  0.75093935  0.23231759  1  0  0.564978  0  3.891768  0  0  0.520806  0  4.186775  0  0  0.549638  0  4.180307  0  0  0.218753  0.501177  0  4.190699  0
C  C23  1  0.54878473  0.74914740  0.73230505  1  0  0.565458  0  3.89141  0  0  0.521201  0  4.186432  0  0  0.550029  0  4.179997  0  0  0.218909  0.501562  0  4.19033  0
C  C24  1  0.00555279  0.07261756  0.03748916  1  0  0.53987  0  3.928127  0  0  0.497225  0  4.216569  0  0  0.526584  0  4.210234  0  0  0.200924  0.477252  0  4.220307  0
C  C25  1  0.99438221  0.42737095  0.53751422  1  0  0.540012  0  3.927707  0  0  0.49729  0  4.216326  0  0  0.526645  0  4.209995  0  0  0.200892  0.477311  0  4.220061  0
C  C26  1  0.99442618  0.92740711  0.96249460  1  0  0.539533  0  3.928123  0  0  0.496882  0  4.216597  0  0  0.526234  0  4.210279  0  0  0.200822  0.476907  0  4.220329  0
C  C27  1  0.00559414  0.57257001  0.46249986  1  0  0.539695  0  3.928243  0  0  0.497067  0  4.216707  0  0  0.526421  0  4.210385  0  0  0.20099  0.477098  0  4.220438  0
O  O28  1  0.11393583  0.24279422  0.02545403  1  0  -0.590177  0  2.058088  0  0  -0.529801  0  2.310789  0  0  -0.554883  0  2.297833  0  0  -0.31491  -0.512456  0  2.319299  0
O  O29  1  0.88613690  0.25715896  0.52545424  1  0  -0.590179  0  2.057577  0  0  -0.529847  0  2.310403  0  0  -0.554921  0  2.297442  0  0  -0.314967  -0.512507  0  2.318923  0
O  O30  1  0.88608053  0.75722464  0.97453876  1  0  -0.589874  0  2.057966  0  0  -0.529463  0  2.310612  0  0  -0.554548  0  2.297676  0  0  -0.314752  -0.512121  0  2.319116  0
O  O31  1  0.11385821  0.74276754  0.47454758  1  0  -0.589908  0  2.058284  0  0  -0.529502  0  2.310967  0  0  -0.554577  0  2.298018  0  0  -0.314788  -0.512163  0  2.31948  0
O  O32  1  0.90474000  0.01270597  0.10666539  1  0  -0.62006  0  2.081295  0  0  -0.567853  0  2.333997  0  0  -0.592098  0  2.322523  0  0  -0.34423  -0.551034  0  2.341434  0
O  O33  1  0.09523556  0.48723445  0.60668203  1  0  -0.620184  0  2.081124  0  0  -0.567888  0  2.333763  0  0  -0.592135  0  2.322293  0  0  -0.344134  -0.551083  0  2.341237  0
O  O34  1  0.09522661  0.98731583  0.89331257  1  0  -0.620171  0  2.081124  0  0  -0.567949  0  2.333729  0  0  -0.592209  0  2.322281  0  0  -0.344275  -0.551131  0  2.341166  0
O  O35  1  0.90468126  0.51271091  0.39333849  1  0  -0.620276  0  2.081219  0  0  -0.568044  0  2.333868  0  0  -0.592295  0  2.322402  0  0  -0.344365  -0.55123  0  2.341313  0
O  O36  1  0.31208533  0.58827052  0.91455359  1  0  -0.87608  0  1.928109  0  0  -0.813947  0  2.146176  0  0  -0.836061  0  2.107763  0  0  -0.605758  -0.798316  0  2.172871  0
O  O37  1  0.68785642  0.91178815  0.41454993  1  0  -0.87594  0  1.92857  0  0  -0.813815  0  2.146143  0  0  -0.835986  0  2.107838  0  0  -0.605754  -0.798137  0  2.172841  0
O  O38  1  0.68795486  0.41181327  0.08545016  1  0  -0.876167  0  1.928465  0  0  -0.81387  0  2.146454  0  0  -0.836059  0  2.108218  0  0  -0.605778  -0.798217  0  2.173094  0
O  O39  1  0.31213244  0.08816434  0.58544867  1  0  -0.876051  0  1.92862  0  0  -0.813911  0  2.146111  0  0  -0.836106  0  2.107855  0  0  -0.605701  -0.798248  0  2.172753  0
O  O40  1  0.63914582  0.20494155  0.69888044  1  0  -0.61885  0  2.031435  0  0  -0.571882  0  2.259599  0  0  -0.595039  0  2.250532  0  0  -0.351558  -0.555809  0  2.265501  0
O  O41  1  0.36088111  0.29500113  0.19885497  1  0  -0.619063  0  2.031217  0  0  -0.571961  0  2.259445  0  0  -0.595117  0  2.25038  0  0  -0.351593  -0.555886  0  2.265366  0
O  O42  1  0.36082826  0.79507591  0.30112977  1  0  -0.618571  0  2.031912  0  0  -0.571589  0  2.260086  0  0  -0.594747  0  2.251026  0  0  -0.351448  -0.555508  0  2.265996  0
O  O43  1  0.63914532  0.70501772  0.80112880  1  0  -0.618828  0  2.031367  0  0  -0.571792  0  2.259567  0  0  -0.594959  0  2.250513  0  0  -0.351629  -0.555718  0  2.265488  0
O  O44  1  0.91428444  0.32893210  0.83657837  1  0  -0.672058  0  2.106211  0  0  -0.61896  0  2.378083  0  0  -0.642718  0  2.36297  0  0  -0.353421  -0.602313  0  2.38793  0
O  O45  1  0.08575249  0.17107767  0.33658108  1  0  -0.67195  0  2.106881  0  0  -0.618884  0  2.378739  0  0  -0.642613  0  2.363587  0  0  -0.353434  -0.602245  0  2.388587  0
O  O46  1  0.08572948  0.67109109  0.16342345  1  0  -0.671902  0  2.106624  0  0  -0.618815  0  2.378451  0  0  -0.642564  0  2.363355  0  0  -0.353367  -0.602179  0  2.388299  0
O  O47  1  0.91425043  0.82889357  0.66339623  1  0  -0.671918  0  2.10655  0  0  -0.618897  0  2.378282  0  0  -0.642653  0  2.363187  0  0  -0.353575  -0.602264  0  2.388117  0
O  O48  1  0.59779040  0.27442286  0.92160661  1  0  -0.598514  0  2.040789  0  0  -0.533872  0  2.271856  0  0  -0.559923  0  2.26027  0  0  -0.286894  -0.515779  0  2.279478  0
O  O49  1  0.40223474  0.22562961  0.42159482  1  0  -0.598695  0  2.040523  0  0  -0.534081  0  2.271526  0  0  -0.560141  0  2.259941  0  0  -0.28694  -0.515983  0  2.27914  0
O  O50  1  0.40224931  0.72560319  0.07841005  1  0  -0.598716  0  2.040609  0  0  -0.534044  0  2.271646  0  0  -0.560095  0  2.260051  0  0  -0.286914  -0.515944  0  2.279257  0
O  O51  1  0.59771565  0.77426808  0.57838701  1  0  -0.598385  0  2.040883  0  0  -0.53379  0  2.271792  0  0  -0.559846  0  2.260206  0  0  -0.286797  -0.515704  0  2.279395  0
O  O52  1  0.34044415  0.26570125  0.77629655  1  0  -0.643517  0  2.099862  0  0  -0.581821  0  2.362822  0  0  -0.607724  0  2.349763  0  0  -0.361402  -0.563714  0  2.371235  0
O  O53  1  0.65961780  0.23438370  0.27628419  1  0  -0.643599  0  2.099565  0  0  -0.581948  0  2.362773  0  0  -0.607846  0  2.3497  0  0  -0.361493  -0.563837  0  2.371205  0
O  O54  1  0.65957193  0.73437968  0.22372140  1  0  -0.643374  0  2.099541  0  0  -0.58169  0  2.362547  0  0  -0.607632  0  2.349579  0  0  -0.361457  -0.563585  0  2.370983  0
O  O55  1  0.34040680  0.76562649  0.72371054  1  0  -0.643457  0  2.09968  0  0  -0.581785  0  2.362691  0  0  -0.607684  0  2.349634  0  0  -0.361406  -0.563703  0  2.371185  0
