# generated using pymatgen
data_Cd3H44C75(N4O9)2
_symmetry_space_group_name_H-M   'P 1'
_cell_length_a   10.21539445
_cell_length_b   16.02193020
_cell_length_c   23.71146026
_cell_angle_alpha   105.06536653
_cell_angle_beta   91.66527245
_cell_angle_gamma   90.59821322
_symmetry_Int_Tables_number   1
_chemical_formula_structural   Cd3H44C75(N4O9)2
_chemical_formula_sum   'Cd6 H88 C150 N16 O36'
_cell_volume   3745.24343687
_cell_formula_units_Z   2
loop_
 _symmetry_equiv_pos_site_id
 _symmetry_equiv_pos_as_xyz
  1  'x, y, z'
loop_
 _atom_site_type_symbol
 _atom_site_label
 _atom_site_symmetry_multiplicity
 _atom_site_fract_x
 _atom_site_fract_y
 _atom_site_fract_z
 _atom_site_occupancy
 _atom_site_pbe_bader_charge
 _atom_site_pbe_bader_spin_density
 _atom_site_pbe_cm5_charge
 _atom_site_pbe_ddec_charge
 _atom_site_pbe_ddec_spin_density
 _atom_site_pbe_ddec_sum_bond_order
 _atom_site_pbe_magmom
Cd  Cd0  1  0.85836014  0.00006852  0.12631435  1  1.250135  0  0.779668  0.792637  0  2.274525  0
Cd  Cd1  1  0.14164276  0.99993132  0.87368399  1  1.250048  0  0.779659  0.792682  0  2.27449  0
Cd  Cd2  1  0.82326939  0.67749274  0.40393412  1  1.273115  0  0.76566  0.874101  0  2.205925  0
Cd  Cd3  1  0.17672560  0.32250517  0.59606503  1  1.273145  0  0.765659  0.874096  0  2.205909  0
Cd  Cd4  1  0.53255271  0.54821382  0.29845367  1  1.279382  0  0.770504  0.882397  0  2.151705  0
Cd  Cd5  1  0.46744919  0.45178537  0.70154539  1  1.279395  0  0.770523  0.882426  0  2.151704  0
H  H6  1  0.76595105  0.55173599  0.74187060  1  0.650312  0  0.298221  0.358659  0  0.98737  0
H  H7  1  0.23404897  0.44826579  0.25812889  1  0.650312  0  0.29821  0.358635  0  0.987395  0
H  H8  1  0.97951045  0.91162988  0.22723138  1  0.152511  0  0.117175  0.095747  0  1.013259  0
H  H9  1  0.02049242  0.08836931  0.77276811  1  0.15257  0  0.117171  0.095727  0  1.013269  0
H  H10  1  0.90316302  0.81969428  0.29293477  1  0.145033  0  0.109251  0.129147  0  1.025813  0
H  H11  1  0.09683788  0.18030427  0.70706374  1  0.145055  0  0.109225  0.129085  0  1.025794  0
H  H12  1  0.67167772  0.76645401  0.28231523  1  0.094924  0  0.112438  0.118785  0  0.998704  0
H  H13  1  0.32832223  0.23354583  0.71768349  1  0.095454  0  0.11244  0.118764  0  0.998707  0
H  H14  1  0.29760294  0.81485733  0.16732430  1  0.119728  0  0.107911  0.120709  0  1.020935  0
H  H15  1  0.70239709  0.18514510  0.83267614  1  0.119722  0  0.10792  0.120691  0  1.020985  0
H  H16  1  0.45068281  0.75875470  0.23205292  1  0.123601  0  0.10719  0.122868  0  1.0266  0
H  H17  1  0.54931820  0.24124773  0.76794754  1  0.123684  0  0.107164  0.122853  0  1.026616  0
H  H18  1  0.25680052  0.91347422  0.10383311  1  0.118913  0  0.11642  0.127683  0  0.989312  0
H  H19  1  0.74320149  0.08652885  0.89616747  1  0.118906  0  0.116398  0.127648  0  0.989331  0
H  H20  1  0.34928051  0.01359238  0.04781206  1  0.068762  0  0.103068  0.105736  0  1.037186  0
H  H21  1  0.65072049  0.98640940  0.95218744  1  0.068717  0  0.103053  0.105709  0  1.037266  0
H  H22  1  0.59012020  0.04735766  0.05716780  1  0.077315  0  0.109492  0.071745  0  1.022232  0
H  H23  1  0.40988373  0.95264411  0.94283216  1  0.077207  0  0.109447  0.071725  0  1.0223  0
H  H24  1  0.80907102  0.69918268  0.93701904  1  0.12815  0  0.111946  0.121696  0  0.995189  0
H  H25  1  0.19092707  0.30081975  0.06298053  1  0.128078  0  0.111923  0.121652  0  0.995184  0
H  H26  1  0.88823587  0.96162240  0.93295065  1  0.07845  0  0.105913  0.108476  0  1.036914  0
H  H27  1  0.11175829  0.03838004  0.06704886  1  0.078534  0  0.105938  0.108467  0  1.036939  0
H  H28  1  0.80980381  0.76698145  0.77266346  1  0.129797  0  0.104222  0.105727  0  1.028944  0
H  H29  1  0.19019912  0.23301968  0.22733637  1  0.129798  0  0.104233  0.105726  0  1.029003  0
H  H30  1  0.84378733  0.06401083  0.27167299  1  0.114295  0  0.120753  0.089187  0  0.98876  0
H  H31  1  0.15622137  0.93598706  0.72832636  1  0.114247  0  0.120754  0.089204  0  0.98871  0
H  H32  1  0.86355856  0.19799425  0.35436085  1  0.057648  0  0.110686  0.114883  0  0.987953  0
H  H33  1  0.13644916  0.80200363  0.64563849  1  0.058095  0  0.110718  0.114899  0  0.988018  0
H  H34  1  0.88027567  0.34207572  0.33063982  1  0.063973  0  0.106479  0.10055  0  1.028548  0
H  H35  1  0.11972420  0.65792218  0.66936025  1  0.063954  0  0.106505  0.100626  0  1.028477  0
H  H36  1  0.88466689  0.42537469  0.25581405  1  0.077604  0  0.10536  0.115812  0  1.022385  0
H  H37  1  0.11533206  0.57462451  0.74418581  1  0.077605  0  0.105351  0.115805  0  1.022372  0
H  H38  1  0.87653031  0.42764923  0.15168405  1  0.09315  0  0.112275  0.118061  0  0.985016  0
H  H39  1  0.12347061  0.57235062  0.84831637  1  0.092987  0  0.112269  0.118075  0  0.985028  0
H  H40  1  0.85555176  0.34700541  0.04575312  1  0.110104  0  0.121358  0.124081  0  0.956837  0
H  H41  1  0.14444622  0.65299444  0.95424726  1  0.110066  0  0.121335  0.124033  0  0.956817  0
H  H42  1  0.83699778  0.20617499  0.97033634  1  0.181912  0  0.110971  0.130684  0  1.033927  0
H  H43  1  0.16299538  0.79382681  0.02966347  1  0.181723  0  0.110949  0.130649  0  1.033996  0
H  H44  1  0.82943618  0.06839273  0.00429133  1  0.116752  0  0.114748  0.085227  0  1.031443  0
H  H45  1  0.17055599  0.93160843  0.99570750  1  0.116921  0  0.114734  0.085223  0  1.031427  0
H  H46  1  0.20986670  0.01444349  0.26660431  1  0.649341  0  0.291854  0.358874  0  0.994256  0
H  H47  1  0.79013219  0.98555441  0.73339574  1  0.649444  0  0.2919  0.358874  0  0.994231  0
H  H48  1  0.87967915  0.76043280  0.07914089  1  0.668336  0  0.301755  0.377559  0  0.964254  0
H  H49  1  0.12031984  0.23956770  0.92085877  1  0.668347  0  0.301759  0.377561  0  0.964238  0
H  H50  1  0.10885870  0.87165416  0.34040115  1  0.153708  0  0.108508  0.114476  0  1.018264  0
H  H51  1  0.89113739  0.12834958  0.65960452  1  0.153725  0  0.108478  0.114476  0  1.018357  0
H  H52  1  0.81294900  0.86755175  0.50446125  1  0.1009  0  0.12806  0.101423  0  0.957513  0
H  H53  1  0.18705288  0.13244679  0.49553685  1  0.10099  0  0.128059  0.101453  0  0.957436  0
H  H54  1  0.82016300  0.92606433  0.61419898  1  0.108606  0  0.111421  0.12154  0  1.016386  0
H  H55  1  0.17983795  0.07393551  0.38579933  1  0.108603  0  0.11141  0.121585  0  1.016337  0
H  H56  1  0.82394406  0.82265147  0.67662541  1  0.107411  0  0.111262  0.123223  0  1.018049  0
H  H57  1  0.17605790  0.17734966  0.32337356  1  0.107372  0  0.111273  0.123226  0  1.01807  0
H  H58  1  0.82684733  0.51077818  0.63219149  1  0.131769  0  0.112169  0.132887  0  1.00122  0
H  H59  1  0.17315264  0.48922231  0.36780819  1  0.131756  0  0.11215  0.132887  0  1.001216  0
H  H60  1  0.82586281  0.66652676  0.68237950  1  0.088561  0  0.105526  0.118789  0  1.030794  0
H  H61  1  0.17413518  0.33347309  0.31761962  1  0.088723  0  0.105518  0.118781  0  1.030843  0
H  H62  1  0.84182074  0.39347268  0.53981221  1  0.196861  0  0.112571  0.138419  0  1.037384  0
H  H63  1  0.15817722  0.60652653  0.46018806  1  0.196862  0  0.112565  0.138419  0  1.037418  0
H  H64  1  0.84184798  0.35100748  0.43015784  1  0.095424  0  0.106733  0.110626  0  1.000993  0
H  H65  1  0.15815388  0.64899107  0.56984237  1  0.095451  0  0.10673  0.110588  0  1.001011  0
H  H66  1  0.82899985  0.46898095  0.37665980  1  0.094325  0  0.115099  0.08947  0  1.022607  0
H  H67  1  0.17099809  0.53101761  0.62334035  1  0.09432  0  0.115066  0.089424  0  1.022667  0
H  H68  1  0.53047541  0.87774622  0.35175121  1  0.151153  0  0.109097  0.113524  0  1.014124  0
H  H69  1  0.46952142  0.12224846  0.64824784  1  0.151145  0  0.109066  0.11346  0  1.014131  0
H  H70  1  0.31263467  0.68064188  0.40478489  1  0.092025  0  0.103861  0.108333  0  1.016131  0
H  H71  1  0.68735927  0.31935345  0.59521295  1  0.091939  0  0.103817  0.108331  0  1.016216  0
H  H72  1  0.52366917  0.52234558  0.43096681  1  0.135809  0  0.11553  0.088153  0  1.012474  0
H  H73  1  0.47632881  0.47765427  0.56903357  1  0.135806  0  0.115551  0.088162  0  1.012485  0
H  H74  1  0.50193283  0.40319466  0.48275452  1  0.043974  0  0.107709  0.113941  0  1.010243  0
H  H75  1  0.49806318  0.59680520  0.51724667  1  0.04403  0  0.107667  0.11387  0  1.010229  0
H  H76  1  0.49007085  0.24976563  0.42274553  1  0.087088  0  0.117965  0.122648  0  0.962017  0
H  H77  1  0.50992712  0.75023422  0.57725612  1  0.087061  0  0.117982  0.122666  0  0.962067  0
H  H78  1  0.50498827  0.17702912  0.12786727  1  0.102466  0  0.108526  0.107355  0  1.002691  0
H  H79  1  0.49501164  0.82297008  0.87213345  1  0.102473  0  0.108523  0.107358  0  1.002699  0
H  H80  1  0.52580795  0.30589039  0.08678839  1  0.06579  0  0.11836  0.126389  0  0.966806  0
H  H81  1  0.47418901  0.69410817  0.91321218  1  0.065794  0  0.118337  0.126375  0  0.96681  0
H  H82  1  0.54359484  0.45402223  0.15640975  1  0.126237  0  0.131237  0.106494  0  0.950818  0
H  H83  1  0.45640408  0.54597632  0.84359042  1  0.12623  0  0.131227  0.10646  0  0.950768  0
H  H84  1  0.04770778  0.55997964  0.30004439  1  0.117818  0  0.105779  0.10721  0  1.027059  0
H  H85  1  0.95229618  0.44002343  0.69995664  1  0.117828  0  0.105764  0.107189  0  1.027064  0
H  H86  1  0.23573620  0.67353979  0.17697500  1  0.145925  0  0.115123  0.119238  0  1.000076  0
H  H87  1  0.76426583  0.32646393  0.82302612  1  0.14598  0  0.115108  0.119185  0  1.000104  0
H  H88  1  0.81463160  0.65310551  0.17626871  1  0.137992  0  0.111543  0.121316  0  1.011302  0
H  H89  1  0.18537127  0.34689367  0.82373036  1  0.13798  0  0.111528  0.121335  0  1.011333  0
H  H90  1  0.48804150  0.11835028  0.21624988  1  0.082629  0  0.110819  0.120953  0  0.985559  0
H  H91  1  0.51195743  0.88164892  0.78375167  1  0.082601  0  0.110799  0.12092  0  0.985622  0
H  H92  1  0.48152648  0.14380495  0.32245360  1  0.120984  0  0.109576  0.129167  0  1.015565  0
H  H93  1  0.51847051  0.85619490  0.67754803  1  0.121036  0  0.109553  0.129168  0  1.015585  0
C  C94  1  0.87769268  0.88954151  0.22612287  1  0.508386  0  0.052899  0.097239  0  3.938031  0
C  C95  1  0.12231021  0.11045833  0.77387674  1  0.508384  0  0.052908  0.097292  0  3.938045  0
C  C96  1  0.83542550  0.83753753  0.26179266  1  -0.066799  0  -0.078201  -0.120296  0  3.944206  0
C  C97  1  0.16457734  0.16246102  0.73820672  1  -0.066821  0  -0.078201  -0.120294  0  3.944282  0
C  C98  1  0.70657909  0.80838200  0.25619318  1  -0.002898  0  -0.051823  -0.04806  0  3.876177  0
C  C99  1  0.29342089  0.19161849  0.74380608  1  -0.00347  0  -0.051788  -0.047943  0  3.876193  0
C  C100  1  0.61912408  0.83311479  0.21647764  1  -0.002994  0  0.007188  0.054262  0  3.975191  0
C  C101  1  0.38087789  0.16688699  0.78352230  1  -0.002943  0  0.007244  0.054233  0  3.975076  0
C  C102  1  0.66901361  0.88905715  0.18415675  1  0.491323  0  0.121068  0.128356  0  3.953494  0
C  C103  1  0.33098835  0.11094463  0.81584403  1  0.491603  0  0.120955  0.128297  0  3.953671  0
C  C104  1  0.58033535  0.92022982  0.14578991  1  0.460636  0  0.122449  0.131355  0  3.949127  0
C  C105  1  0.41966666  0.07977325  0.85421067  1  0.460291  0  0.122415  0.13128  0  3.94933  0
C  C106  1  0.44562217  0.89464967  0.14176672  1  0.012325  0  0.00612  0.059932  0  3.973786  0
C  C107  1  0.55437790  0.10535405  0.85823436  1  0.012528  0  0.006144  0.059927  0  3.973773  0
C  C108  1  0.40042045  0.83541415  0.17323486  1  0.002637  0  -0.079135  -0.113983  0  3.944661  0
C  C109  1  0.59958058  0.16458892  0.82676528  1  0.002442  0  -0.079086  -0.113796  0  3.944618  0
C  C110  1  0.48450288  0.80508074  0.20881855  1  -0.045809  0  -0.074287  -0.102526  0  3.935084  0
C  C111  1  0.51550012  0.19492233  0.79118162  1  -0.045877  0  -0.074346  -0.102638  0  3.935153  0
C  C112  1  0.36120237  0.92954746  0.10589659  1  -0.017689  0  -0.057176  -0.060976  0  3.886543  0
C  C113  1  0.63879964  0.07045561  0.89410399  1  -0.017963  0  -0.057186  -0.060996  0  3.886618  0
C  C114  1  0.41170612  0.98471993  0.07532631  1  -0.007291  0  -0.093998  -0.150254  0  4.016363  0
C  C115  1  0.58829782  0.01528250  0.92467461  1  -0.006898  0  -0.093949  -0.150173  0  4.016402  0
C  C116  1  0.54635336  0.00465260  0.08091334  1  0.455941  0  0.043011  0.086748  0  3.998234  0
C  C117  1  0.45364864  0.99534983  0.91908670  1  0.455868  0  0.043072  0.086785  0  3.998329  0
C  C118  1  0.85377348  0.86132919  0.00784331  1  1.636696  0  0.201248  0.573328  0  4.238974  0
C  C119  1  0.14622359  0.13867260  0.99215697  1  1.63682  0  0.201216  0.573249  0  4.239169  0
C  C120  1  0.84478280  0.83401678  0.94200006  1  -0.00263  0  -0.023265  -0.045907  0  3.977589  0
C  C121  1  0.15521325  0.16598371  0.05799956  1  -0.002464  0  -0.023304  -0.046021  0  3.977714  0
C  C122  1  0.82051716  0.74743747  0.91244231  1  -0.098853  0  -0.068546  -0.090123  0  3.913763  0
C  C123  1  0.17947991  0.25256432  0.08755798  1  -0.098816  0  -0.068507  -0.090033  0  3.913584  0
C  C124  1  0.81214696  0.72241389  0.85127475  1  -0.043004  0  -0.024835  -0.060562  0  4.014908  0
C  C125  1  0.18785108  0.27758725  0.14872501  1  -0.043197  0  -0.024864  -0.060572  0  4.014632  0
C  C126  1  0.78971916  0.62943688  0.82045514  1  1.551697  0  0.216879  0.565675  0  4.154951  0
C  C127  1  0.21027986  0.37056491  0.17954601  1  1.551907  0  0.216865  0.565673  0  4.154816  0
C  C128  1  0.85987876  0.93749147  0.81470005  1  1.586318  0  0.204171  0.569789  0  4.229077  0
C  C129  1  0.14012119  0.06250837  0.18529952  1  1.586379  0  0.204141  0.569676  0  4.229256  0
C  C130  1  0.86225785  0.89513373  0.90994092  1  -0.051385  0  -0.079644  -0.110296  0  3.959763  0
C  C131  1  0.13773724  0.10486742  0.09005965  1  -0.051535  0  -0.079621  -0.110209  0  3.959839  0
C  C132  1  0.82180235  0.78497716  0.81998804  1  -0.038581  0  -0.078598  -0.099172  0  3.944438  0
C  C133  1  0.17819760  0.21502268  0.18001195  1  -0.038582  0  -0.078611  -0.099208  0  3.944502  0
C  C134  1  0.84752560  0.87140875  0.84909737  1  -0.022821  0  -0.02842  -0.060714  0  4.02124  0
C  C135  1  0.15247340  0.12859239  0.15090325  1  -0.022842  0  -0.02843  -0.060704  0  4.021333  0
C  C136  1  0.84922052  0.12768715  0.26318704  1  0.545103  0  0.061229  0.119225  0  3.938673  0
C  C137  1  0.15078916  0.87231074  0.73681232  1  0.545085  0  0.061287  0.119259  0  3.938618  0
C  C138  1  0.86039385  0.20310568  0.30941421  1  -0.077461  0  -0.083341  -0.131073  0  3.999901  0
C  C139  1  0.13961387  0.79689220  0.69058513  1  -0.077812  0  -0.083472  -0.131201  0  3.999963  0
C  C140  1  0.86893846  0.28206928  0.29631016  1  -0.043423  0  -0.063596  -0.07414  0  3.934635  0
C  C141  1  0.13106634  0.71792926  0.70368967  1  -0.043441  0  -0.063561  -0.074133  0  3.934533  0
C  C142  1  0.86475972  0.28582507  0.23747665  1  0.015349  0  -0.000306  0.048473  0  3.99799  0
C  C143  1  0.13524605  0.71417347  0.76252361  1  0.015502  0  -0.000326  0.048471  0  3.99809  0
C  C144  1  0.85192875  0.20619306  0.19371321  1  0.527769  0  0.11856  0.122714  0  3.975064  0
C  C145  1  0.14807999  0.79380612  0.80628637  1  0.5276  0  0.118604  0.122582  0  3.975354  0
C  C146  1  0.87396981  0.36554263  0.22121426  1  0.01696  0  -0.081924  -0.108608  0  3.953485  0
C  C147  1  0.12603308  0.63445786  0.77878631  1  0.016865  0  -0.081923  -0.108586  0  3.953464  0
C  C148  1  0.86898256  0.36663091  0.16382777  1  -0.06557  0  -0.077637  -0.108934  0  3.9662  0
C  C149  1  0.13101931  0.63336828  0.83617255  1  -0.065486  0  -0.077617  -0.108994  0  3.966125  0
C  C150  1  0.85451256  0.28807369  0.11841426  1  -0.014247  0  8.6e-05  0.03767  0  4.025577  0
C  C151  1  0.14549131  0.71192614  0.88158537  1  -0.014225  0  7e-05  0.037751  0  4.025631  0
C  C152  1  0.84672127  0.20737736  0.13288826  1  0.517896  0  0.116451  0.116846  0  3.982014  0
C  C153  1  0.15328451  0.79262118  0.86711074  1  0.517888  0  0.116429  0.116833  0  3.982159  0
C  C154  1  0.84873124  0.28644143  0.05854649  1  -0.036468  0  -0.054525  -0.063307  0  3.908931  0
C  C155  1  0.15126875  0.71355970  0.94145330  1  -0.036395  0  -0.05446  -0.063216  0  3.908878  0
C  C156  1  0.83701137  0.20832717  0.01669429  1  -0.094657  0  -0.080149  -0.126063  0  3.951899  0
C  C157  1  0.16298470  0.79167397  0.98330545  1  -0.094452  0  -0.080154  -0.12606  0  3.951949  0
C  C158  1  0.83215888  0.13190312  0.03531079  1  0.539192  0  0.05452  0.106203  0  3.939708  0
C  C159  1  0.16783818  0.86809802  0.96468854  1  0.539046  0  0.054572  0.106256  0  3.939623  0
C  C160  1  0.06898682  0.73704329  0.38703818  1  1.546943  0  0.187428  0.553167  0  4.248888  0
C  C161  1  0.93100622  0.26295593  0.61296413  1  1.547725  0  0.187414  0.553231  0  4.249074  0
C  C162  1  0.19740885  0.77525806  0.37672261  1  -0.007701  0  -0.020429  -0.035694  0  3.992492  0
C  C163  1  0.80258618  0.22474180  0.62327858  1  -0.007994  0  -0.020424  -0.035884  0  3.992754  0
C  C164  1  0.20055560  0.84582438  0.35232768  1  -0.092754  0  -0.069707  -0.087264  0  3.907582  0
C  C165  1  0.79943843  0.15417549  0.64767559  1  -0.092355  0  -0.069635  -0.087141  0  3.90767  0
C  C166  1  0.32009760  0.88259491  0.34292243  1  -0.057742  0  -0.020285  -0.052374  0  3.994384  0
C  C167  1  0.67989835  0.11740301  0.65707843  1  -0.057809  0  -0.02028  -0.052379  0  3.994531  0
C  C168  1  0.32387601  0.95554546  0.31422555  1  1.53803  0  0.217701  0.568229  0  4.18036  0
C  C169  1  0.67612093  0.04445310  0.68577586  1  1.538127  0  0.21765  0.568113  0  4.180618  0
C  C170  1  0.79501338  0.58425223  0.26775320  1  1.53309  0  0.199067  0.562144  0  4.214741  0
C  C171  1  0.20498951  0.41574761  0.73224557  1  1.533097  0  0.199007  0.562087  0  4.214848  0
C  C172  1  0.91819600  0.60421091  0.24085862  1  0.01948  0  -0.022355  -0.049047  0  3.994297  0
C  C173  1  0.08180599  0.39579152  0.75914184  1  0.019469  0  -0.022306  -0.048909  0  3.994141  0
C  C174  1  0.81752667  0.82442475  0.53332586  1  0.566897  0  0.061923  0.108436  0  3.948072  0
C  C175  1  0.18247430  0.17557573  0.46667257  1  0.566885  0  0.061908  0.108395  0  3.948109  0
C  C176  1  0.82070667  0.85668313  0.59448851  1  -0.094888  0  -0.08014  -0.122507  0  3.9632  0
C  C177  1  0.17929429  0.14331735  0.40551034  1  -0.094904  0  -0.080138  -0.122631  0  3.963139  0
C  C178  1  0.82402953  0.79908886  0.62904248  1  -0.056675  0  -0.062306  -0.077553  0  3.911731  0
C  C179  1  0.17597045  0.20091163  0.37095594  1  -0.056674  0  -0.062311  -0.077505  0  3.911766  0
C  C180  1  0.82550039  0.70927029  0.60222101  1  0.100321  0  -0.005029  0.033566  0  4.027994  0
C  C181  1  0.17450056  0.29073019  0.39777826  1  0.10022  0  -0.004991  0.033577  0  4.02817  0
C  C182  1  0.82323099  0.68277134  0.54009968  1  0.455783  0  0.114829  0.117976  0  3.984414  0
C  C183  1  0.17676896  0.31722850  0.45989947  1  0.455762  0  0.114915  0.118034  0  3.984637  0
C  C184  1  0.82490585  0.59147682  0.51086096  1  0.507677  0  0.116084  0.114798  0  3.983612  0
C  C185  1  0.17509604  0.40852237  0.48913810  1  0.507735  0  0.11605  0.114739  0  3.983717  0
C  C186  1  0.82860236  0.53022567  0.54476162  1  -0.01484  0  -0.002741  0.040606  0  4.009472  0
C  C187  1  0.17139953  0.46977353  0.45523786  1  -0.014879  0  -0.002727  0.04066  0  4.009453  0
C  C188  1  0.82802558  0.55921317  0.60723188  1  -0.058871  0  -0.081504  -0.11126  0  3.939714  0
C  C189  1  0.17197537  0.44078732  0.39276782  1  -0.058891  0  -0.081551  -0.111398  0  3.939733  0
C  C190  1  0.82701998  0.64548223  0.63482832  1  -0.033065  0  -0.087547  -0.128525  0  3.980986  0
C  C191  1  0.17298000  0.35451826  0.36517093  1  -0.033163  0  -0.087537  -0.128441  0  3.980946  0
C  C192  1  0.83455716  0.44179440  0.51472923  1  0.03981  0  -0.061637  -0.069814  0  3.876042  0
C  C193  1  0.16544476  0.55820609  0.48527090  1  0.03988  0  -0.061624  -0.069817  0  3.876073  0
C  C194  1  0.83618125  0.41864211  0.45436304  1  -0.149908  0  -0.088455  -0.136862  0  4.011732  0
C  C195  1  0.16382061  0.58135644  0.54563675  1  -0.149909  0  -0.088431  -0.136797  0  4.011752  0
C  C196  1  0.83003131  0.48331549  0.42423924  1  0.486003  0  0.051457  0.095463  0  3.966124  0
C  C197  1  0.16996959  0.51668370  0.57576022  1  0.486024  0  0.051489  0.095507  0  3.966173  0
C  C198  1  0.55959075  0.73140073  0.38845854  1  1.521043  0  0.196343  0.564424  0  4.208653  0
C  C199  1  0.44040028  0.26859590  0.61154075  1  1.52109  0  0.196375  0.564437  0  4.208594  0
C  C200  1  0.43476388  0.77473527  0.37957172  1  -0.063577  0  -0.021188  -0.041717  0  3.996088  0
C  C201  1  0.56523202  0.22526071  0.62042753  1  -0.063734  0  -0.021266  -0.041922  0  3.996189  0
C  C202  1  0.43732002  0.84850887  0.35833121  1  0.012963  0  -0.065327  -0.085423  0  3.905357  0
C  C203  1  0.56267590  0.15148775  0.64166858  1  0.012901  0  -0.065236  -0.085215  0  3.905286  0
C  C204  1  0.31480343  0.73864041  0.38901829  1  0.006823  0  -0.073376  -0.089812  0  3.925739  0
C  C205  1  0.68519053  0.26135622  0.61098147  1  0.007037  0  -0.073368  -0.089748  0  3.925889  0
C  C206  1  0.51798562  0.45427014  0.40701525  1  0.53943  0  0.054686  0.101585  0  3.963268  0
C  C207  1  0.48201136  0.54572906  0.59298542  1  0.539369  0  0.054663  0.101582  0  3.963002  0
C  C208  1  0.50594299  0.38773301  0.43536513  1  0.06832  0  -0.087026  -0.135738  0  4.00992  0
C  C209  1  0.49405402  0.61226749  0.56463620  1  0.068068  0  -0.086948  -0.135625  0  4.009756  0
C  C210  1  0.49985243  0.30294788  0.40216975  1  -0.143527  0  -0.060045  -0.072209  0  3.927482  0
C  C211  1  0.50014554  0.69705197  0.59783105  1  -0.143168  0  -0.060059  -0.072224  0  3.927624  0
C  C212  1  0.50483809  0.28451651  0.34062973  1  0.000442  0  -0.000679  0.042121  0  4.011334  0
C  C213  1  0.49515985  0.71548205  0.65937085  1  0.000406  0  -0.000696  0.042093  0  4.011357  0
C  C214  1  0.51791579  0.35611571  0.31584217  1  0.493006  0  0.119125  0.124288  0  3.956681  0
C  C215  1  0.48208310  0.64388219  0.68415831  1  0.493086  0  0.119101  0.124268  0  3.956867  0
C  C216  1  0.52216892  0.34056972  0.25311380  1  0.483492  0  0.117235  0.122467  0  3.978147  0
C  C217  1  0.47783097  0.65942883  0.74688680  1  0.483084  0  0.11728  0.122463  0  3.978271  0
C  C218  1  0.51260667  0.25418238  0.21759330  1  0.009441  0  0.000104  0.040932  0  4.000124  0
C  C219  1  0.48739321  0.74581618  0.78240815  1  0.009888  0  3.8e-05  0.04092  0  4.000122  0
C  C220  1  0.51426642  0.24237074  0.15642396  1  -0.055261  0  -0.060029  -0.064523  0  3.919315  0
C  C221  1  0.48573349  0.75762846  0.84357675  1  -0.055252  0  -0.06  -0.064537  0  3.919294  0
C  C222  1  0.52564555  0.31314907  0.13374979  1  0.018211  0  -0.075173  -0.119174  0  3.969488  0
C  C223  1  0.47435337  0.68684949  0.86625080  1  0.018159  0  -0.075162  -0.119145  0  3.969476  0
C  C224  1  0.53506933  0.39627258  0.17240624  1  0.495306  0  0.068285  0.122169  0  3.937008  0
C  C225  1  0.46492958  0.60372598  0.82759477  1  0.49525  0  0.068374  0.122282  0  3.936888  0
C  C226  1  0.28588011  0.59342128  0.26295947  1  1.544305  0  0.204044  0.56775  0  4.197065  0
C  C227  1  0.71412285  0.40658049  0.73703963  1  1.544491  0  0.204014  0.567879  0  4.19676  0
C  C228  1  0.15540278  0.61249045  0.23977072  1  0.022487  0  -0.013076  -0.029854  0  3.972068  0
C  C229  1  0.84460019  0.38751198  0.76022934  1  0.022489  0  -0.013079  -0.030027  0  3.972208  0
C  C230  1  0.04106684  0.58883438  0.26330187  1  -0.06294  0  -0.069931  -0.089016  0  3.912816  0
C  C231  1  0.95893706  0.41116675  0.73669882  1  -0.062999  0  -0.069938  -0.088966  0  3.912801  0
C  C232  1  0.14670241  0.65381144  0.19459387  1  -0.022965  0  -0.054368  -0.063098  0  3.865579  0
C  C233  1  0.85329961  0.34619163  0.80540629  1  -0.022931  0  -0.05437  -0.06302  0  3.865622  0
C  C234  1  0.02411253  0.66861762  0.17158370  1  -0.020241  0  -0.016978  -0.052145  0  3.986127  0
C  C235  1  0.97588948  0.33138546  0.82841731  1  -0.020265  0  -0.016877  -0.052016  0  3.986124  0
C  C236  1  0.91027212  0.64210239  0.19403025  1  -0.093633  0  -0.067128  -0.088309  0  3.918131  0
C  C237  1  0.08973182  0.35790003  0.80597066  1  -0.093639  0  -0.067183  -0.088459  0  3.918118  0
C  C238  1  0.01453536  0.71656356  0.12527808  1  1.53821  0  0.226742  0.576885  0  4.153844  0
C  C239  1  0.98546564  0.28343822  0.87472184  1  1.538209  0  0.22678  0.57701  0  4.153849  0
C  C240  1  0.49856481  0.18405785  0.24414059  1  0.02046  0  -0.073433  -0.09206  0  3.947068  0
C  C241  1  0.50143411  0.81594135  0.75586138  1  0.020276  0  -0.073364  -0.091998  0  3.947045  0
C  C242  1  0.49492294  0.19842830  0.30346378  1  -0.015657  0  -0.080746  -0.122456  0  3.955717  0
C  C243  1  0.50507502  0.80157090  0.69653691  1  -0.015629  0  -0.0807  -0.122419  0  3.955651  0
N  N244  1  0.84543510  0.12925562  0.20738869  1  -1.227588  0  -0.318324  -0.274805  0  3.493955  0
N  N245  1  0.15457362  0.87074291  0.79261078  1  -1.227481  0  -0.318351  -0.274731  0  3.494088  0
N  N246  1  0.83630588  0.13124644  0.09140811  1  -1.243478  0  -0.319492  -0.273511  0  3.478268  0
N  N247  1  0.16369602  0.86875276  0.90859095  1  -1.243466  0  -0.31952  -0.273584  0  3.478241  0
N  N248  1  0.79673337  0.91468931  0.18873301  1  -1.237146  0  -0.325394  -0.272899  0  3.518067  0
N  N249  1  0.20326856  0.08531118  0.81126670  1  -1.237038  0  -0.325392  -0.272935  0  3.518218  0
N  N250  1  0.62750017  0.97399950  0.11525464  1  -1.232323  0  -0.325333  -0.270256  0  3.524244  0
N  N251  1  0.37250281  0.02600292  0.88474542  1  -1.232272  0  -0.325273  -0.270188  0  3.524295  0
N  N252  1  0.81895695  0.74026566  0.50715316  1  -1.222893  0  -0.320053  -0.269225  0  3.500529  0
N  N253  1  0.18104398  0.25973418  0.49284642  1  -1.222864  0  -0.320076  -0.269209  0  3.500707  0
N  N254  1  0.82417878  0.56676737  0.45168309  1  -1.248638  0  -0.322844  -0.258846  0  3.513906  0
N  N255  1  0.17582211  0.43323118  0.54831627  1  -1.248703  0  -0.322848  -0.258852  0  3.513853  0
N  N256  1  0.52481884  0.43885782  0.34937158  1  -1.24937  0  -0.318185  -0.259879  0  3.493456  0
N  N257  1  0.47517915  0.56114268  0.65062934  1  -1.249421  0  -0.318192  -0.25991  0  3.493509  0
N  N258  1  0.53304830  0.40922782  0.23002685  1  -1.215223  0  -0.321505  -0.27723  0  3.507407  0
N  N259  1  0.46695161  0.59077138  0.76997387  1  -1.21504  0  -0.321605  -0.277323  0  3.507465  0
O  O260  1  0.82146744  0.80698885  0.03513180  1  -1.196522  0  -0.325491  -0.563202  0  2.218405  0
O  O261  1  0.17853157  0.19301229  0.96486840  1  -1.196754  0  -0.325457  -0.563101  0  2.218526  0
O  O262  1  0.89192864  0.93974511  0.03090793  1  -1.169466  0  -0.332279  -0.548898  0  2.299897  0
O  O263  1  0.10807134  0.06025538  0.96909133  1  -1.169399  0  -0.332293  -0.54894  0  2.299914  0
O  O264  1  0.76976777  0.57286333  0.84579822  1  -1.143362  0  -0.302796  -0.497148  0  2.083669  0
O  O265  1  0.23023025  0.42713781  0.15420281  1  -1.143354  0  -0.302794  -0.497122  0  2.08366  0
O  O266  1  0.79220360  0.61489615  0.76208389  1  -1.20885  0  -0.342839  -0.505203  0  2.344893  0
O  O267  1  0.20779541  0.38510498  0.23791588  1  -1.20887  0  -0.342809  -0.505193  0  2.34493  0
O  O268  1  0.92811571  0.00599096  0.83640920  1  -1.18277  0  -0.334108  -0.555995  0  2.245348  0
O  O269  1  0.07188521  0.99400824  0.16358901  1  -1.182758  0  -0.334127  -0.555971  0  2.24539  0
O  O270  1  0.79840395  0.91996930  0.76541393  1  -1.180405  0  -0.312757  -0.537395  0  2.239313  0
O  O271  1  0.20159399  0.08002926  0.23458580  1  -1.180445  0  -0.312719  -0.537331  0  2.239367  0
O  O272  1  0.06775559  0.67407104  0.41055631  1  -1.187658  0  -0.335692  -0.573256  0  2.207165  0
O  O273  1  0.93223743  0.32592688  0.58944366  1  -1.188373  0  -0.335673  -0.573262  0  2.207091  0
O  O274  1  0.96386163  0.76900036  0.37150473  1  -1.155988  0  -0.332649  -0.546524  0  2.196815  0
O  O275  1  0.03613244  0.23100080  0.62849877  1  -1.155957  0  -0.332661  -0.546531  0  2.196948  0
O  O276  1  0.20779618  0.96723609  0.29060980  1  -1.181668  0  -0.341901  -0.514898  0  2.325121  0
O  O277  1  0.79220075  0.03276182  0.70939065  1  -1.181776  0  -0.341943  -0.514846  0  2.325056  0
O  O278  1  0.42406643  0.99873181  0.31301273  1  -1.158722  0  -0.315027  -0.521797  0  2.096007  0
O  O279  1  0.57593049  0.00126611  0.68698899  1  -1.158882  0  -0.314987  -0.521769  0  2.096118  0
O  O280  1  0.80230836  0.56366909  0.31674624  1  -1.196361  0  -0.345066  -0.603624  0  2.291655  0
O  O281  1  0.19769157  0.43633011  0.68325321  1  -1.196413  0  -0.345063  -0.603618  0  2.291728  0
O  O282  1  0.68648867  0.58885216  0.24123620  1  -1.144168  0  -0.317474  -0.522035  0  2.220958  0
O  O283  1  0.31351415  0.41114509  0.75876126  1  -1.144213  0  -0.317461  -0.522054  0  2.221003  0
O  O284  1  0.55585265  0.65120874  0.38933815  1  -1.176325  0  -0.350563  -0.601272  0  2.259158  0
O  O285  1  0.44414032  0.34878789  0.61066159  1  -1.176173  0  -0.350666  -0.601319  0  2.25915  0
O  O286  1  0.66603573  0.77470534  0.39348763  1  -1.14194  0  -0.318424  -0.519978  0  2.216221  0
O  O287  1  0.33395721  0.22528935  0.60650967  1  -1.14216  0  -0.318348  -0.5199  0  2.2162  0
O  O288  1  0.29045919  0.53648650  0.29299519  1  -1.187488  0  -0.331889  -0.582932  0  2.27091  0
O  O289  1  0.70954374  0.46351398  0.70700327  1  -1.187579  0  -0.331874  -0.582992  0  2.270752  0
O  O290  1  0.38841742  0.63141587  0.25311894  1  -1.150469  0  -0.308896  -0.516237  0  2.180936  0
O  O291  1  0.61158553  0.36858590  0.74688058  1  -1.150514  0  -0.308888  -0.516257  0  2.180822  0
O  O292  1  0.89104445  0.72289646  0.10769432  1  -1.172473  0  -0.333626  -0.488432  0  2.309027  0
O  O293  1  0.10895650  0.27710403  0.89230537  1  -1.172496  0  -0.333615  -0.488463  0  2.309099  0
O  O294  1  0.11076937  0.74758663  0.10708510  1  -1.158828  0  -0.300068  -0.514485  0  2.12468  0
O  O295  1  0.88923063  0.25241450  0.89291385  1  -1.158789  0  -0.300156  -0.514633  0  2.12464  0
