# generated using pymatgen
data_CuH5C9N5O4
_symmetry_space_group_name_H-M   'P 1'
_cell_length_a   12.30819461
_cell_length_b   14.40670965
_cell_length_c   20.47709368
_cell_angle_alpha   90.00011947
_cell_angle_beta   90.00018391
_cell_angle_gamma   90.00001977
_symmetry_Int_Tables_number   1
_chemical_formula_structural   CuH5C9N5O4
_chemical_formula_sum   'Cu8 H40 C72 N40 O32'
_cell_volume   3631.01025180
_cell_formula_units_Z   8
loop_
 _symmetry_equiv_pos_site_id
 _symmetry_equiv_pos_as_xyz
  1  'x, y, z'
loop_
 _atom_site_type_symbol
 _atom_site_label
 _atom_site_symmetry_multiplicity
 _atom_site_fract_x
 _atom_site_fract_y
 _atom_site_fract_z
 _atom_site_occupancy
 _atom_site_pbe_bader_charge
 _atom_site_pbe_bader_spin_density
 _atom_site_pbe_cm5_charge
 _atom_site_pbe_ddec_charge
 _atom_site_pbe_ddec_spin_density
 _atom_site_pbe_ddec_sum_bond_order
 _atom_site_pbe_magmom
Cu  Cu0  1  0.07088431  0.63215803  0.79734268  1  1.087605  0.584872  0.69375  0.789089  0.738123  2.35499  0.586
Cu  Cu1  1  0.42911915  0.86783711  0.29734256  1  1.08754  0.58488  0.693746  0.789265  0.738131  2.354915  0.586
Cu  Cu2  1  0.57088461  0.86784254  0.20265250  1  1.090581  0.584975  0.693737  0.788932  0.738123  2.355274  0.586
Cu  Cu3  1  0.92911229  0.63216496  0.70265234  1  1.090436  0.584983  0.693751  0.789167  0.738139  2.355125  0.586
Cu  Cu4  1  0.92911495  0.36784223  0.20265150  1  1.090611  0.584972  0.693737  0.788895  0.738122  2.355287  0.586
Cu  Cu5  1  0.57087930  0.13216177  0.70265309  1  1.090155  0.584964  0.693736  0.789112  0.738129  2.35515  0.586
Cu  Cu6  1  0.42911547  0.13215287  0.79734413  1  1.088057  0.584885  0.693734  0.78903  0.738114  2.355101  0.586
Cu  Cu7  1  0.07088454  0.36783600  0.29734380  1  1.087643  0.584885  0.693744  0.789176  0.73814  2.355069  0.586
H  H8  1  0.11510866  0.48307368  0.56089744  1  0.093286  0.000204  0.110525  0.122612  0.000127  1.020881  0.0
H  H9  1  0.38489740  0.01692490  0.06089184  1  0.092734  0.000205  0.110485  0.122577  0.000127  1.020935  0.0
H  H10  1  0.61510845  0.01692480  0.43910491  1  0.093228  0.000205  0.110521  0.122617  0.000127  1.020878  0.0
H  H11  1  0.88489601  0.48307782  0.93910517  1  0.093126  0.000205  0.110477  0.122574  0.000127  1.020991  0.0
H  H12  1  0.88489223  0.51692520  0.43910309  1  0.093233  0.000204  0.110513  0.122605  0.000127  1.020923  0.0
H  H13  1  0.61510512  0.98307745  0.93910528  1  0.09294  0.000205  0.110487  0.122585  0.000127  1.02095  0.0
H  H14  1  0.38488919  0.98307408  0.56089660  1  0.093299  0.000205  0.110535  0.122624  0.000127  1.020868  0.0
H  H15  1  0.11510326  0.51692383  0.06089487  1  0.093151  0.000204  0.110479  0.122564  0.000127  1.021002  0.0
H  H16  1  0.25547252  0.38538962  0.74105540  1  0.135083  0.000565  0.123482  0.140533  0.000415  0.967766  0.0
H  H17  1  0.24451825  0.11460949  0.24104624  1  0.135416  0.000565  0.123451  0.140571  0.000415  0.967788  0.0
H  H18  1  0.75547545  0.11460681  0.25894674  1  0.135188  0.000565  0.123444  0.14053  0.000415  0.967737  0.0
H  H19  1  0.74451586  0.38539527  0.75894854  1  0.135355  0.000565  0.123492  0.140553  0.000415  0.967768  0.0
H  H20  1  0.74453000  0.61460925  0.25894465  1  0.135136  0.000566  0.123438  0.140499  0.000416  0.967714  0.0
H  H21  1  0.75548914  0.88539147  0.75895087  1  0.135417  0.000565  0.123455  0.140536  0.000415  0.967762  0.0
H  H22  1  0.24452057  0.88538998  0.74105331  1  0.135246  0.000565  0.12344  0.140534  0.000415  0.96777  0.0
H  H23  1  0.25548422  0.61460985  0.24104955  1  0.135384  0.000565  0.123453  0.140569  0.000415  0.967731  0.0
H  H24  1  0.36587406  0.27363241  0.55716897  1  0.104707  0.000364  0.111972  0.119883  0.000267  1.013731  0.0
H  H25  1  0.13412385  0.22636060  0.05715684  1  0.104483  0.000364  0.112011  0.119916  0.000267  1.013834  0.0
H  H26  1  0.86587233  0.22636614  0.44283435  1  0.104999  0.000364  0.111968  0.119856  0.000267  1.013792  0.0
H  H27  1  0.63412646  0.27364135  0.94283969  1  0.104564  0.000364  0.112027  0.119932  0.000267  1.013774  0.0
H  H28  1  0.63412846  0.72636577  0.44283107  1  0.104832  0.000364  0.111964  0.119886  0.000267  1.013787  0.0
H  H29  1  0.86587623  0.77364244  0.94284320  1  0.104431  0.000364  0.112018  0.119914  0.000267  1.01387  0.0
H  H30  1  0.13412531  0.77363065  0.55716521  1  0.104894  0.000364  0.111991  0.119871  0.000267  1.013789  0.0
H  H31  1  0.36587606  0.72636100  0.05715938  1  0.104467  0.000364  0.112015  0.119928  0.000267  1.013817  0.0
H  H32  1  0.98726299  0.34469920  0.42948060  1  0.520251  -5e-05  0.308865  0.32775  -6.4e-05  0.965856  0.0
H  H33  1  0.51274141  0.15530201  0.92948114  1  0.520215  -5e-05  0.308857  0.327733  -6.4e-05  0.965981  0.0
H  H34  1  0.48726068  0.15529800  0.57052051  1  0.520226  -5e-05  0.30885  0.327772  -6.4e-05  0.965834  0.0
H  H35  1  0.01274624  0.34470130  0.07051760  1  0.520196  -5e-05  0.308875  0.327803  -6.4e-05  0.965829  0.0
H  H36  1  0.01273708  0.65529899  0.57051993  1  0.520243  -5e-05  0.308872  0.327817  -6.4e-05  0.965792  0.0
H  H37  1  0.48725460  0.84469964  0.07051793  1  0.520194  -5e-05  0.308859  0.327761  -6.4e-05  0.965908  0.0
H  H38  1  0.51273778  0.84469949  0.42948100  1  0.520264  -5e-05  0.308847  0.327754  -6.4e-05  0.965896  0.0
H  H39  1  0.98725628  0.65530244  0.92948147  1  0.520204  -5e-05  0.30886  0.327742  -6.4e-05  0.965898  0.0
H  H40  1  0.02423733  0.35379772  0.51092142  1  0.454837  -3.1e-05  0.321851  0.321676  -2.5e-05  0.92096  0.0
H  H41  1  0.47576196  0.14620002  0.01092106  1  0.454806  -3e-05  0.321876  0.321736  -2.4e-05  0.921075  0.0
H  H42  1  0.52423988  0.14619935  0.48907978  1  0.454866  -3.1e-05  0.321904  0.321822  -2.5e-05  0.921019  0.0
H  H43  1  0.97576240  0.35380204  0.98907710  1  0.454757  -3e-05  0.321857  0.321759  -2.4e-05  0.921043  0.0
H  H44  1  0.97575706  0.64619908  0.48907863  1  0.454845  -3e-05  0.321853  0.321749  -2.4e-05  0.921071  0.0
H  H45  1  0.52423650  0.85380164  0.98907703  1  0.454761  -3.1e-05  0.321854  0.321699  -2.5e-05  0.921082  0.0
H  H46  1  0.47576263  0.85379745  0.51092173  1  0.454822  -3.1e-05  0.321909  0.321794  -2.4e-05  0.920957  0.0
H  H47  1  0.02423524  0.64619962  0.01092148  1  0.454783  -3e-05  0.321857  0.321698  -2.4e-05  0.92108  0.0
C  C48  1  0.14443106  0.36974784  0.44397455  1  1.519554  -0.00031  0.348487  0.469968  -0.000374  4.082835  0.0
C  C49  1  0.35556811  0.13025188  0.94397131  1  1.51958  -0.000311  0.348414  0.469853  -0.000375  4.083017  0.0
C  C50  1  0.64443072  0.13025342  0.55602786  1  1.519587  -0.000308  0.348438  0.470035  -0.000372  4.082693  0.0
C  C51  1  0.85557006  0.36974737  0.05602662  1  1.519615  -0.000308  0.348329  0.469666  -0.000371  4.083023  0.0
C  C52  1  0.85556821  0.63025589  0.55602697  1  1.519582  -0.00031  0.348448  0.470012  -0.000374  4.08285  0.0
C  C53  1  0.64442953  0.86974700  0.05602727  1  1.519613  -0.000309  0.34843  0.469826  -0.000372  4.083003  0.0
C  C54  1  0.35557017  0.86974615  0.44397414  1  1.519559  -0.000308  0.348424  0.47002  -0.000372  4.082902  0.0
C  C55  1  0.14443083  0.63025151  0.94397294  1  1.519609  -0.000309  0.348379  0.469763  -0.000372  4.082835  0.0
C  C56  1  0.23983446  0.37705017  0.55206811  1  0.242656  0.001339  0.097809  0.166471  0.00074  4.049646  0.001
C  C57  1  0.26016261  0.12294283  0.05205900  1  0.242157  0.001342  0.097693  0.166371  0.000742  4.04966  0.001
C  C58  1  0.73983760  0.12294904  0.44793595  1  0.242478  0.00135  0.097798  0.166465  0.000748  4.049493  0.001
C  C59  1  0.76016041  0.37705916  0.94793924  1  0.242153  0.001345  0.097702  0.166389  0.000744  4.049706  0.001
C  C60  1  0.76016481  0.62294940  0.44793438  1  0.242591  0.001342  0.097777  0.16647  0.000742  4.049637  0.001
C  C61  1  0.73983991  0.87705952  0.94794056  1  0.242154  0.001346  0.09765  0.166269  0.000744  4.049818  0.001
C  C62  1  0.26016248  0.87704914  0.55206556  1  0.242531  0.001353  0.097806  0.166392  0.00075  4.049614  0.001
C  C63  1  0.23983723  0.62294249  0.05206130  1  0.242211  0.001341  0.097732  0.166451  0.000741  4.049724  0.001
C  C64  1  0.17197083  0.43759769  0.58632246  1  0.015458  0.001936  -0.077621  -0.178364  0.001137  3.919784  0.001
C  C65  1  0.32802967  0.06240304  0.08631046  1  0.015902  0.001936  -0.077573  -0.178348  0.001136  3.919757  0.001
C  C66  1  0.67197620  0.06239941  0.41368293  1  0.015518  0.001926  -0.077619  -0.178411  0.001129  3.919691  0.001
C  C67  1  0.82802731  0.43760105  0.91368839  1  0.015528  0.001931  -0.077589  -0.17837  0.001133  3.919854  0.001
C  C68  1  0.82802925  0.56240188  0.41368052  1  0.015467  0.001932  -0.077568  -0.178347  0.001134  3.919859  0.001
C  C69  1  0.67197610  0.93760139  0.91368812  1  0.01577  0.001929  -0.077581  -0.178376  0.001131  3.919774  0.001
C  C70  1  0.32802388  0.93759808  0.58632004  1  0.015496  0.001923  -0.07763  -0.178304  0.001127  3.919668  0.001
C  C71  1  0.17197114  0.56240130  0.08631361  1  0.015563  0.001934  -0.077633  -0.178443  0.001135  3.919974  0.001
C  C72  1  0.17939940  0.44116905  0.65445079  1  0.051374  0.017597  -0.00302  0.008612  0.012311  3.961226  0.014
C  C73  1  0.32060228  0.05883050  0.15444219  1  0.052546  0.017591  -0.002979  0.008585  0.01231  3.961248  0.014
C  C74  1  0.67940359  0.05882945  0.34555315  1  0.052145  0.0176  -0.003026  0.008633  0.012315  3.960936  0.014
C  C75  1  0.82059874  0.44116873  0.84555665  1  0.052367  0.017597  -0.003004  0.008584  0.012314  3.961147  0.014
C  C76  1  0.82060230  0.55883191  0.34555121  1  0.052294  0.0176  -0.00304  0.008624  0.012315  3.961024  0.014
C  C77  1  0.67940511  0.94116907  0.84555639  1  0.052258  0.017601  -0.00299  0.008616  0.012316  3.961054  0.014
C  C78  1  0.32059568  0.94117082  0.65444934  1  0.052121  0.017603  -0.002989  0.00858  0.012317  3.961025  0.014
C  C79  1  0.17939971  0.55883223  0.15444486  1  0.052533  0.017598  -0.002981  0.008693  0.012315  3.961173  0.014
C  C80  1  0.25107855  0.38313712  0.68798096  1  -0.051531  0.003904  -0.056826  -0.084061  0.002557  3.858559  0.002
C  C81  1  0.24892168  0.11685906  0.18797085  1  -0.051722  0.003906  -0.056792  -0.084063  0.002559  3.858719  0.002
C  C82  1  0.75107771  0.11686070  0.31202165  1  -0.051928  0.0039  -0.056795  -0.084116  0.002555  3.85859  0.002
C  C83  1  0.74891713  0.38314293  0.81202639  1  -0.051797  0.003902  -0.056875  -0.084144  0.002556  3.858837  0.002
C  C84  1  0.74892396  0.61686106  0.31202103  1  -0.0521  0.003901  -0.056735  -0.083989  0.002555  3.858717  0.002
C  C85  1  0.75108733  0.88314329  0.81202773  1  -0.051694  0.003899  -0.056854  -0.084114  0.002554  3.858712  0.002
C  C86  1  0.24891831  0.88314026  0.68797889  1  -0.051627  0.0039  -0.05684  -0.084128  0.002555  3.858667  0.002
C  C87  1  0.25108051  0.61686011  0.18797366  1  -0.052012  0.003902  -0.056804  -0.084202  0.002556  3.858592  0.002
C  C88  1  0.31680783  0.32136655  0.65309908  1  0.055873  0.015013  -0.003295  0.000984  0.010478  3.951547  0.012
C  C89  1  0.18318653  0.17862466  0.15308795  1  0.05733  0.015006  -0.003419  0.000822  0.01048  3.951414  0.012
C  C90  1  0.81680882  0.17863059  0.34690415  1  0.055788  0.015022  -0.003292  0.000984  0.010484  3.95151  0.012
C  C91  1  0.68318377  0.32137939  0.84690867  1  0.055948  0.015017  -0.003377  0.000832  0.010482  3.951284  0.012
C  C92  1  0.68319469  0.67863093  0.34690048  1  0.055743  0.015019  -0.003336  0.000892  0.010482  3.95165  0.012
C  C93  1  0.81682248  0.82137907  0.84691259  1  0.055989  0.015018  -0.003381  0.000834  0.010482  3.951466  0.012
C  C94  1  0.18319045  0.82136898  0.65309639  1  0.055385  0.015022  -0.003301  0.000857  0.010484  3.951536  0.012
C  C95  1  0.31681712  0.67862365  0.15309137  1  0.056012  0.015018  -0.003403  0.000992  0.010482  3.951186  0.012
C  C96  1  0.31308248  0.31962629  0.58486381  1  0.002105  0.00309  -0.071662  -0.157875  0.002101  3.911709  0.002
C  C97  1  0.18691070  0.18036472  0.08485220  1  0.002296  0.003086  -0.07154  -0.157735  0.002098  3.911906  0.002
C  C98  1  0.81308222  0.18037294  0.41513893  1  0.001842  0.003079  -0.071671  -0.157806  0.002094  3.911846  0.002
C  C99  1  0.68691642  0.31963447  0.91514492  1  0.002374  0.003085  -0.071559  -0.157719  0.002098  3.911688  0.002
C  C100  1  0.68692328  0.68037536  0.41513673  1  0.002162  0.003086  -0.071682  -0.157848  0.002099  3.911692  0.002
C  C101  1  0.81308938  0.81963693  0.91514785  1  0.002334  0.003083  -0.071544  -0.157713  0.002097  3.911989  0.002
C  C102  1  0.18691624  0.81962386  0.58486112  1  0.001883  0.003078  -0.071659  -0.157737  0.002092  3.911817  0.002
C  C103  1  0.31308853  0.68036510  0.08485464  1  0.002352  0.003087  -0.07155  -0.157816  0.002099  3.911804  0.002
C  C104  1  0.38828793  0.25451860  0.68903242  1  1.575723  -0.000584  0.222346  0.587517  -0.000771  4.145389  -0.003
C  C105  1  0.11171069  0.24548314  0.18901686  1  1.574319  -0.000578  0.222333  0.587492  -0.000774  4.14461  -0.003
C  C106  1  0.88829282  0.24547718  0.31097046  1  1.575852  -0.000585  0.222261  0.587339  -0.000771  4.145421  -0.003
C  C107  1  0.61170770  0.25451812  0.81098305  1  1.575707  -0.000588  0.222433  0.587757  -0.000778  4.144458  -0.003
C  C108  1  0.61171134  0.74547889  0.31096860  1  1.575934  -0.000587  0.222295  0.587441  -0.000773  4.145485  -0.003
C  C109  1  0.88829752  0.75452129  0.81098466  1  1.575842  -0.000588  0.222386  0.58768  -0.000775  4.14469  -0.003
C  C110  1  0.11170401  0.75452170  0.68902959  1  1.575783  -0.000585  0.222373  0.587582  -0.000772  4.145052  -0.003
C  C111  1  0.38829238  0.74548215  0.18901993  1  1.575685  -0.000586  0.222287  0.587498  -0.000776  4.144969  -0.003
C  C112  1  0.11068107  0.50924293  0.69099112  1  1.56818  -0.002183  0.215691  0.575179  -0.002635  4.168324  -0.005
C  C113  1  0.38932508  0.99075814  0.19098230  1  1.567286  -0.002182  0.215581  0.575177  -0.002635  4.168385  -0.005
C  C114  1  0.61068442  0.99075418  0.30901098  1  1.567928  -0.002182  0.215677  0.575221  -0.002637  4.168178  -0.005
C  C115  1  0.88932361  0.50924391  0.80901691  1  1.567367  -0.002182  0.21561  0.57518  -0.002635  4.168352  -0.005
C  C116  1  0.88931901  0.49075456  0.30900844  1  1.567668  -0.002182  0.215703  0.57532  -0.002637  4.168124  -0.005
C  C117  1  0.61067906  0.00924074  0.80901530  1  1.567341  -0.002182  0.215532  0.575263  -0.002636  4.168145  -0.005
C  C118  1  0.38931565  0.00924330  0.69099151  1  1.56759  -0.002185  0.215715  0.57548  -0.002638  4.168023  -0.005
C  C119  1  0.11067647  0.49075913  0.19098655  1  1.567178  -0.002181  0.215559  0.575131  -0.002635  4.168352  -0.005
N  N120  1  0.17900298  0.36546086  0.38210593  1  -0.751229  -0.001488  -0.245661  -0.328693  -0.000851  3.343123  0.0
N  N121  1  0.32100317  0.13453728  0.88210215  1  -0.75148  -0.001487  -0.245683  -0.328522  -0.00085  3.343153  0.0
N  N122  1  0.67900541  0.13453902  0.61789703  1  -0.751332  -0.001492  -0.245635  -0.328672  -0.000854  3.343286  0.0
N  N123  1  0.82100545  0.36546195  0.11789572  1  -0.751475  -0.001493  -0.245657  -0.32838  -0.000855  3.343229  0.0
N  N124  1  0.82099141  0.63454148  0.61789509  1  -0.751304  -0.001486  -0.245717  -0.328816  -0.00085  3.343265  0.0
N  N125  1  0.67899366  0.86546298  0.11789594  1  -0.751543  -0.001491  -0.245635  -0.328416  -0.000853  3.343284  0.0
N  N126  1  0.32099710  0.86545986  0.38210497  1  -0.751263  -0.001491  -0.245583  -0.328568  -0.000854  3.343067  0.0
N  N127  1  0.17899301  0.63453623  0.88210384  1  -0.751513  -0.001487  -0.24564  -0.328413  -0.000851  3.34321  0.0
N  N128  1  0.28970160  0.36529776  0.38422548  1  0.012982  -0.000234  -0.074889  -0.016528  -0.00025  3.248481  0.0
N  N129  1  0.21030213  0.13469969  0.88421807  1  0.013921  -0.000237  -0.074956  -0.016693  -0.000254  3.248384  0.0
N  N130  1  0.78970158  0.13470146  0.61577818  1  0.012794  -0.000234  -0.07493  -0.016583  -0.00025  3.248603  0.0
N  N131  1  0.71030359  0.36530090  0.11578105  1  0.01405  -0.000235  -0.074963  -0.016728  -0.000251  3.248446  0.0
N  N132  1  0.71029442  0.63470320  0.61577505  1  0.013035  -0.000239  -0.074802  -0.016262  -0.000255  3.248363  0.0
N  N133  1  0.78969470  0.86530127  0.11578198  1  0.014062  -0.000237  -0.07501  -0.016748  -0.000253  3.248431  0.0
N  N134  1  0.21030013  0.86529742  0.38422333  1  0.012867  -0.000238  -0.074944  -0.016668  -0.000255  3.248647  0.0
N  N135  1  0.28969487  0.63469868  0.88421948  1  0.014053  -0.00024  -0.074991  -0.016766  -0.000257  3.248591  0.0
N  N136  1  0.32482713  0.36928905  0.44334670  1  -0.071158  -0.000197  -0.092081  -0.135556  -0.000232  3.117963  0.0
N  N137  1  0.17516960  0.13070511  0.94334019  1  -0.071902  -0.000195  -0.091972  -0.135351  -0.00023  3.117663  0.0
N  N138  1  0.82483004  0.13071087  0.55665605  1  -0.07101  -0.0002  -0.092011  -0.135411  -0.000235  3.117979  0.0
N  N139  1  0.67517236  0.36929547  0.05665740  1  -0.072038  -0.000202  -0.091949  -0.135328  -0.000236  3.117847  0.0
N  N140  1  0.67516969  0.63070982  0.55665286  1  -0.071261  -0.000197  -0.092079  -0.135625  -0.000232  3.118074  0.0
N  N141  1  0.82482805  0.86929516  0.05665986  1  -0.072046  -0.000198  -0.091953  -0.13538  -0.000232  3.117533  0.0
N  N142  1  0.17517247  0.86928939  0.44334350  1  -0.071104  -0.000198  -0.092028  -0.135378  -0.000232  3.117951  0.0
N  N143  1  0.32482853  0.63070480  0.94334119  1  -0.072013  -0.000197  -0.091973  -0.135325  -0.000231  3.117739  0.0
N  N144  1  0.23355959  0.37305332  0.48304170  1  -0.879455  0.000318  -0.126609  -0.03481  0.000174  3.717184  0.0
N  N145  1  0.26644304  0.12694096  0.98303389  1  -0.879429  0.000318  -0.126606  -0.034864  0.000174  3.71724  0.0
N  N146  1  0.73355985  0.12694658  0.51696234  1  -0.879428  0.000322  -0.126614  -0.034967  0.000177  3.717092  0.0
N  N147  1  0.76644316  0.37306103  0.01696533  1  -0.879298  0.000325  -0.126592  -0.034867  0.000179  3.717401  0.0
N  N148  1  0.76643886  0.62694487  0.51696079  1  -0.879445  0.000319  -0.126583  -0.034949  0.000175  3.717233  0.0
N  N149  1  0.73355623  0.87306069  0.01696566  1  -0.879279  0.000322  -0.126595  -0.03476  0.000177  3.717143  0.0
N  N150  1  0.26643942  0.87305299  0.48303966  1  -0.879339  0.000324  -0.126602  -0.035006  0.000178  3.71719  0.0
N  N151  1  0.23355692  0.62693993  0.98303569  1  -0.879292  0.000321  -0.126576  -0.034898  0.000176  3.717231  0.0
N  N152  1  0.03933772  0.37121176  0.46374385  1  -1.266887  9e-05  -0.573344  -0.64138  7e-06  3.286421  0.0
N  N153  1  0.46067212  0.12878455  0.96374521  1  -1.26687  8.9e-05  -0.573368  -0.641471  6e-06  3.286225  0.0
N  N154  1  0.53933239  0.12878670  0.53625640  1  -1.266896  8.9e-05  -0.573379  -0.64159  6e-06  3.286275  0.0
N  N155  1  0.96067803  0.37121681  0.03625194  1  -1.266948  9e-05  -0.573352  -0.641517  7e-06  3.286026  0.0
N  N156  1  0.96066399  0.62878781  0.53625570  1  -1.266874  8.9e-05  -0.573342  -0.641525  7e-06  3.286386  0.0
N  N157  1  0.53932389  0.87121502  0.03625288  1  -1.266926  9e-05  -0.573336  -0.641461  7e-06  3.286251  0.0
N  N158  1  0.46066200  0.87121010  0.46374462  1  -1.266897  8.9e-05  -0.57338  -0.641536  6e-06  3.286521  0.0
N  N159  1  0.03932530  0.62878554  0.96374615  1  -1.26691  8.9e-05  -0.573334  -0.641398  7e-06  3.286154  0.0
O  O160  1  0.46241812  0.21364455  0.65578605  1  -1.130883  0.087582  -0.313957  -0.542201  0.055388  2.383727  0.08
O  O161  1  0.03757951  0.28635778  0.15576991  1  -1.131472  0.087555  -0.313888  -0.542043  0.055372  2.383202  0.08
O  O162  1  0.96241995  0.28635333  0.34421502  1  -1.131065  0.087571  -0.313925  -0.542136  0.055381  2.383828  0.08
O  O163  1  0.53757912  0.21364554  0.84422985  1  -1.131453  0.087545  -0.313926  -0.542136  0.055366  2.383224  0.08
O  O164  1  0.53758359  0.78635363  0.34421449  1  -1.13105  0.087569  -0.313958  -0.542211  0.055379  2.383842  0.08
O  O165  1  0.96242463  0.71364526  0.84422916  1  -1.131503  0.087548  -0.313901  -0.542076  0.055368  2.383344  0.08
O  O166  1  0.03757687  0.71364415  0.65578258  1  -1.131068  0.087572  -0.314025  -0.542265  0.055381  2.3837  0.08
O  O167  1  0.46242096  0.78635612  0.15577215  1  -1.131385  0.08756  -0.313856  -0.542025  0.055376  2.383336  0.08
O  O168  1  0.36885957  0.24214876  0.74922453  1  -1.102586  0.08476  -0.300778  -0.499733  0.053325  2.32243  0.077
O  O169  1  0.13113693  0.25785177  0.24921000  1  -1.102248  0.084785  -0.300795  -0.499797  0.053341  2.322271  0.077
O  O170  1  0.86886170  0.25784424  0.25077587  1  -1.102496  0.084768  -0.300733  -0.499633  0.053331  2.322287  0.077
O  O171  1  0.63113524  0.24214741  0.75078946  1  -1.102198  0.084801  -0.300847  -0.499923  0.053351  2.322043  0.077
O  O172  1  0.63113807  0.75784526  0.25077454  1  -1.102576  0.08478  -0.300731  -0.499686  0.053338  2.322384  0.077
O  O173  1  0.86886802  0.74215335  0.75078859  1  -1.102229  0.084801  -0.300804  -0.499932  0.053352  2.3221  0.077
O  O174  1  0.13113431  0.74215325  0.74922222  1  -1.102446  0.084771  -0.300759  -0.499734  0.053332  2.322315  0.077
O  O175  1  0.36886646  0.75784939  0.24921254  1  -1.102234  0.084785  -0.300777  -0.499851  0.053343  2.322435  0.077
O  O176  1  0.15390607  0.54603559  0.74115699  1  -1.086587  0.102123  -0.301503  -0.492722  0.064206  2.329793  0.093
O  O177  1  0.34611253  0.95396633  0.24114609  1  -1.086236  0.10209  -0.301476  -0.492773  0.064183  2.329808  0.093
O  O178  1  0.65390833  0.95396154  0.25884470  1  -1.086576  0.102114  -0.301493  -0.492683  0.0642  2.329749  0.093
O  O179  1  0.84610999  0.54603641  0.75885304  1  -1.086283  0.10209  -0.301472  -0.492744  0.064183  2.329883  0.093
O  O180  1  0.84608832  0.45396606  0.25884061  1  -1.086391  0.102125  -0.30152  -0.492717  0.064208  2.329571  0.093
O  O181  1  0.65388592  0.04602908  0.75885151  1  -1.086313  0.102077  -0.301359  -0.492648  0.064176  2.329872  0.093
O  O182  1  0.34608687  0.04603318  0.74116023  1  -1.086274  0.102142  -0.301546  -0.492848  0.064219  2.329571  0.093
O  O183  1  0.15388684  0.45397080  0.24114847  1  -1.08639  0.102075  -0.301324  -0.49259  0.064175  2.329983  0.093
O  O184  1  0.01627480  0.52505982  0.66787740  1  -1.10094  0.10126  -0.313521  -0.518351  0.063839  2.337839  0.092
O  O185  1  0.48373854  0.97494882  0.16786777  1  -1.100558  0.101297  -0.313427  -0.518257  0.063863  2.337807  0.092
O  O186  1  0.51627665  0.97493935  0.33212207  1  -1.100951  0.101268  -0.313484  -0.518363  0.063845  2.337863  0.092
O  O187  1  0.98373801  0.52505187  0.83213162  1  -1.100588  0.1013  -0.313416  -0.518256  0.063865  2.337715  0.092
O  O188  1  0.98372284  0.47493628  0.33212167  1  -1.100977  0.101264  -0.31349  -0.518445  0.063843  2.338021  0.092
O  O189  1  0.51626235  0.02504936  0.83213179  1  -1.100534  0.101313  -0.31348  -0.518437  0.063874  2.337514  0.092
O  O190  1  0.48371937  0.02505814  0.66787895  1  -1.100929  0.101253  -0.31345  -0.51841  0.063835  2.338  0.092
O  O191  1  0.01625964  0.47495048  0.16786891  1  -1.100352  0.101316  -0.313516  -0.518339  0.063875  2.337581  0.092
