# generated using pymatgen
data_PrPH10C4SO7
_symmetry_space_group_name_H-M   'P 1'
_cell_length_a   7.18133269
_cell_length_b   10.83197160
_cell_length_c   13.30298667
_cell_angle_alpha   90.00006486
_cell_angle_beta   89.99996773
_cell_angle_gamma   105.02313810
_symmetry_Int_Tables_number   1
_chemical_formula_structural   PrPH10C4SO7
_chemical_formula_sum   'Pr4 P4 H40 C16 S4 O28'
_cell_volume   999.44399141
_cell_formula_units_Z   4
loop_
 _symmetry_equiv_pos_site_id
 _symmetry_equiv_pos_as_xyz
  1  'x, y, z'
loop_
 _atom_site_type_symbol
 _atom_site_label
 _atom_site_symmetry_multiplicity
 _atom_site_fract_x
 _atom_site_fract_y
 _atom_site_fract_z
 _atom_site_occupancy
 _atom_site_hle17_bader_spin_density
 _atom_site_hle17_ddec_charge
 _atom_site_hle17_ddec_spin_density
 _atom_site_hle17_ddec_sum_bond_order
 _atom_site_hle17_magmom
 _atom_site_hse06_10hf_bader_spin_density
 _atom_site_hse06_10hf_ddec_charge
 _atom_site_hse06_10hf_ddec_spin_density
 _atom_site_hse06_10hf_ddec_sum_bond_order
 _atom_site_hse06_10hf_magmom
 _atom_site_hse06_bader_spin_density
 _atom_site_hse06_ddec_charge
 _atom_site_hse06_ddec_spin_density
 _atom_site_hse06_ddec_sum_bond_order
 _atom_site_hse06_magmom
 _atom_site_pbe_bader_spin_density
 _atom_site_pbe_cm5_charge
 _atom_site_pbe_ddec_charge
 _atom_site_pbe_ddec_spin_density
 _atom_site_pbe_ddec_sum_bond_order
 _atom_site_pbe_magmom
Pr  Pr0  1  0.24396307  0.48932267  0.42286614  1  0  2.43446  0  1.608661  0  0  2.333155  0  1.980178  0  0  2.364982  0  1.937712  0  0  1.559299  2.309373  0  2.010167  0
Pr  Pr1  1  0.25603644  0.51067772  0.92286590  1  0  2.434471  0  1.608701  0  0  2.333179  0  1.980232  0  0  2.365011  0  1.937763  0  0  1.559264  2.309393  0  2.010214  0
Pr  Pr2  1  0.75603750  0.51067740  0.57713444  1  0  2.434471  0  1.608665  0  0  2.333162  0  1.980186  0  0  2.364992  0  1.937717  0  0  1.559307  2.309386  0  2.010175  0
Pr  Pr3  1  0.74396199  0.48932044  0.07713393  1  0  2.434472  0  1.608686  0  0  2.333182  0  1.980212  0  0  2.365014  0  1.937742  0  0  1.559281  2.309394  0  2.01019  0
P  P4  1  0.28466998  0.60110505  0.15082502  1  0  1.59619  0  4.812846  0  0  1.450748  0  5.318661  0  0  1.500461  0  5.275348  0  0  0.338829  1.416066  0  5.34797  0
P  P5  1  0.21533424  0.39889597  0.65082093  1  0  1.596213  0  4.812936  0  0  1.450754  0  5.318807  0  0  1.500488  0  5.275423  0  0  0.33883  1.416067  0  5.348133  0
P  P6  1  0.71533097  0.39889598  0.84917480  1  0  1.596204  0  4.812931  0  0  1.450748  0  5.318769  0  0  1.500466  0  5.275436  0  0  0.33883  1.416069  0  5.348082  0
P  P7  1  0.78466735  0.60110315  0.34917890  1  0  1.596175  0  4.812959  0  0  1.450705  0  5.318853  0  0  1.500444  0  5.275458  0  0  0.338813  1.41602  0  5.348171  0
H  H8  1  0.26196380  0.27009222  0.29181802  1  0  0.437761  0  0.859465  0  0  0.406842  0  0.92314  0  0  0.417036  0  0.908121  0  0  0.301947  0.399742  0  0.933562  0
H  H9  1  0.23803680  0.72990706  0.79182099  1  0  0.437908  0  0.859321  0  0  0.406965  0  0.923022  0  0  0.417157  0  0.908006  0  0  0.301999  0.399862  0  0.933451  0
H  H10  1  0.73803816  0.72990786  0.70818181  1  0  0.437781  0  0.859459  0  0  0.406865  0  0.923131  0  0  0.41706  0  0.908111  0  0  0.301958  0.399766  0  0.933552  0
H  H11  1  0.76196479  0.27009206  0.20817883  1  0  0.437833  0  0.859409  0  0  0.40688  0  0.92313  0  0  0.417073  0  0.908113  0  0  0.301954  0.399775  0  0.933563  0
H  H12  1  0.46242413  0.28379113  0.34399876  1  0  0.440205  0  0.858975  0  0  0.409077  0  0.922279  0  0  0.419239  0  0.907347  0  0  0.303819  0.401978  0  0.932684  0
H  H13  1  0.03757301  0.71621012  0.84400028  1  0  0.440138  0  0.859066  0  0  0.409026  0  0.922361  0  0  0.419192  0  0.907423  0  0  0.303769  0.401936  0  0.932752  0
H  H14  1  0.53757644  0.71620895  0.65600107  1  0  0.440227  0  0.858946  0  0  0.409096  0  0.922255  0  0  0.419258  0  0.907323  0  0  0.303816  0.401998  0  0.932658  0
H  H15  1  0.96242794  0.28379091  0.15600030  1  0  0.440128  0  0.859079  0  0  0.409015  0  0.922377  0  0  0.41918  0  0.90744  0  0  0.303763  0.401926  0  0.932768  0
H  H16  1  0.31410526  0.78940585  0.24978559  1  0  0.113802  0  0.946585  0  0  0.129188  0  1.00367  0  0  0.131528  0  1.003158  0  0  0.105006  0.127482  0  1.004144  0
H  H17  1  0.18589435  0.21059433  0.74978433  1  0  0.113829  0  0.946579  0  0  0.129204  0  1.003683  0  0  0.13154  0  1.003174  0  0  0.105009  0.127496  0  1.00415  0
H  H18  1  0.68589531  0.21059423  0.75021423  1  0  0.113813  0  0.946582  0  0  0.129191  0  1.003675  0  0  0.131528  0  1.003164  0  0  0.105009  0.127486  0  1.00415  0
H  H19  1  0.81410446  0.78940479  0.25021549  1  0  0.113813  0  0.946562  0  0  0.129202  0  1.003649  0  0  0.131538  0  1.003139  0  0  0.105012  0.127495  0  1.004116  0
H  H20  1  0.52065457  0.79979879  0.17516773  1  0  0.114755  0  0.945818  0  0  0.132384  0  1.000312  0  0  0.134248  0  1.000475  0  0  0.103717  0.130965  0  1.000391  0
H  H21  1  0.97934674  0.20020396  0.67516562  1  0  0.11472  0  0.94595  0  0  0.132381  0  1.000396  0  0  0.134243  0  1.000561  0  0  0.1037  0.130964  0  1.000475  0
H  H22  1  0.47934638  0.20020224  0.82483209  1  0  0.114724  0  0.945917  0  0  0.13238  0  1.000364  0  0  0.134241  0  1.000529  0  0  0.10371  0.130961  0  1.000445  0
H  H23  1  0.02065244  0.79979612  0.32483420  1  0  0.114726  0  0.945946  0  0  0.132385  0  1.000394  0  0  0.134245  0  1.000558  0  0  0.103703  0.130967  0  1.000475  0
H  H24  1  0.12718591  0.82006485  0.09459943  1  0  0.077616  0  0.935283  0  0  0.098097  0  0.991583  0  0  0.099003  0  0.992225  0  0  0.09784  0.097326  0  0.991336  0
H  H25  1  0.37281378  0.17993513  0.59459959  1  0  0.077618  0  0.935277  0  0  0.098107  0  0.991572  0  0  0.099011  0  0.99222  0  0  0.097842  0.097339  0  0.991325  0
H  H26  1  0.87281466  0.17993522  0.90540040  1  0  0.077625  0  0.935298  0  0  0.098106  0  0.991583  0  0  0.099012  0  0.992229  0  0  0.097844  0.097336  0  0.991335  0
H  H27  1  0.62718540  0.82006494  0.40540099  1  0  0.077618  0  0.935246  0  0  0.098106  0  0.99154  0  0  0.099011  0  0.992185  0  0  0.097853  0.097337  0  0.991292  0
H  H28  1  0.33366664  0.83838745  0.02113169  1  0  0.070465  0  0.946533  0  0  0.087938  0  1.011581  0  0  0.088937  0  1.011719  0  0  0.096778  0.087092  0  1.011627  0
H  H29  1  0.16633245  0.16161436  0.52113039  1  0  0.070451  0  0.946516  0  0  0.087928  0  1.011577  0  0  0.088924  0  1.011714  0  0  0.096765  0.087082  0  1.011624  0
H  H30  1  0.66633430  0.16161358  0.97886813  1  0  0.070444  0  0.946561  0  0  0.087899  0  1.011626  0  0  0.088898  0  1.011765  0  0  0.096756  0.087052  0  1.011669  0
H  H31  1  0.83366636  0.83838476  0.47887018  1  0  0.070459  0  0.946501  0  0  0.087934  0  1.011558  0  0  0.088929  0  1.011695  0  0  0.096768  0.087089  0  1.011607  0
H  H32  1  0.49987846  0.03446485  0.12887401  1  0  0.072874  0  0.927975  0  0  0.091823  0  0.987188  0  0  0.092994  0  0.987033  0  0  0.093369  0.090857  0  0.98753  0
H  H33  1  0.00011983  0.96553518  0.62887202  1  0  0.072867  0  0.92796  0  0  0.0918  0  0.987199  0  0  0.092972  0  0.987045  0  0  0.093346  0.090834  0  0.987539  0
H  H34  1  0.50011970  0.96553618  0.87112657  1  0  0.072856  0  0.927951  0  0  0.091789  0  0.987193  0  0  0.092958  0  0.987041  0  0  0.093357  0.090825  0  0.987536  0
H  H35  1  0.99987898  0.03446394  0.37112931  1  0  0.072856  0  0.927966  0  0  0.091787  0  0.987218  0  0  0.092958  0  0.987065  0  0  0.093353  0.090821  0  0.987558  0
H  H36  1  0.28488387  0.01065325  0.19855913  1  0  0.074997  0  0.920323  0  0  0.095074  0  0.975804  0  0  0.09637  0  0.975669  0  0  0.094262  0.094069  0  0.976022  0
H  H37  1  0.21511474  0.98934782  0.69855710  1  0  0.07498  0  0.920325  0  0  0.095076  0  0.975784  0  0  0.096378  0  0.975644  0  0  0.094256  0.094068  0  0.976  0
H  H38  1  0.71511252  0.98934682  0.80144069  1  0  0.074972  0  0.92033  0  0  0.09508  0  0.975771  0  0  0.096378  0  0.975631  0  0  0.094262  0.094075  0  0.975993  0
H  H39  1  0.78488583  0.01065226  0.30144272  1  0  0.07498  0  0.920332  0  0  0.095081  0  0.975794  0  0  0.096382  0  0.975654  0  0  0.094251  0.094072  0  0.976007  0
H  H40  1  0.10739942  0.02750098  0.03392396  1  0  0.112945  0  0.960655  0  0  0.130198  0  1.012425  0  0  0.132389  0  1.011805  0  0  0.107902  0.12854  0  1.013101  0
H  H41  1  0.39259715  0.97249797  0.53392336  1  0  0.112979  0  0.960676  0  0  0.130235  0  1.012413  0  0  0.132426  0  1.011793  0  0  0.107912  0.128578  0  1.013088  0
H  H42  1  0.89259939  0.97249813  0.96607587  1  0  0.11297  0  0.96063  0  0  0.130219  0  1.01239  0  0  0.132409  0  1.011771  0  0  0.107918  0.128562  0  1.013065  0
H  H43  1  0.60740166  0.02750115  0.46607721  1  0  0.11293  0  0.960652  0  0  0.130149  0  1.01245  0  0  0.132339  0  1.011829  0  0  0.107902  0.128493  0  1.013121  0
H  H44  1  0.33515102  0.07822485  0.97331676  1  0  0.121538  0  0.93731  0  0  0.137224  0  0.993843  0  0  0.139065  0  0.993943  0  0  0.112171  0.135868  0  0.993844  0
H  H45  1  0.16484558  0.92177178  0.47331593  1  0  0.121503  0  0.937371  0  0  0.137174  0  0.993896  0  0  0.139013  0  0.993999  0  0  0.112149  0.135819  0  0.993895  0
H  H46  1  0.66484639  0.92177426  0.02668232  1  0  0.121521  0  0.937355  0  0  0.137193  0  0.993886  0  0  0.139031  0  0.993988  0  0  0.11216  0.135839  0  0.993885  0
H  H47  1  0.83515499  0.07822830  0.52668465  1  0  0.121468  0  0.937352  0  0  0.137141  0  0.993884  0  0  0.138979  0  0.993985  0  0  0.112142  0.135786  0  0.993887  0
C  C48  1  0.36181589  0.77329246  0.17338318  1  0  -0.430988  0  3.659152  0  0  -0.45007  0  3.909423  0  0  -0.459455  0  3.918895  0  0  -0.160851  -0.443627  0  3.90319  0
C  C49  1  0.13818413  0.22670858  0.67338195  1  0  -0.43095  0  3.659243  0  0  -0.45004  0  3.909486  0  0  -0.459422  0  3.91897  0  0  -0.160821  -0.443597  0  3.903248  0
C  C50  1  0.63818505  0.22670857  0.82661739  1  0  -0.430964  0  3.659319  0  0  -0.45004  0  3.909517  0  0  -0.459425  0  3.919  0  0  -0.160825  -0.443598  0  3.903289  0
C  C51  1  0.86181467  0.77329054  0.32661862  1  0  -0.430934  0  3.659237  0  0  -0.450031  0  3.909472  0  0  -0.459409  0  3.918948  0  0  -0.160835  -0.443599  0  3.903243  0
C  C52  1  0.28537497  0.85398430  0.09755440  1  0  -0.06837  0  3.691776  0  0  -0.110135  0  3.953285  0  0  -0.110699  0  3.968941  0  0  -0.160878  -0.109381  0  3.942211  0
C  C53  1  0.21462333  0.14601569  0.59755307  1  0  -0.06837  0  3.691769  0  0  -0.110174  0  3.953334  0  0  -0.110726  0  3.968975  0  0  -0.160875  -0.109414  0  3.942258  0
C  C54  1  0.71462421  0.14601577  0.90244543  1  0  -0.068401  0  3.691883  0  0  -0.110166  0  3.953394  0  0  -0.110719  0  3.969025  0  0  -0.160873  -0.109409  0  3.942316  0
C  C55  1  0.78537585  0.85398439  0.40244676  1  0  -0.068407  0  3.691764  0  0  -0.110177  0  3.953292  0  0  -0.110735  0  3.968946  0  0  -0.160888  -0.109416  0  3.94222  0
C  C56  1  0.34236495  0.99645234  0.12390794  1  0  -0.076678  0  3.674467  0  0  -0.120622  0  3.942324  0  0  -0.120962  0  3.956206  0  0  -0.163412  -0.120079  0  3.932426  0
C  C57  1  0.15763585  0.00355055  0.62390574  1  0  -0.076583  0  3.674406  0  0  -0.120533  0  3.942225  0  0  -0.120885  0  3.956124  0  0  -0.163351  -0.119987  0  3.932319  0
C  C58  1  0.65763461  0.00354869  0.87609264  1  0  -0.076595  0  3.67444  0  0  -0.120559  0  3.942271  0  0  -0.120898  0  3.956154  0  0  -0.163401  -0.120017  0  3.932377  0
C  C59  1  0.84236435  0.99644857  0.37609559  1  0  -0.076625  0  3.67446  0  0  -0.120597  0  3.942314  0  0  -0.120947  0  3.956207  0  0  -0.163394  -0.120052  0  3.932406  0
C  C60  1  0.26122462  0.07172896  0.04606935  1  0  -0.299714  0  3.629329  0  0  -0.338927  0  3.892925  0  0  -0.344417  0  3.901096  0  0  -0.148601  -0.335015  0  3.887338  0
C  C61  1  0.23877371  0.92827096  0.54606951  1  0  -0.299813  0  3.629326  0  0  -0.338974  0  3.892864  0  0  -0.344461  0  3.901044  0  0  -0.148645  -0.335063  0  3.887276  0
C  C62  1  0.73877279  0.92827016  0.95393123  1  0  -0.299743  0  3.629339  0  0  -0.338904  0  3.892869  0  0  -0.344402  0  3.90106  0  0  -0.1486  -0.334994  0  3.88728  0
C  C63  1  0.76122686  0.07172911  0.45393107  1  0  -0.299614  0  3.629154  0  0  -0.338764  0  3.892725  0  0  -0.344252  0  3.900912  0  0  -0.148584  -0.334853  0  3.887141  0
S  S64  1  0.27169277  0.23085708  0.08420973  1  0  1.413045  0  5.503383  0  0  1.314522  0  6.031118  0  0  1.360942  0  6.007027  0  0  0.55337  1.282404  0  6.047217  0
S  S65  1  0.22829383  0.76913428  0.58420749  1  0  1.413187  0  5.502934  0  0  1.314514  0  6.030766  0  0  1.360919  0  6.006693  0  0  0.55344  1.282373  0  6.046869  0
S  S66  1  0.72830743  0.76914204  0.91578859  1  0  1.413127  0  5.503533  0  0  1.314593  0  6.031264  0  0  1.361011  0  6.007173  0  0  0.553414  1.282472  0  6.047367  0
S  S67  1  0.77170674  0.23086580  0.41579309  1  0  1.413109  0  5.502983  0  0  1.314449  0  6.030806  0  0  1.360855  0  6.006731  0  0  0.553432  1.282305  0  6.046911  0
O  O68  1  0.25162906  0.53778353  0.25330499  1  0  -0.96327  0  1.955007  0  0  -0.897339  0  2.235933  0  0  -0.919973  0  2.211346  0  0  -0.487146  -0.881288  0  2.252531  0
O  O69  1  0.24837714  0.46221571  0.75330621  1  0  -0.963295  0  1.954833  0  0  -0.89738  0  2.235777  0  0  -0.920012  0  2.21119  0  0  -0.487192  -0.881333  0  2.252375  0
O  O70  1  0.74837152  0.46221655  0.74669559  1  0  -0.963269  0  1.955069  0  0  -0.897352  0  2.23602  0  0  -0.919985  0  2.211432  0  0  -0.487145  -0.8813  0  2.252618  0
O  O71  1  0.75162584  0.53778341  0.24669437  1  0  -0.96327  0  1.954832  0  0  -0.89737  0  2.235814  0  0  -0.920003  0  2.211222  0  0  -0.487179  -0.881321  0  2.252406  0
O  O72  1  0.10181686  0.57110221  0.08271251  1  0  -1.054124  0  1.973391  0  0  -0.984491  0  2.252202  0  0  -1.007064  0  2.228994  0  0  -0.501043  -0.968281  0  2.268011  0
O  O73  1  0.39818284  0.42889776  0.58271215  1  0  -1.054147  0  1.973608  0  0  -0.984505  0  2.252411  0  0  -1.007082  0  2.229212  0  0  -0.501021  -0.968286  0  2.268217  0
O  O74  1  0.89818371  0.42889787  0.91728807  1  0  -1.054143  0  1.973419  0  0  -0.984505  0  2.252228  0  0  -1.007081  0  2.229024  0  0  -0.501054  -0.968291  0  2.268033  0
O  O75  1  0.60181736  0.57110136  0.41728768  1  0  -1.05412  0  1.973571  0  0  -0.98448  0  2.252388  0  0  -1.007059  0  2.22919  0  0  -0.501016  -0.96826  0  2.268192  0
O  O76  1  0.44041616  0.56161845  0.08650033  1  0  -1.079452  0  2.057596  0  0  -1.013392  0  2.340327  0  0  -1.035947  0  2.317403  0  0  -0.508817  -0.997001  0  2.355491  0
O  O77  1  0.05959023  0.43838440  0.58650308  1  0  -1.079499  0  2.057743  0  0  -1.013409  0  2.340422  0  0  -1.035966  0  2.317502  0  0  -0.508794  -0.997009  0  2.355577  0
O  O78  1  0.55958441  0.43838162  0.91349950  1  0  -1.079474  0  2.057654  0  0  -1.013403  0  2.340365  0  0  -1.035962  0  2.317451  0  0  -0.508825  -0.997015  0  2.355534  0
O  O79  1  0.94041034  0.56161568  0.41349825  1  0  -1.079502  0  2.057746  0  0  -1.013415  0  2.340434  0  0  -1.035966  0  2.317505  0  0  -0.50881  -0.997025  0  2.355611  0
O  O80  1  0.15197550  0.21836573  0.17578993  1  0  -0.679361  0  1.975474  0  0  -0.608262  0  2.202715  0  0  -0.630825  0  2.188452  0  0  -0.313919  -0.592694  0  2.212182  0
O  O81  1  0.34803381  0.78164488  0.67580044  1  0  -0.679719  0  1.974601  0  0  -0.608426  0  2.201717  0  0  -0.630985  0  2.187461  0  0  -0.314029  -0.592804  0  2.21115  0
O  O82  1  0.84802935  0.78163817  0.82420990  1  0  -0.679437  0  1.975564  0  0  -0.608348  0  2.20282  0  0  -0.63091  0  2.188556  0  0  -0.313969  -0.592777  0  2.212289  0
O  O83  1  0.65196676  0.21835520  0.32420014  1  0  -0.679701  0  1.974629  0  0  -0.608411  0  2.201738  0  0  -0.630971  0  2.187481  0  0  -0.314031  -0.592781  0  2.211165  0
O  O84  1  0.47503681  0.29272948  0.10509752  1  0  -0.74422  0  2.048989  0  0  -0.68979  0  2.325251  0  0  -0.709808  0  2.309007  0  0  -0.385461  -0.67585  0  2.336419  0
O  O85  1  0.02497198  0.70727244  0.60510054  1  0  -0.744097  0  2.049387  0  0  -0.689643  0  2.325706  0  0  -0.709657  0  2.30946  0  0  -0.385343  -0.675699  0  2.336885  0
O  O86  1  0.52496516  0.70727060  0.89490005  1  0  -0.744188  0  2.049031  0  0  -0.689757  0  2.325302  0  0  -0.709775  0  2.309056  0  0  -0.385426  -0.675816  0  2.336472  0
O  O87  1  0.97502859  0.29272763  0.39489928  1  0  -0.744059  0  2.049388  0  0  -0.689604  0  2.325705  0  0  -0.709621  0  2.309459  0  0  -0.385331  -0.675662  0  2.336883  0
O  O88  1  0.18902342  0.28878186  0.00031883  1  0  -0.76271  0  1.977312  0  0  -0.719428  0  2.254702  0  0  -0.737929  0  2.236829  0  0  -0.383514  -0.706448  0  2.266504  0
O  O89  1  0.31097633  0.71121800  0.50032703  1  0  -0.762655  0  1.977477  0  0  -0.719395  0  2.254988  0  0  -0.737891  0  2.237113  0  0  -0.38354  -0.706413  0  2.266798  0
O  O90  1  0.81097539  0.71121725  0.99968024  1  0  -0.762727  0  1.977324  0  0  -0.719451  0  2.254721  0  0  -0.737949  0  2.236847  0  0  -0.383529  -0.706469  0  2.266523  0
O  O91  1  0.68902424  0.28878207  0.49967279  1  0  -0.762664  0  1.977518  0  0  -0.719393  0  2.255003  0  0  -0.737888  0  2.237129  0  0  -0.383544  -0.706413  0  2.266817  0
O  O92  1  0.33495866  0.30093002  0.35395068  1  0  -0.921696  0  1.847224  0  0  -0.883778  0  2.047793  0  0  -0.900086  0  2.015215  0  0  -0.65466  -0.872089  0  2.070245  0
O  O93  1  0.16505203  0.69907030  0.85395065  1  0  -0.921815  0  1.847225  0  0  -0.883896  0  2.047775  0  0  -0.900206  0  2.015194  0  0  -0.654689  -0.872212  0  2.070224  0
O  O94  1  0.66504331  0.69907006  0.64604989  1  0  -0.921739  0  1.847213  0  0  -0.883829  0  2.04778  0  0  -0.900139  0  2.015203  0  0  -0.654666  -0.872138  0  2.07023  0
O  O95  1  0.83494993  0.30092977  0.14604918  1  0  -0.921715  0  1.84726  0  0  -0.883786  0  2.047807  0  0  -0.900099  0  2.015229  0  0  -0.654635  -0.872106  0  2.070256  0
