# generated using pymatgen
data_SmH9C10NO7
_symmetry_space_group_name_H-M   'P 1'
_cell_length_a   8.78133183
_cell_length_b   9.16831583
_cell_length_c   15.50997833
_cell_angle_alpha   90.00008496
_cell_angle_beta   89.99991741
_cell_angle_gamma   99.15354767
_symmetry_Int_Tables_number   1
_chemical_formula_structural   SmH9C10NO7
_chemical_formula_sum   'Sm4 H36 C40 N4 O28'
_cell_volume   1232.80711912
_cell_formula_units_Z   4
loop_
 _symmetry_equiv_pos_site_id
 _symmetry_equiv_pos_as_xyz
  1  'x, y, z'
loop_
 _atom_site_type_symbol
 _atom_site_label
 _atom_site_symmetry_multiplicity
 _atom_site_fract_x
 _atom_site_fract_y
 _atom_site_fract_z
 _atom_site_occupancy
 _atom_site_hle17_bader_spin_density
 _atom_site_hle17_ddec_charge
 _atom_site_hle17_ddec_spin_density
 _atom_site_hle17_ddec_sum_bond_order
 _atom_site_hle17_magmom
 _atom_site_hse06_10hf_bader_spin_density
 _atom_site_hse06_10hf_ddec_charge
 _atom_site_hse06_10hf_ddec_spin_density
 _atom_site_hse06_10hf_ddec_sum_bond_order
 _atom_site_hse06_10hf_magmom
 _atom_site_hse06_bader_spin_density
 _atom_site_hse06_ddec_charge
 _atom_site_hse06_ddec_spin_density
 _atom_site_hse06_ddec_sum_bond_order
 _atom_site_hse06_magmom
 _atom_site_pbe_bader_spin_density
 _atom_site_pbe_cm5_charge
 _atom_site_pbe_ddec_charge
 _atom_site_pbe_ddec_spin_density
 _atom_site_pbe_ddec_sum_bond_order
 _atom_site_pbe_magmom
Sm  Sm0  1  0.96964135  0.89599458  0.11466940  1  0  2.274587  0  1.610864  0  0  2.102697  0  2.085785  0  0  2.217916  0  1.914753  0  0  1.487085  2.067866  0  2.118488  0
Sm  Sm1  1  0.53035907  0.10400415  0.61466864  1  0  2.274579  0  1.610887  0  0  2.102655  0  2.085873  0  0  2.217912  0  1.914775  0  0  1.487101  2.067835  0  2.11858  0
Sm  Sm2  1  0.03035931  0.10400247  0.88533138  1  0  2.274559  0  1.6109  0  0  2.102618  0  2.085903  0  0  2.217886  0  1.914792  0  0  1.487082  2.067786  0  2.118603  0
Sm  Sm3  1  0.46964099  0.89599620  0.38533085  1  0  2.274572  0  1.61091  0  0  2.102643  0  2.0859  0  0  2.2179  0  1.914803  0  0  1.487085  2.067816  0  2.118602  0
H  H4  1  0.49034623  0.20145297  0.09918056  1  0  0.098534  0  0.956626  0  0  0.113445  0  1.017531  0  0  0.114707  0  1.01814  0  0  0.097942  0.112645  0  1.016797  0
H  H5  1  0.00965409  0.79854839  0.59917913  1  0  0.098523  0  0.9567  0  0  0.113444  0  1.017587  0  0  0.114707  0  1.018197  0  0  0.097948  0.112642  0  1.016853  0
H  H6  1  0.50965401  0.79854850  0.90081958  1  0  0.09853  0  0.956651  0  0  0.113447  0  1.017566  0  0  0.114709  0  1.018176  0  0  0.097944  0.112645  0  1.016832  0
H  H7  1  0.99034597  0.20145197  0.40081907  1  0  0.098535  0  0.956624  0  0  0.113447  0  1.017539  0  0  0.114709  0  1.018149  0  0  0.09794  0.112647  0  1.016801  0
H  H8  1  0.39701343  0.27466227  0.01002318  1  0  0.109734  0  0.92143  0  0  0.123106  0  0.979205  0  0  0.125397  0  0.978362  0  0  0.103783  0.121755  0  0.979104  0
H  H9  1  0.10298402  0.72534108  0.51002226  1  0  0.109756  0  0.921443  0  0  0.123123  0  0.979222  0  0  0.125415  0  0.978378  0  0  0.103754  0.121774  0  0.979116  0
H  H10  1  0.60298339  0.72533917  0.98997695  1  0  0.109715  0  0.921506  0  0  0.12312  0  0.979245  0  0  0.125412  0  0.978401  0  0  0.103751  0.121768  0  0.979143  0
H  H11  1  0.89701429  0.27466258  0.48997594  1  0  0.109762  0  0.921404  0  0  0.123139  0  0.979178  0  0  0.12543  0  0.978335  0  0  0.103798  0.121789  0  0.979075  0
H  H12  1  0.41142842  0.05265328  0.92380579  1  0  0.072694  0  0.973894  0  0  0.089567  0  1.038044  0  0  0.09053  0  1.039304  0  0  0.09649  0.088245  0  1.03819  0
H  H13  1  0.08857022  0.94734988  0.42380626  1  0  0.072846  0  0.973849  0  0  0.08969  0  1.037991  0  0  0.090654  0  1.039249  0  0  0.096529  0.088368  0  1.038135  0
H  H14  1  0.58857103  0.94735038  0.07619306  1  0  0.072775  0  0.973806  0  0  0.089642  0  1.03794  0  0  0.090605  0  1.039196  0  0  0.096511  0.088321  0  1.038083  0
H  H15  1  0.91142809  0.05265378  0.57619324  1  0  0.072727  0  0.973829  0  0  0.089546  0  1.038024  0  0  0.090509  0  1.039287  0  0  0.09647  0.088225  0  1.038171  0
H  H16  1  0.59681580  0.13618792  0.95732288  1  0  0.078726  0  0.94226  0  0  0.098595  0  0.997249  0  0  0.099841  0  0.997567  0  0  0.097017  0.097647  0  0.997005  0
H  H17  1  0.90318326  0.86381487  0.45732302  1  0  0.078721  0  0.94227  0  0  0.098614  0  0.997209  0  0  0.099858  0  0.997526  0  0  0.097039  0.097666  0  0.996961  0
H  H18  1  0.40318347  0.86381464  0.04267661  1  0  0.078713  0  0.942263  0  0  0.098611  0  0.997202  0  0  0.099856  0  0.997519  0  0  0.097036  0.097663  0  0.996954  0
H  H19  1  0.09681487  0.13618769  0.54267647  1  0  0.078728  0  0.942307  0  0  0.098587  0  0.997274  0  0  0.099832  0  0.997593  0  0  0.097028  0.097641  0  0.997029  0
H  H20  1  0.70772946  0.23115268  0.21769580  1  0  0.125723  0  0.942555  0  0  0.134354  0  1.001627  0  0  0.138567  0  0.997529  0  0  0.118983  0.131129  0  1.004864  0
H  H21  1  0.79227241  0.76884960  0.71769154  1  0  0.125699  0  0.942661  0  0  0.134462  0  1.001547  0  0  0.138686  0  0.997444  0  0  0.119013  0.131237  0  1.00478  0
H  H22  1  0.29227288  0.76884769  0.78230756  1  0  0.125665  0  0.942685  0  0  0.134394  0  1.001627  0  0  0.138618  0  0.997525  0  0  0.119001  0.131168  0  1.004866  0
H  H23  1  0.20772957  0.23114856  0.28230795  1  0  0.125678  0  0.94268  0  0  0.134446  0  1.001567  0  0  0.13867  0  0.997464  0  0  0.118994  0.131221  0  1.0048  0
H  H24  1  0.89558602  0.52455160  0.01338609  1  0  0.087329  0  0.947417  0  0  0.092753  0  1.015114  0  0  0.096248  0  1.011101  0  0  0.122526  0.090144  0  1.017921  0
H  H25  1  0.60441462  0.47544691  0.51338495  1  0  0.087298  0  0.947414  0  0  0.092735  0  1.0151  0  0  0.096228  0  1.01109  0  0  0.122544  0.090145  0  1.017886  0
H  H26  1  0.10441350  0.47544544  0.98661341  1  0  0.087321  0  0.947402  0  0  0.092744  0  1.015097  0  0  0.096238  0  1.011084  0  0  0.122526  0.09014  0  1.017893  0
H  H27  1  0.39558526  0.52455234  0.48661455  1  0  0.087308  0  0.947444  0  0  0.09274  0  1.015127  0  0  0.096233  0  1.011117  0  0  0.122546  0.090155  0  1.017909  0
H  H28  1  0.61607952  0.45103508  0.28839364  1  0  0.121358  0  0.931318  0  0  0.130467  0  0.98845  0  0  0.134084  0  0.987342  0  0  0.115342  0.127921  0  0.989118  0
H  H29  1  0.88392009  0.54896844  0.78839170  1  0  0.121321  0  0.931334  0  0  0.130429  0  0.988477  0  0  0.134047  0  0.987369  0  0  0.115315  0.127882  0  0.989139  0
H  H30  1  0.38391844  0.54896637  0.71160649  1  0  0.121351  0  0.931328  0  0  0.130459  0  0.988459  0  0  0.134077  0  0.98735  0  0  0.11533  0.127914  0  0.989128  0
H  H31  1  0.11607961  0.45102971  0.21160844  1  0  0.121324  0  0.931343  0  0  0.130428  0  0.988485  0  0  0.134045  0  0.987378  0  0  0.115313  0.127881  0  0.989145  0
H  H32  1  0.91673865  0.01474770  0.29349714  1  0  0.440131  0  0.854402  0  0  0.409906  0  0.916595  0  0  0.421074  0  0.900528  0  0  0.299288  0.402113  0  0.927904  0
H  H33  1  0.58326042  0.98525252  0.79349711  1  0  0.440139  0  0.854398  0  0  0.40991  0  0.916599  0  0  0.421078  0  0.900531  0  0  0.299286  0.402117  0  0.927906  0
H  H34  1  0.08326159  0.98525377  0.70650235  1  0  0.440126  0  0.854408  0  0  0.409892  0  0.916618  0  0  0.42106  0  0.900551  0  0  0.299282  0.4021  0  0.927924  0
H  H35  1  0.41673981  0.01474894  0.20650238  1  0  0.440156  0  0.854362  0  0  0.409929  0  0.916561  0  0  0.421096  0  0.900495  0  0  0.299301  0.402135  0  0.927869  0
H  H36  1  0.09063950  0.97767696  0.28399756  1  0  0.430783  0  0.871903  0  0  0.401095  0  0.934423  0  0  0.411971  0  0.918599  0  0  0.300672  0.392854  0  0.946764  0
H  H37  1  0.40935874  0.02232148  0.78399707  1  0  0.430728  0  0.871981  0  0  0.401033  0  0.934514  0  0  0.411909  0  0.918689  0  0  0.300639  0.392791  0  0.946857  0
H  H38  1  0.90935924  0.02232229  0.71600322  1  0  0.430714  0  0.871996  0  0  0.401013  0  0.934541  0  0  0.41189  0  0.918715  0  0  0.300642  0.392771  0  0.946884  0
H  H39  1  0.59064132  0.97767887  0.21600242  1  0  0.43073  0  0.871966  0  0  0.401036  0  0.934499  0  0  0.411911  0  0.918677  0  0  0.300643  0.392794  0  0.946842  0
C  C40  1  0.26236955  0.09167120  0.07341977  1  0  0.745022  0  3.805723  0  0  0.703767  0  4.092571  0  0  0.737257  0  4.09008  0  0  0.223448  0.680695  0  4.098666  0
C  C41  1  0.23762758  0.90833118  0.57341890  1  0  0.745075  0  3.805694  0  0  0.703753  0  4.092639  0  0  0.737245  0  4.090151  0  0  0.223468  0.680692  0  4.098713  0
C  C42  1  0.73763068  0.90833026  0.92658037  1  0  0.744883  0  3.805851  0  0  0.703727  0  4.092577  0  0  0.737216  0  4.090092  0  0  0.223444  0.680662  0  4.098659  0
C  C43  1  0.76237038  0.09167027  0.42657995  1  0  0.745102  0  3.805609  0  0  0.703821  0  4.092495  0  0  0.737311  0  4.090007  0  0  0.223482  0.680752  0  4.098584  0
C  C44  1  0.41483660  0.17293263  0.04330364  1  0  -0.266082  0  3.659106  0  0  -0.303139  0  3.908118  0  0  -0.308674  0  3.915424  0  0  -0.160777  -0.299228  0  3.902393  0
C  C45  1  0.08516174  0.82706970  0.54330283  1  0  -0.266123  0  3.659225  0  0  -0.303175  0  3.908238  0  0  -0.308716  0  3.915544  0  0  -0.160768  -0.299259  0  3.902498  0
C  C46  1  0.58516267  0.82706993  0.95669650  1  0  -0.266004  0  3.659206  0  0  -0.303149  0  3.908217  0  0  -0.308687  0  3.915524  0  0  -0.160736  -0.299232  0  3.902479  0
C  C47  1  0.91483622  0.17293176  0.45669602  1  0  -0.266135  0  3.659114  0  0  -0.303226  0  3.908141  0  0  -0.308762  0  3.915448  0  0  -0.160798  -0.299307  0  3.902403  0
C  C48  1  0.48726597  0.07342446  0.98021977  1  0  -0.090789  0  3.639353  0  0  -0.130893  0  3.898373  0  0  -0.132097  0  3.911739  0  0  -0.163346  -0.129823  0  3.88881  0
C  C49  1  0.01273483  0.92657884  0.48022028  1  0  -0.090933  0  3.63949  0  0  -0.130981  0  3.898405  0  0  -0.132178  0  3.911767  0  0  -0.163388  -0.129909  0  3.888834  0
C  C50  1  0.51273444  0.92657810  0.01977972  1  0  -0.090839  0  3.639295  0  0  -0.130904  0  3.898306  0  0  -0.132102  0  3.91167  0  0  -0.163359  -0.129833  0  3.888735  0
C  C51  1  0.98726576  0.07342484  0.51977921  1  0  -0.090807  0  3.63948  0  0  -0.130801  0  3.898365  0  0  -0.132009  0  3.911737  0  0  -0.163315  -0.129732  0  3.8888  0
C  C52  1  0.85544137  0.23132694  0.06288314  1  0  0.703899  0  3.877848  0  0  0.657662  0  4.1707  0  0  0.692974  0  4.164838  0  0  0.232188  0.634043  0  4.176363  0
C  C53  1  0.64456127  0.76867059  0.56287965  1  0  0.70396  0  3.877872  0  0  0.657666  0  4.170759  0  0  0.692979  0  4.164897  0  0  0.232122  0.634043  0  4.176432  0
C  C54  1  0.14456272  0.76867013  0.93712022  1  0  0.703795  0  3.877924  0  0  0.657533  0  4.170798  0  0  0.692844  0  4.164937  0  0  0.232046  0.633917  0  4.176462  0
C  C55  1  0.35543957  0.23132756  0.43711920  1  0  0.703972  0  3.87792  0  0  0.657707  0  4.170753  0  0  0.693019  0  4.16489  0  0  0.232188  0.634089  0  4.176421  0
C  C56  1  0.80512860  0.36065927  0.10886394  1  0  -0.105038  0  3.686532  0  0  -0.081187  0  3.921817  0  0  -0.091696  0  3.94173  0  0  -0.002761  -0.074198  0  3.907003  0
C  C57  1  0.69487597  0.63934389  0.60886158  1  0  -0.105146  0  3.686608  0  0  -0.081201  0  3.921803  0  0  -0.09171  0  3.941719  0  0  -0.002786  -0.074211  0  3.906995  0
C  C58  1  0.19487584  0.63934001  0.89113749  1  0  -0.105139  0  3.68656  0  0  -0.081229  0  3.921778  0  0  -0.091736  0  3.941694  0  0  -0.002777  -0.074242  0  3.906966  0
C  C59  1  0.30512391  0.36065536  0.39113856  1  0  -0.105111  0  3.686606  0  0  -0.081177  0  3.921793  0  0  -0.091686  0  3.941708  0  0  -0.002822  -0.074193  0  3.906995  0
C  C60  1  0.73023017  0.34070351  0.18875189  1  0  -0.001298  0  3.657202  0  0  -0.029015  0  3.905421  0  0  -0.02352  0  3.919354  0  0  -0.052535  -0.032292  0  3.895588  0
C  C61  1  0.76977194  0.65929981  0.68874755  1  0  -0.001262  0  3.657287  0  0  -0.029068  0  3.905378  0  0  -0.023587  0  3.919325  0  0  -0.052552  -0.032343  0  3.895535  0
C  C62  1  0.26977235  0.65929797  0.81125018  1  0  -0.001142  0  3.657211  0  0  -0.028937  0  3.905368  0  0  -0.023456  0  3.919312  0  0  -0.05251  -0.032218  0  3.89554  0
C  C63  1  0.23022680  0.34069944  0.31125194  1  0  -0.001255  0  3.657263  0  0  -0.029076  0  3.905355  0  0  -0.023594  0  3.919301  0  0  -0.05253  -0.03235  0  3.895513  0
C  C64  1  0.66632426  0.73530401  0.22706807  1  0  0.662848  0  3.88011  0  0  0.61617  0  4.168499  0  0  0.650444  0  4.162168  0  0  0.236387  0.59283  0  4.175471  0
C  C65  1  0.83367776  0.26469939  0.72706849  1  0  0.662865  0  3.879976  0  0  0.616052  0  4.168541  0  0  0.65033  0  4.162209  0  0  0.236288  0.592715  0  4.175507  0
C  C66  1  0.33367466  0.26469634  0.77293272  1  0  0.662853  0  3.880094  0  0  0.616195  0  4.168432  0  0  0.650476  0  4.162096  0  0  0.236373  0.592857  0  4.175407  0
C  C67  1  0.16632080  0.73529875  0.27293229  1  0  0.662887  0  3.880041  0  0  0.61612  0  4.168601  0  0  0.650396  0  4.162263  0  0  0.236316  0.592777  0  4.175574  0
C  C68  1  0.83558549  0.50370177  0.07465891  1  0  0.148604  0  3.673709  0  0  0.109857  0  3.934132  0  0  0.118209  0  3.950135  0  0  0.065985  0.105095  0  3.924032  0
C  C69  1  0.66441502  0.49629688  0.57465710  1  0  0.148714  0  3.673499  0  0  0.109923  0  3.93392  0  0  0.118277  0  3.949923  0  0  0.066007  0.105149  0  3.92382  0
C  C70  1  0.16441403  0.49629527  0.92534122  1  0  0.148676  0  3.673668  0  0  0.109926  0  3.934058  0  0  0.118281  0  3.95006  0  0  0.066014  0.105162  0  3.923952  0
C  C71  1  0.33558469  0.50370127  0.42534304  1  0  0.148668  0  3.673601  0  0  0.109896  0  3.93399  0  0  0.11825  0  3.949992  0  0  0.065993  0.105115  0  3.923897  0
C  C72  1  0.71612416  0.59942776  0.18910081  1  0  0.106682  0  3.756471  0  0  0.110819  0  3.998418  0  0  0.11273  0  4.018619  0  0  0.118811  0.109128  0  3.986768  0
C  C73  1  0.78387795  0.40057556  0.68909946  1  0  0.106669  0  3.756567  0  0  0.110885  0  3.998469  0  0  0.112801  0  4.018662  0  0  0.118875  0.109196  0  3.986819  0
C  C74  1  0.28387590  0.40057259  0.81089803  1  0  0.106677  0  3.756524  0  0  0.110831  0  3.998422  0  0  0.112732  0  4.018643  0  0  0.118801  0.109138  0  3.986776  0
C  C75  1  0.21612079  0.59942369  0.31090067  1  0  0.106773  0  3.756537  0  0  0.110862  0  3.998587  0  0  0.112778  0  4.01878  0  0  0.118853  0.109176  0  3.986931  0
C  C76  1  0.68064302  0.46120158  0.22815369  1  0  -0.10143  0  3.6806  0  0  -0.121427  0  3.926256  0  0  -0.126812  0  3.94494  0  0  -0.068695  -0.117405  0  3.912997  0
C  C77  1  0.81935751  0.53879961  0.72815179  1  0  -0.101424  0  3.680619  0  0  -0.121464  0  3.926303  0  0  -0.126851  0  3.94499  0  0  -0.068686  -0.117432  0  3.913027  0
C  C78  1  0.31935704  0.53879878  0.77184709  1  0  -0.101477  0  3.680586  0  0  -0.121499  0  3.926277  0  0  -0.12688  0  3.944966  0  0  -0.068699  -0.117476  0  3.913021  0
C  C79  1  0.18064123  0.46119964  0.27184835  1  0  -0.1015  0  3.680629  0  0  -0.121485  0  3.926329  0  0  -0.126872  0  3.945016  0  0  -0.068708  -0.117456  0  3.913053  0
N  N80  1  0.79739240  0.62174481  0.11503557  1  0  -0.408728  0  3.226953  0  0  -0.364766  0  3.499598  0  0  -0.384167  0  3.51714  0  0  -0.353839  -0.356006  0  3.488853  0
N  N81  1  0.70260916  0.37825393  0.61503427  1  0  -0.408747  0  3.226885  0  0  -0.364803  0  3.499534  0  0  -0.384208  0  3.517071  0  0  -0.353868  -0.356046  0  3.488806  0
N  N82  1  0.20260599  0.37825223  0.88496328  1  0  -0.408753  0  3.226966  0  0  -0.364804  0  3.499609  0  0  -0.384207  0  3.517153  0  0  -0.353846  -0.356044  0  3.488865  0
N  N83  1  0.29738940  0.62174421  0.38496523  1  0  -0.408755  0  3.226916  0  0  -0.364771  0  3.499584  0  0  -0.384176  0  3.517123  0  0  -0.353828  -0.356016  0  3.488857  0
O  O84  1  0.72320264  0.85793550  0.19157159  1  0  -0.711379  0  2.115453  0  0  -0.652443  0  2.359502  0  0  -0.684844  0  2.347528  0  0  -0.365105  -0.634021  0  2.366811  0
O  O85  1  0.77679437  0.14206449  0.69157131  1  0  -0.711395  0  2.11533  0  0  -0.652384  0  2.359411  0  0  -0.684798  0  2.347435  0  0  -0.365077  -0.63396  0  2.366717  0
O  O86  1  0.27679645  0.14206596  0.80842790  1  0  -0.711363  0  2.115497  0  0  -0.652396  0  2.359487  0  0  -0.684819  0  2.347535  0  0  -0.365069  -0.633974  0  2.366796  0
O  O87  1  0.22320305  0.85793365  0.30842883  1  0  -0.711404  0  2.115391  0  0  -0.65241  0  2.359458  0  0  -0.68483  0  2.347507  0  0  -0.36508  -0.633989  0  2.366767  0
O  O88  1  0.00825914  0.02212992  0.25483466  1  0  -0.908908  0  1.877129  0  0  -0.864983  0  2.071928  0  0  -0.891256  0  2.034849  0  0  -0.645273  -0.851667  0  2.09551  0
O  O89  1  0.49174145  0.97786847  0.75483365  1  0  -0.908845  0  1.877156  0  0  -0.864902  0  2.071948  0  0  -0.891179  0  2.034864  0  0  -0.645228  -0.851585  0  2.095526  0
O  O90  1  0.99174188  0.97786934  0.74516612  1  0  -0.908828  0  1.877145  0  0  -0.86488  0  2.071932  0  0  -0.891158  0  2.034849  0  0  -0.645236  -0.851563  0  2.095508  0
O  O91  1  0.50825747  0.02213188  0.24516520  1  0  -0.908886  0  1.877105  0  0  -0.864933  0  2.071882  0  0  -0.891206  0  2.034801  0  0  -0.64526  -0.851618  0  2.095458  0
O  O92  1  0.85132244  0.11516664  0.10756659  1  0  -0.694785  0  2.047698  0  0  -0.642622  0  2.299885  0  0  -0.67583  0  2.288555  0  0  -0.381652  -0.62529  0  2.306572  0
O  O93  1  0.64868142  0.88483209  0.60756383  1  0  -0.694721  0  2.047638  0  0  -0.642579  0  2.299914  0  0  -0.675795  0  2.288585  0  0  -0.381555  -0.625234  0  2.306576  0
O  O94  1  0.14868375  0.88482933  0.89243871  1  0  -0.694628  0  2.047837  0  0  -0.642493  0  2.300087  0  0  -0.675708  0  2.288763  0  0  -0.381501  -0.625139  0  2.30672  0
O  O95  1  0.35131978  0.11516827  0.39243566  1  0  -0.694752  0  2.047696  0  0  -0.642618  0  2.299954  0  0  -0.675832  0  2.288627  0  0  -0.381596  -0.625273  0  2.306616  0
O  O96  1  0.25258138  0.01236394  0.14102976  1  0  -0.672885  0  1.993244  0  0  -0.610144  0  2.214889  0  0  -0.641383  0  2.205455  0  0  -0.334007  -0.592612  0  2.22071  0
O  O97  1  0.24741771  0.98763750  0.64102895  1  0  -0.672892  0  1.99322  0  0  -0.610131  0  2.214917  0  0  -0.641373  0  2.205481  0  0  -0.333988  -0.5926  0  2.220733  0
O  O98  1  0.74741982  0.98763642  0.85897038  1  0  -0.672845  0  1.993328  0  0  -0.610119  0  2.214915  0  0  -0.641363  0  2.205479  0  0  -0.334003  -0.592587  0  2.220733  0
O  O99  1  0.75258138  0.01236396  0.35896990  1  0  -0.672922  0  1.993248  0  0  -0.610164  0  2.214899  0  0  -0.641406  0  2.205462  0  0  -0.334016  -0.592626  0  2.220715  0
O  O100  1  0.14110738  0.09456381  0.02736817  1  0  -0.837537  0  2.160599  0  0  -0.776993  0  2.42338  0  0  -0.81892  0  2.411819  0  0  -0.44025  -0.758524  0  2.430132  0
O  O101  1  0.35889178  0.90543628  0.52736656  1  0  -0.837533  0  2.16055  0  0  -0.776971  0  2.423389  0  0  -0.8189  0  2.411822  0  0  -0.440255  -0.758501  0  2.430133  0
O  O102  1  0.85889364  0.90543545  0.97263261  1  0  -0.837484  0  2.160624  0  0  -0.776984  0  2.423375  0  0  -0.818913  0  2.411823  0  0  -0.440249  -0.758518  0  2.43013  0
O  O103  1  0.64110714  0.09456407  0.47263294  1  0  -0.837556  0  2.160519  0  0  -0.777002  0  2.423324  0  0  -0.81893  0  2.411757  0  0  -0.440266  -0.758531  0  2.430075  0
O  O104  1  0.89708822  0.24847904  0.98433768  1  0  -0.722651  0  2.003329  0  0  -0.67836  0  2.259505  0  0  -0.711789  0  2.246399  0  0  -0.380749  -0.661556  0  2.266544  0
O  O105  1  0.60291139  0.75152051  0.48433603  1  0  -0.722709  0  2.003369  0  0  -0.678407  0  2.259561  0  0  -0.711833  0  2.246452  0  0  -0.38076  -0.661603  0  2.266607  0
O  O106  1  0.10291323  0.75151581  0.01566633  1  0  -0.722688  0  2.0033  0  0  -0.678392  0  2.259468  0  0  -0.711813  0  2.246359  0  0  -0.380755  -0.661589  0  2.266506  0
O  O107  1  0.39708735  0.24847874  0.51566411  1  0  -0.722697  0  2.003385  0  0  -0.678401  0  2.259557  0  0  -0.711828  0  2.246446  0  0  -0.380761  -0.661601  0  2.266603  0
O  O108  1  0.57158959  0.72074891  0.28887476  1  0  -0.685133  0  2.020174  0  0  -0.638306  0  2.265343  0  0  -0.670992  0  2.253554  0  0  -0.367001  -0.621541  0  2.271279  0
O  O109  1  0.92840967  0.27925241  0.78887383  1  0  -0.685137  0  2.020178  0  0  -0.638271  0  2.265411  0  0  -0.670957  0  2.253622  0  0  -0.366971  -0.621498  0  2.27134  0
O  O110  1  0.42841161  0.27925146  0.71112409  1  0  -0.68518  0  2.02009  0  0  -0.63837  0  2.265247  0  0  -0.671053  0  2.253452  0  0  -0.367051  -0.621603  0  2.271185  0
O  O111  1  0.07158758  0.72074462  0.21112631  1  0  -0.68516  0  2.020176  0  0  -0.638296  0  2.265379  0  0  -0.670975  0  2.253591  0  0  -0.366964  -0.621528  0  2.271313  0
