# generated using pymatgen
data_CuH6C7O4
_symmetry_space_group_name_H-M   'P 1'
_cell_length_a   8.52874677
_cell_length_b   8.52878191
_cell_length_c   14.55927585
_cell_angle_alpha   90.00003654
_cell_angle_beta   90.00000264
_cell_angle_gamma   89.99994670
_symmetry_Int_Tables_number   1
_chemical_formula_structural   CuH6C7O4
_chemical_formula_sum   'Cu4 H24 C28 O16'
_cell_volume   1059.03912197
_cell_formula_units_Z   4
loop_
 _symmetry_equiv_pos_site_id
 _symmetry_equiv_pos_as_xyz
  1  'x, y, z'
loop_
 _atom_site_type_symbol
 _atom_site_label
 _atom_site_symmetry_multiplicity
 _atom_site_fract_x
 _atom_site_fract_y
 _atom_site_fract_z
 _atom_site_occupancy
 _atom_site_pbe_bader_charge
 _atom_site_pbe_bader_spin_density
 _atom_site_pbe_cm5_charge
 _atom_site_pbe_ddec_charge
 _atom_site_pbe_ddec_spin_density
 _atom_site_pbe_ddec_sum_bond_order
 _atom_site_pbe_magmom
Cu  Cu0  1  0.50000038  0.85714561  0.00000017  1  1.007783  0.536319  0.698774  0.81975  0.700733  2.205542  0.539
Cu  Cu1  1  0.49999954  0.14286659  0.00000003  1  1.047837  0.537529  0.698817  0.819748  0.70071  2.205667  0.539
Cu  Cu2  1  0.14286134  0.49999892  0.50000024  1  1.007725  0.536308  0.69878  0.819833  0.700721  2.205606  0.539
Cu  Cu3  1  0.85713861  0.49999859  0.49999956  1  1.04799  0.537538  0.698793  0.819865  0.700715  2.205398  0.539
H  H4  1  0.74666619  0.84947891  0.70684851  1  0.053125  0.000493  0.098348  0.112052  0.000311  0.970846  0.0
H  H5  1  0.25333261  0.15051883  0.70684769  1  0.053132  0.000493  0.098344  0.112067  0.000311  0.970853  0.0
H  H6  1  0.15051884  0.74666704  0.20684765  1  0.053125  0.000493  0.098347  0.112051  0.000311  0.970864  0.0
H  H7  1  0.84948226  0.25333249  0.20684963  1  0.053163  0.000493  0.098312  0.112004  0.000311  0.970841  0.0
H  H8  1  0.25333344  0.84947891  0.29315142  1  0.053138  0.000493  0.098361  0.112076  0.000311  0.970833  0.0
H  H9  1  0.74666650  0.15051720  0.29315267  1  0.053117  0.000493  0.098342  0.112039  0.000311  0.970856  0.0
H  H10  1  0.84948088  0.74666704  0.79315292  1  0.053123  0.000493  0.098345  0.112044  0.000311  0.970867  0.0
H  H11  1  0.15051792  0.25333079  0.79315076  1  0.05317  0.000493  0.098302  0.112009  0.000311  0.970875  0.0
H  H12  1  0.25333259  0.15051743  0.29315266  1  0.053129  0.000493  0.098346  0.112049  0.000311  0.970853  0.0
H  H13  1  0.74666735  0.84947985  0.29315142  1  0.053137  0.000493  0.098357  0.112063  0.000311  0.970854  0.0
H  H14  1  0.84948228  0.25333164  0.79315077  1  0.053159  0.000493  0.098314  0.11201  0.000311  0.970825  0.0
H  H15  1  0.15051887  0.74666736  0.79315291  1  0.053126  0.000493  0.098341  0.112048  0.000311  0.970844  0.0
H  H16  1  0.74666652  0.15051860  0.70684769  1  0.05312  0.000493  0.098342  0.112045  0.000311  0.970858  0.0
H  H17  1  0.25333345  0.84947913  0.70684850  1  0.053138  0.000493  0.098358  0.112077  0.000311  0.970839  0.0
H  H18  1  0.15051790  0.25333047  0.20684962  1  0.053179  0.000493  0.098307  0.111987  0.000311  0.970884  0.0
H  H19  1  0.84948086  0.74666672  0.20684766  1  0.053121  0.000493  0.098343  0.112043  0.000311  0.970867  0.0
H  H20  1  0.99999999  0.10465788  0.91603802  1  0.055158  0.00028  0.098408  0.10514  0.000111  0.984952  0.0
H  H21  1  1.00000000  0.89534008  0.91603681  1  0.050248  0.000275  0.098403  0.105159  0.000111  0.984923  0.0
H  H22  1  0.89534094  0.99999724  0.41603875  1  0.055142  0.000281  0.098401  0.105128  0.000111  0.984916  0.0
H  H23  1  0.10465971  0.99999644  0.41603874  1  0.050241  0.000275  0.098399  0.105137  0.000111  0.984903  0.0
H  H24  1  0.99999995  0.10465626  0.08396161  1  0.050071  0.000275  0.098411  0.105161  0.000111  0.984942  0.0
H  H25  1  0.00000076  0.89533892  0.08396313  1  0.055132  0.00028  0.09839  0.105159  0.000111  0.984907  0.0
H  H26  1  0.10465855  0.99999770  0.58396124  1  0.055155  0.00028  0.09841  0.10514  0.000111  0.984916  0.0
H  H27  1  0.89534095  0.99999850  0.58396125  1  0.050037  0.000275  0.098397  0.10513  0.000111  0.984928  0.0
C  C28  1  0.71348235  0.00000484  0.87737400  1  1.539205  -0.000817  0.225669  0.579983  -0.001917  4.064269  -0.005
C  C29  1  0.85194232  0.00000122  0.81063305  1  0.031417  0.02203  -0.009554  0.057348  0.015646  3.777899  0.017
C  C30  1  0.28651692  0.00000152  0.87737400  1  1.538857  -0.000813  0.225586  0.579848  -0.001916  4.064564  -0.005
C  C31  1  0.14805813  0.00000037  0.81063373  1  0.031769  0.022027  -0.009535  0.057466  0.015647  3.777813  0.017
C  C32  1  0.99999537  0.71348029  0.37737468  1  1.539726  -0.000823  0.225633  0.5801  -0.001917  4.064397  -0.005
C  C33  1  0.00000079  0.85194011  0.31063374  1  0.03113  0.022036  -0.009566  0.05734  0.015648  3.777847  0.017
C  C34  1  0.99999440  0.28651545  0.37737598  1  1.539841  -0.000823  0.225666  0.580076  -0.001917  4.064311  -0.005
C  C35  1  0.00000112  0.14805531  0.31063498  1  0.031079  0.022036  -0.009646  0.057274  0.015648  3.77781  0.017
C  C36  1  0.28651689  0.00000228  0.12262630  1  1.538857  -0.000813  0.225613  0.579943  -0.001916  4.064464  -0.005
C  C37  1  0.14805810  0.00000003  0.18936656  1  0.031781  0.022027  -0.009574  0.057276  0.015647  3.778048  0.017
C  C38  1  0.71348232  0.00000208  0.12262630  1  1.538872  -0.000813  0.22559  0.579926  -0.001917  4.064488  -0.005
C  C39  1  0.85194229  0.00000088  0.18936657  1  0.031785  0.022025  -0.009563  0.057368  0.015646  3.777866  0.017
C  C40  1  0.99999655  0.71348042  0.62262521  1  1.539735  -0.000823  0.225658  0.580094  -0.001917  4.064375  -0.005
C  C41  1  0.99999963  0.85194149  0.68936618  1  0.031137  0.022036  -0.009528  0.057464  0.015648  3.777705  0.017
C  C42  1  0.99999441  0.28651558  0.62262375  1  1.539838  -0.000823  0.225679  0.58008  -0.001917  4.064312  -0.005
C  C43  1  0.00000113  0.14805552  0.68936467  1  0.031086  0.022037  -0.009648  0.057291  0.015648  3.777825  0.017
C  C44  1  0.85224794  0.85224833  0.75000038  1  -0.02867  0.004191  -0.159621  -0.234129  0.003304  3.850089  0.003
C  C45  1  0.14774969  0.14774946  0.74999887  1  -0.028751  0.004193  -0.15955  -0.234105  0.003305  3.850079  0.003
C  C46  1  0.14775051  0.85224838  0.24999955  1  -0.02868  0.004191  -0.159607  -0.234095  0.003304  3.85021  0.003
C  C47  1  0.85224942  0.14775003  0.25000148  1  -0.028722  0.004192  -0.159547  -0.234026  0.003304  3.850051  0.003
C  C48  1  0.14774967  0.14774918  0.25000147  1  -0.028765  0.004193  -0.159549  -0.233993  0.003305  3.850123  0.003
C  C49  1  0.85224909  0.85224805  0.24999955  1  -0.028673  0.004191  -0.159617  -0.234115  0.003303  3.850116  0.003
C  C50  1  0.85224944  0.14775030  0.74999888  1  -0.028692  0.004191  -0.159555  -0.234052  0.003304  3.850062  0.003
C  C51  1  0.14775053  0.85224865  0.75000037  1  -0.028666  0.004191  -0.15961  -0.234174  0.003304  3.85008  0.003
C  C52  1  0.00000003  0.00000048  0.87187853  1  -0.062585  0.000544  -0.152456  -0.234114  0.000176  3.824275  0.0
C  C53  1  0.99999993  0.99999717  0.37187996  1  -0.062583  0.000544  -0.152376  -0.233975  0.000176  3.824114  0.0
C  C54  1  0.99999992  0.99999821  0.12812127  1  -0.062586  0.000544  -0.152434  -0.234136  0.000176  3.824276  0.0
C  C55  1  0.99999994  0.99999731  0.62812004  1  -0.062604  0.000544  -0.152398  -0.234029  0.000176  3.824151  0.0
O  O56  1  0.66356840  0.86665149  0.90454585  1  -1.091919  0.102301  -0.312357  -0.512631  0.065894  2.324196  0.093
O  O57  1  0.33642807  0.13336053  0.90454570  1  -1.091508  0.102306  -0.312351  -0.512591  0.065896  2.324388  0.093
O  O58  1  0.13335576  0.66356854  0.40454634  1  -1.091913  0.102301  -0.31237  -0.512742  0.065895  2.324194  0.093
O  O59  1  0.86665005  0.33642652  0.40454629  1  -1.092061  0.10228  -0.31235  -0.512703  0.065881  2.324673  0.093
O  O60  1  0.33643004  0.86665238  0.09545340  1  -1.091936  0.102289  -0.312341  -0.512619  0.065886  2.324439  0.093
O  O61  1  0.66357106  0.13336111  0.09545464  1  -1.091516  0.102304  -0.312335  -0.512629  0.065895  2.324383  0.093
O  O62  1  0.86664873  0.66357065  0.59545420  1  -1.091767  0.102297  -0.312378  -0.512759  0.065888  2.324503  0.093
O  O63  1  0.13335709  0.33642814  0.59545207  1  -1.09175  0.102317  -0.312469  -0.512824  0.065902  2.324121  0.093
O  O64  1  0.33642803  0.13336126  0.09545395  1  -1.091519  0.102309  -0.312391  -0.51265  0.065898  2.324342  0.093
O  O65  1  0.66357072  0.86665105  0.09545341  1  -1.09195  0.102293  -0.312353  -0.512636  0.065889  2.324391  0.093
O  O66  1  0.86665006  0.33642663  0.59545345  1  -1.092061  0.102283  -0.312337  -0.512651  0.065882  2.324655  0.093
O  O67  1  0.13335577  0.66356864  0.59545350  1  -1.091927  0.102299  -0.312365  -0.51272  0.065893  2.324262  0.093
O  O68  1  0.66357226  0.13336038  0.90454571  1  -1.091546  0.102296  -0.312419  -0.512682  0.06589  2.324384  0.093
O  O69  1  0.33643007  0.86665164  0.90454653  1  -1.09195  0.102294  -0.312356  -0.512623  0.065889  2.324458  0.093
O  O70  1  0.13335826  0.33642804  0.40454766  1  -1.091751  0.102319  -0.312439  -0.512777  0.065903  2.324085  0.093
O  O71  1  0.86664872  0.66357054  0.40454567  1  -1.091785  0.102293  -0.31234  -0.512707  0.065886  2.324555  0.093
