# generated using pymatgen
data_ZnH13C15I(N3O2)2
_symmetry_space_group_name_H-M   'P 1'
_cell_length_a   10.21788704
_cell_length_b   12.33905374
_cell_length_c   16.62227718
_cell_angle_alpha   89.99998648
_cell_angle_beta   89.99991275
_cell_angle_gamma   108.14988112
_symmetry_Int_Tables_number   1
_chemical_formula_structural   ZnH13C15I(N3O2)2
_chemical_formula_sum   'Zn4 H52 C60 I4 N24 O16'
_cell_volume   1991.44822583
_cell_formula_units_Z   4
loop_
 _symmetry_equiv_pos_site_id
 _symmetry_equiv_pos_as_xyz
  1  'x, y, z'
loop_
 _atom_site_type_symbol
 _atom_site_label
 _atom_site_symmetry_multiplicity
 _atom_site_fract_x
 _atom_site_fract_y
 _atom_site_fract_z
 _atom_site_occupancy
 _atom_site_pbe_bader_charge
 _atom_site_pbe_bader_spin_density
 _atom_site_pbe_cm5_charge
 _atom_site_pbe_ddec_charge
 _atom_site_pbe_ddec_spin_density
 _atom_site_pbe_ddec_sum_bond_order
 _atom_site_pbe_magmom
Zn  Zn0  1  0.89486191  0.32952363  0.43851711  1  1.262661  0  0.696788  0.783259  0  2.403966  0
Zn  Zn1  1  0.10513275  0.17047315  0.93851816  1  1.262698  0  0.69672  0.78317  0  2.404137  0
Zn  Zn2  1  0.10513862  0.67047496  0.56148493  1  1.26264  0  0.696764  0.783257  0  2.403997  0
Zn  Zn3  1  0.89486709  0.82952884  0.06148328  1  1.262644  0  0.696724  0.783201  0  2.404073  0
H  H4  1  0.28903642  0.59972959  0.38230845  1  0.084747  0  0.098842  0.108698  0  1.036398  0
H  H5  1  0.71095726  0.90027043  0.88230591  1  0.084785  0  0.098839  0.108695  0  1.03649  0
H  H6  1  0.71096603  0.40027412  0.61769059  1  0.084915  0  0.098818  0.108704  0  1.03636  0
H  H7  1  0.28904389  0.09973242  0.11769132  1  0.084777  0  0.09883  0.108727  0  1.036479  0
H  H8  1  0.70669810  0.58873040  0.35745607  1  0.127069  0  0.102595  0.113908  0  1.026435  0
H  H9  1  0.29329187  0.91125431  0.85745451  1  0.126867  0  0.102601  0.113968  0  1.02648  0
H  H10  1  0.29330279  0.41126393  0.64254597  1  0.127036  0  0.102608  0.11394  0  1.026418  0
H  H11  1  0.70671189  0.08874770  0.14253911  1  0.127159  0  0.102616  0.113909  0  1.026478  0
H  H12  1  0.38869467  0.29790542  0.44871269  1  0.142204  0  0.10301  0.112955  0  1.02045  0
H  H13  1  0.61128468  0.20208451  0.94870727  1  0.141892  0  0.102991  0.11288  0  1.020529  0
H  H14  1  0.61129638  0.70209400  0.55128995  1  0.142231  0  0.102986  0.112908  0  1.020509  0
H  H15  1  0.38871744  0.79791835  0.05128635  1  0.141956  0  0.102979  0.112926  0  1.020525  0
H  H16  1  0.70462995  0.13496021  0.56045898  1  0.190606  0  0.152349  0.129869  0  0.963903  0
H  H17  1  0.29536679  0.36504210  0.06046026  1  0.189205  0  0.152351  0.12984  0  0.963958  0
H  H18  1  0.29537124  0.86503753  0.43953945  1  0.190622  0  0.152358  0.12986  0  0.963866  0
H  H19  1  0.70463110  0.63495989  0.93954057  1  0.190616  0  0.152346  0.129833  0  0.963939  0
H  H20  1  0.06007890  0.41237718  0.60712915  1  0.218481  0  0.139594  0.121535  0  1.022612  0
H  H21  1  0.93992296  0.08762083  0.10713231  1  0.218473  0  0.139596  0.121584  0  1.022535  0
H  H22  1  0.93992067  0.58761885  0.39287590  1  0.218445  0  0.139562  0.121552  0  1.022566  0
H  H23  1  0.06007591  0.91238117  0.89287094  1  0.218549  0  0.139555  0.121553  0  1.022624  0
H  H24  1  0.68298418  0.04783522  0.71282320  1  0.079625  0  0.118807  0.104939  0  0.965207  0
H  H25  1  0.31701277  0.45216607  0.21282686  1  0.079695  0  0.118788  0.104901  0  0.965184  0
H  H26  1  0.31701217  0.95215739  0.28717583  1  0.07971  0  0.118784  0.104902  0  0.965216  0
H  H27  1  0.68299132  0.54783678  0.78717639  1  0.07974  0  0.118752  0.104867  0  0.965264  0
H  H28  1  0.81939035  0.11783937  0.77903488  1  0.098789  0  0.119462  0.108201  0  1.004608  0
H  H29  1  0.18060149  0.38216185  0.27903506  1  0.098885  0  0.119481  0.108218  0  1.004631  0
H  H30  1  0.18060435  0.88215410  0.22096535  1  0.098877  0  0.119488  0.108242  0  1.004595  0
H  H31  1  0.81939997  0.61784186  0.72096458  1  0.098907  0  0.119481  0.108192  0  1.004578  0
H  H32  1  0.81848457  0.91967440  0.73640046  1  0.070653  0  0.10248  0.106435  0  0.985039  0
H  H33  1  0.18151376  0.58032920  0.23639949  1  0.0707  0  0.10246  0.10638  0  0.985055  0
H  H34  1  0.18151434  0.08032248  0.26359978  1  0.070716  0  0.102496  0.106392  0  0.985047  0
H  H35  1  0.81848771  0.41967451  0.76360436  1  0.070811  0  0.102461  0.106369  0  0.985079  0
H  H36  1  0.84352086  0.96876395  0.63573614  1  0.057945  0  0.102451  0.09847  0  0.975544  0
H  H37  1  0.15647485  0.53123719  0.13573640  1  0.057937  0  0.10247  0.098475  0  0.975488  0
H  H38  1  0.15647678  0.03122952  0.36426289  1  0.011313  0  0.102458  0.098456  0  0.9756  0
H  H39  1  0.84352889  0.46876737  0.86426685  1  0.057896  0  0.102483  0.098511  0  0.975481  0
H  H40  1  0.06982664  0.12074436  0.68427925  1  0.097773  0  0.111288  0.094986  0  1.002169  0
H  H41  1  0.93017071  0.37925782  0.18428237  1  0.097832  0  0.111271  0.094986  0  1.002197  0
H  H42  1  0.93017032  0.87925251  0.31572280  1  0.097715  0  0.111366  0.095108  0  1.002164  0
H  H43  1  0.06983337  0.62074504  0.81571907  1  0.097783  0  0.111289  0.094993  0  1.002237  0
H  H44  1  0.04299609  0.05013796  0.77853169  1  0.10956  0  0.119552  0.113526  0  0.991152  0
H  H45  1  0.95700293  0.44986412  0.27853478  1  0.10948  0  0.119541  0.113502  0  0.991289  0
H  H46  1  0.95699925  0.94985721  0.22146975  1  0.109538  0  0.11957  0.113497  0  0.991248  0
H  H47  1  0.04299758  0.55013702  0.72146606  1  0.109589  0  0.119513  0.113456  0  0.991239  0
H  H48  1  0.93503363  0.83543130  0.61198305  1  0.212184  0  0.14192  0.1242  0  1.034559  0
H  H49  1  0.06496701  0.66457499  0.11198878  1  0.212222  0  0.141896  0.124121  0  1.034642  0
H  H50  1  0.06496629  0.16456303  0.38802080  1  0.212153  0  0.141893  0.124136  0  1.034609  0
H  H51  1  0.93503546  0.33542616  0.88801086  1  0.21223  0  0.141919  0.124195  0  1.034571  0
H  H52  1  0.34328302  0.86396069  0.67077850  1  0.150816  0  0.130618  0.105868  0  1.007382  0
H  H53  1  0.65671518  0.63604212  0.17078070  1  0.150857  0  0.130649  0.105916  0  1.007451  0
H  H54  1  0.65672363  0.13604643  0.32921692  1  0.150771  0  0.130617  0.10587  0  1.007392  0
H  H55  1  0.34328662  0.36395988  0.82922013  1  0.150738  0  0.130657  0.105949  0  1.007465  0
C  C56  1  0.17750467  0.38166658  0.43875084  1  1.555712  0  0.195526  0.559083  0  4.220593  0
C  C57  1  0.82248441  0.11833360  0.93874946  1  1.555822  0  0.195578  0.559221  0  4.220361  0
C  C58  1  0.82248898  0.61833455  0.56124699  1  1.555633  0  0.195536  0.559098  0  4.220588  0
C  C59  1  0.17751739  0.88166840  0.06124897  1  1.555902  0  0.195582  0.559241  0  4.220326  0
C  C60  1  0.32418571  0.44264313  0.41641689  1  -0.006317  0  -0.023348  -0.034136  0  3.989097  0
C  C61  1  0.67580477  0.05735538  0.91641384  1  -0.006251  0  -0.02332  -0.034217  0  3.989099  0
C  C62  1  0.67581120  0.55735886  0.58358215  1  -0.006164  0  -0.023398  -0.034228  0  3.989235  0
C  C63  1  0.32419800  0.94264918  0.08357917  1  -0.006703  0  -0.023413  -0.03428  0  3.989173  0
C  C64  1  0.36495616  0.55473251  0.38690646  1  -0.053098  0  -0.092719  -0.129707  0  3.95847  0
C  C65  1  0.63503461  0.94526238  0.88690760  1  -0.052904  0  -0.092721  -0.12967  0  3.958491  0
C  C66  1  0.63504498  0.44527034  0.61309377  1  -0.053161  0  -0.092702  -0.12972  0  3.958391  0
C  C67  1  0.36496720  0.05473962  0.11308963  1  -0.05263  0  -0.092695  -0.129723  0  3.958604  0
C  C68  1  0.50257779  0.60643951  0.36586716  1  -0.245651  0  -0.054756  0.047851  0  3.922778  0
C  C69  1  0.49741373  0.89355201  0.86586301  1  -0.246338  0  -0.054811  0.047779  0  3.922937  0
C  C70  1  0.49742372  0.39355908  0.63413428  1  -0.246014  0  -0.054725  0.047911  0  3.922758  0
C  C71  1  0.50258871  0.10645170  0.13412940  1  -0.246213  0  -0.054756  0.047837  0  3.92286  0
C  C72  1  0.59933690  0.54826512  0.37333542  1  0.006385  0  -0.084958  -0.117526  0  3.943391  0
C  C73  1  0.40065297  0.95172467  0.87333134  1  0.006778  0  -0.085011  -0.117647  0  3.943586  0
C  C74  1  0.40066203  0.45172920  0.62666663  1  0.006658  0  -0.084974  -0.117533  0  3.943368  0
C  C75  1  0.59934979  0.04827989  0.12665867  1  0.00641  0  -0.085  -0.117461  0  3.94333  0
C  C76  1  0.55755237  0.43618315  0.40270627  1  -0.061603  0  -0.017446  -0.020689  0  3.977271  0
C  C77  1  0.44243562  0.06380599  0.90270524  1  -0.061268  0  -0.017446  -0.020745  0  3.977101  0
C  C78  1  0.44244363  0.56381117  0.59729577  1  -0.061311  0  -0.017538  -0.020914  0  3.977345  0
C  C79  1  0.55756619  0.93619601  0.09728899  1  -0.060827  0  -0.017452  -0.020817  0  3.977291  0
C  C80  1  0.42045702  0.38411923  0.42441936  1  0.004288  0  -0.077121  -0.107434  0  3.937382  0
C  C81  1  0.57952858  0.11587415  0.92441519  1  0.004585  0  -0.077057  -0.10719  0  3.937313  0
C  C82  1  0.57953827  0.61588105  0.57558147  1  0.003783  0  -0.077011  -0.10719  0  3.9373  0
C  C83  1  0.42047450  0.88413127  0.07557542  1  0.004493  0  -0.077036  -0.107299  0  3.937471  0
C  C84  1  0.65859920  0.37189277  0.41454937  1  1.562161  0  0.193687  0.559798  0  4.22083  0
C  C85  1  0.34139581  0.12811001  0.91455143  1  1.562351  0  0.193752  0.560004  0  4.220589  0
C  C86  1  0.34139711  0.62810240  0.58545447  1  1.562444  0  0.193801  0.559963  0  4.220579  0
C  C87  1  0.65860338  0.87189284  0.08544701  1  1.561899  0  0.193734  0.559952  0  4.220678  0
C  C88  1  0.79497238  0.19305293  0.58888705  1  0.986272  0  0.169128  0.077767  0  3.902218  0
C  C89  1  0.20502427  0.30694935  0.08888602  1  0.987367  0  0.169065  0.077747  0  3.902144  0
C  C90  1  0.20502489  0.80694480  0.41111499  1  0.986853  0  0.169098  0.077808  0  3.901916  0
C  C91  1  0.79497592  0.69305095  0.91111422  1  0.986317  0  0.169102  0.077795  0  3.902155  0
C  C92  1  0.97493994  0.33393697  0.61456034  1  0.959921  0  0.156466  0.164554  0  3.92882  0
C  C93  1  0.02506124  0.16606188  0.11456250  1  0.95995  0  0.156478  0.16454  0  3.928692  0
C  C94  1  0.02505834  0.66605820  0.38544351  1  0.959806  0  0.156481  0.164552  0  3.928663  0
C  C95  1  0.97493959  0.83394012  0.88543955  1  0.959815  0  0.156478  0.164521  0  3.928789  0
C  C96  1  0.79519786  0.08471251  0.71794279  1  0.327699  0  -0.043519  -0.089584  0  3.876808  0
C  C97  1  0.20479678  0.41528793  0.21794293  1  0.327622  0  -0.043543  -0.089658  0  3.876799  0
C  C98  1  0.20479649  0.91528266  0.28205745  1  0.327547  0  -0.043548  -0.089632  0  3.876845  0
C  C99  1  0.79520502  0.58471407  0.78205790  1  0.327453  0  -0.043536  -0.089598  0  3.876855  0
C  C100  1  0.86586248  0.99506411  0.69883578  1  -0.033345  0  -0.151666  -0.181163  0  3.922314  0
C  C101  1  0.13413434  0.50493782  0.19883607  1  -0.033568  0  -0.151651  -0.181016  0  3.922154  0
C  C102  1  0.13413317  0.00493191  0.30116385  1  0.013165  0  -0.151658  -0.181004  0  3.922354  0
C  C103  1  0.86586908  0.49506589  0.80116597  1  -0.033453  0  -0.151675  -0.18109  0  3.922311  0
C  C104  1  0.02107918  0.03837548  0.71391059  1  0.2692  0  -0.047856  -0.09305  0  3.850754  0
C  C105  1  0.97891644  0.46162752  0.21391305  1  0.26939  0  -0.047923  -0.093174  0  3.850987  0
C  C106  1  0.97891778  0.96162140  0.28609024  1  0.269353  0  -0.047979  -0.093234  0  3.851098  0
C  C107  1  0.02108634  0.53837449  0.78608899  1  0.2693  0  -0.047915  -0.093113  0  3.850938  0
C  C108  1  0.03731493  0.86575495  0.63797507  1  0.98397  0  0.16055  0.076948  0  3.905195  0
C  C109  1  0.96268757  0.63425387  0.13798061  1  0.98402  0  0.160592  0.077099  0  3.905245  0
C  C110  1  0.96268528  0.13424279  0.36202697  1  0.983972  0  0.160584  0.077042  0  3.905105  0
C  C111  1  0.03731490  0.36574728  0.86202083  1  0.983817  0  0.160537  0.076958  0  3.905192  0
C  C112  1  0.24589687  0.88179679  0.66832220  1  0.990434  0  0.147008  0.139851  0  3.982321  0
C  C113  1  0.75410198  0.61820773  0.16832252  1  0.990793  0  0.146967  0.139907  0  3.982425  0
C  C114  1  0.75410753  0.11820692  0.33167683  1  0.990731  0  0.146911  0.139723  0  3.982568  0
C  C115  1  0.24590081  0.38179427  0.83167832  1  0.99053  0  0.146933  0.13975  0  3.982389  0
I  I116  1  0.57154810  0.77674871  0.32388310  1  0.101923  0  0.075279  -0.041868  0  1.537371  0
I  I117  1  0.42845270  0.72324116  0.82388145  1  0.102026  0  0.075276  -0.041865  0  1.537469  0
I  I118  1  0.42845831  0.22324989  0.67611834  1  0.102034  0  0.075278  -0.04187  0  1.537358  0
I  I119  1  0.57154979  0.27675744  0.17611398  1  0.101984  0  0.075274  -0.041864  0  1.537512  0
N  N120  1  0.87843464  0.28876016  0.55649133  1  -1.228409  0  -0.345793  -0.302379  0  3.580518  0
N  N121  1  0.12156246  0.21124045  0.05649279  1  -1.228284  0  -0.34567  -0.302201  0  3.580482  0
N  N122  1  0.12156526  0.71123672  0.44351072  1  -1.228607  0  -0.345721  -0.302291  0  3.580376  0
N  N123  1  0.87843413  0.78876069  0.94350865  1  -1.228556  0  -0.345739  -0.302302  0  3.580457  0
N  N124  1  0.83972452  0.18178737  0.66346286  1  -0.859403  0  -0.137251  0.156138  0  3.748518  0
N  N125  1  0.16027387  0.31821483  0.16346427  1  -0.859071  0  -0.137224  0.156147  0  3.748481  0
N  N126  1  0.16027278  0.81820780  0.33653798  1  -0.860073  0  -0.137308  0.156054  0  3.748484  0
N  N127  1  0.83972760  0.68178887  0.83653717  1  -0.859438  0  -0.137209  0.156201  0  3.748421  0
N  N128  1  0.95456291  0.27121786  0.68084489  1  -0.690514  0  -0.22312  -0.268488  0  3.101337  0
N  N129  1  0.04543772  0.22878263  0.18084702  1  -0.690603  0  -0.223161  -0.26856  0  3.101305  0
N  N130  1  0.04543309  0.72877646  0.31915775  1  -0.69019  0  -0.223066  -0.268501  0  3.101115  0
N  N131  1  0.95456472  0.77122108  0.81915502  1  -0.690462  0  -0.223083  -0.268497  0  3.101357  0
N  N132  1  0.08865087  0.95759561  0.68458718  1  -0.828526  0  -0.128673  0.174725  0  3.72675  0
N  N133  1  0.91134663  0.54240804  0.18459038  1  -0.828483  0  -0.128607  0.174731  0  3.726928  0
N  N134  1  0.91134770  0.04240298  0.31541245  1  -0.828489  0  -0.128685  0.174706  0  3.72671  0
N  N135  1  0.08865485  0.45759311  0.81540986  1  -0.828262  0  -0.12866  0.174677  0  3.726782  0
N  N136  1  0.22184500  0.96932001  0.70482803  1  -0.67232  0  -0.215978  -0.239088  0  3.134573  0
N  N137  1  0.77814984  0.53068191  0.20482714  1  -0.672838  0  -0.215921  -0.239046  0  3.134683  0
N  N138  1  0.77815418  0.03068284  0.29516980  1  -0.672569  0  -0.215938  -0.23904  0  3.13467  0
N  N139  1  0.22185164  0.46931924  0.79517250  1  -0.672529  0  -0.215842  -0.238904  0  3.134592  0
N  N140  1  0.13479935  0.81571672  0.62621611  1  -1.244463  0  -0.352337  -0.320603  0  3.583753  0
N  N141  1  0.86520092  0.68428870  0.12621872  1  -1.24454  0  -0.352385  -0.320779  0  3.583824  0
N  N142  1  0.86520377  0.18428358  0.37378473  1  -1.24446  0  -0.352272  -0.320493  0  3.583668  0
N  N143  1  0.13480057  0.31571245  0.87378151  1  -1.244534  0  -0.352354  -0.320646  0  3.583766  0
O  O144  1  0.08637034  0.42825867  0.41416279  1  -1.180331  0  -0.338702  -0.560502  0  2.294664  0
O  O145  1  0.91362044  0.07174325  0.91416615  1  -1.180697  0  -0.338667  -0.56054  0  2.29474  0
O  O146  1  0.91362623  0.57174503  0.58583323  1  -1.18026  0  -0.338661  -0.560503  0  2.294589  0
O  O147  1  0.08638264  0.92826216  0.08583048  1  -1.180695  0  -0.338638  -0.560463  0  2.29457  0
O  O148  1  0.14893400  0.28902529  0.47610676  1  -1.187114  0  -0.332445  -0.558548  0  2.136854  0
O  O149  1  0.85105400  0.21097485  0.97610533  1  -1.187137  0  -0.332505  -0.558635  0  2.136679  0
O  O150  1  0.85105899  0.71097670  0.52389288  1  -1.187233  0  -0.332489  -0.558574  0  2.136807  0
O  O151  1  0.14894685  0.78902459  0.02389551  1  -1.187114  0  -0.332518  -0.558645  0  2.136651  0
O  O152  1  0.61880049  0.26936924  0.43569993  1  -1.188103  0  -0.336323  -0.567485  0  2.118832  0
O  O153  1  0.38119257  0.23062585  0.93569772  1  -1.188082  0  -0.336314  -0.567506  0  2.118947  0
O  O154  1  0.38119453  0.73062508  0.56430572  1  -1.187879  0  -0.336326  -0.567479  0  2.118722  0
O  O155  1  0.61880664  0.76937445  0.06430131  1  -1.188043  0  -0.336322  -0.567466  0  2.118832  0
O  O156  1  0.78796704  0.42951548  0.40335229  1  -1.171912  0  -0.33337  -0.55131  0  2.32762  0
O  O157  1  0.21202609  0.07048219  0.90335567  1  -1.17214  0  -0.333423  -0.551426  0  2.327504  0
O  O158  1  0.21202830  0.57047969  0.59664855  1  -1.172221  0  -0.333457  -0.551426  0  2.327556  0
O  O159  1  0.78797246  0.92951895  0.09664457  1  -1.171886  0  -0.333423  -0.551441  0  2.327585  0
