# generated using pymatgen
data_CdH27C36N3O7
_symmetry_space_group_name_H-M   'P 1'
_cell_length_a   11.32463203
_cell_length_b   11.66443029
_cell_length_c   14.13590000
_cell_angle_alpha   93.13414701
_cell_angle_beta   105.31885669
_cell_angle_gamma   116.67177311
_symmetry_Int_Tables_number   1
_chemical_formula_structural   CdH27C36N3O7
_chemical_formula_sum   'Cd2 H54 C72 N6 O14'
_cell_volume   1576.45313531
_cell_formula_units_Z   2
loop_
 _symmetry_equiv_pos_site_id
 _symmetry_equiv_pos_as_xyz
  1  'x, y, z'
loop_
 _atom_site_type_symbol
 _atom_site_label
 _atom_site_symmetry_multiplicity
 _atom_site_fract_x
 _atom_site_fract_y
 _atom_site_fract_z
 _atom_site_occupancy
 _atom_site_hle17_bader_spin_density
 _atom_site_hle17_ddec_charge
 _atom_site_hle17_ddec_spin_density
 _atom_site_hle17_ddec_sum_bond_order
 _atom_site_hle17_magmom
 _atom_site_hse06_10hf_bader_spin_density
 _atom_site_hse06_10hf_ddec_charge
 _atom_site_hse06_10hf_ddec_spin_density
 _atom_site_hse06_10hf_ddec_sum_bond_order
 _atom_site_hse06_10hf_magmom
 _atom_site_hse06_bader_spin_density
 _atom_site_hse06_ddec_charge
 _atom_site_hse06_ddec_spin_density
 _atom_site_hse06_ddec_sum_bond_order
 _atom_site_hse06_magmom
 _atom_site_pbe_bader_charge
 _atom_site_pbe_bader_spin_density
 _atom_site_pbe_cm5_charge
 _atom_site_pbe_ddec_charge
 _atom_site_pbe_ddec_spin_density
 _atom_site_pbe_ddec_sum_bond_order
 _atom_site_pbe_magmom
Cd  Cd0  1  0.69358657  0.35415117  0.46918274  1  0  1.125236  0  1.682735  0  0  0.931991  0  2.132206  0  0  0.989832  0  2.080009  0  1.274371  0  0.762501  0.890903  0  2.16738  0
Cd  Cd1  1  0.30641437  0.64584961  0.53081679  1  0  1.125291  0  1.682659  0  0  0.932056  0  2.132137  0  0  0.989895  0  2.07994  0  1.274407  0  0.762513  0.890966  0  2.167312  0
H  H2  1  0.14054118  0.61160624  0.93397416  1  0  0.332986  0  0.965004  0  0  0.295034  0  1.053924  0  0  0.308041  0  1.042883  0  0.597478  0  0.281979  0.286002  0  1.061456  0
H  H3  1  0.85945601  0.38839259  0.06602378  1  0  0.333002  0  0.964986  0  0  0.295055  0  1.053875  0  0  0.30806  0  1.042836  0  0.597483  0  0.281991  0.286008  0  1.061446  0
H  H4  1  0.90623091  0.49413532  0.36945974  1  0  0.427728  0  0.880657  0  0  0.394683  0  0.948288  0  0  0.406375  0  0.931225  0  0.658187  0  0.28374  0.386314  0  0.960455  0
H  H5  1  0.09376861  0.50586449  0.63053945  1  0  0.42774  0  0.880639  0  0  0.394694  0  0.94827  0  0  0.406387  0  0.931207  0  0.658194  0  0.283738  0.386326  0  0.960438  0
H  H6  1  0.77294908  0.37565367  0.28324725  1  0  0.433788  0  0.863113  0  0  0.405138  0  0.921954  0  0  0.415538  0  0.906647  0  0.638501  0  0.290878  0.397721  0  0.932885  0
H  H7  1  0.22705003  0.62434712  0.71675118  1  0  0.433793  0  0.86311  0  0  0.405143  0  0.921951  0  0  0.415543  0  0.906645  0  0.638515  0  0.290875  0.397725  0  0.932883  0
H  H8  1  0.79556882  0.00914260  0.53057825  1  0  0.09761  0  0.973447  0  0  0.106191  0  1.0401  0  0  0.109617  0  1.037488  0  0.10092  0  0.102737  0.10361  0  1.042082  0
H  H9  1  0.20443029  0.99085818  0.46941806  1  0  0.097595  0  0.973396  0  0  0.10615  0  1.040086  0  0  0.109576  0  1.037475  0  0.100953  0  0.102712  0.103575  0  1.042061  0
H  H10  1  0.17245825  0.01740277  0.71428557  1  0  0.07983  0  0.990535  0  0  0.089979  0  1.05593  0  0  0.091881  0  1.055929  0  0.05047  0  0.095227  0.088571  0  1.056126  0
H  H11  1  0.82754077  0.98259605  0.28571134  1  0  0.079814  0  0.990535  0  0  0.09  0  1.055896  0  0  0.091901  0  1.055896  0  0.050408  0  0.095222  0.08859  0  1.056099  0
H  H12  1  0.28320989  0.25679104  0.75900086  1  0  0.077769  0  0.972097  0  0  0.089169  0  1.032376  0  0  0.091039  0  1.032947  0  0.070417  0  0.093246  0.087855  0  1.031971  0
H  H13  1  0.71678822  0.74320779  0.24099939  1  0  0.07777  0  0.972108  0  0  0.089187  0  1.03237  0  0  0.091057  0  1.032941  0  0.070389  0  0.09324  0.087866  0  1.031973  0
H  H14  1  0.15201455  0.37385355  0.69321639  1  0  0.096693  0  0.961437  0  0  0.107918  0  1.021675  0  0  0.11153  0  1.018551  0  0.079875  0  0.105512  0.105211  0  1.024135  0
H  H15  1  0.84798172  0.62614527  0.30678347  1  0  0.096689  0  0.961383  0  0  0.107907  0  1.021629  0  0  0.11152  0  1.018504  0  0.079872  0  0.105504  0.1052  0  1.024089  0
H  H16  1  0.70397950  0.81721340  0.49721403  1  0  0.097118  0  0.979782  0  0  0.107953  0  1.041221  0  0  0.110022  0  1.042322  0  0.086325  0  0.102948  0.106476  0  1.040706  0
H  H17  1  0.29601952  0.18278543  0.50278217  1  0  0.097085  0  0.979808  0  0  0.107921  0  1.041244  0  0  0.109987  0  1.042338  0  0.086353  0  0.102945  0.106442  0  1.040737  0
H  H18  1  0.60134350  0.57674389  0.45126156  1  0  0.08988  0  0.947757  0  0  0.099034  0  1.010954  0  0  0.101449  0  1.00853  0  0.120419  0  0.116337  0.097307  0  1.012646  0
H  H19  1  0.39865542  0.42325298  0.54873808  1  0  0.089864  0  0.947764  0  0  0.099053  0  1.01093  0  0  0.101469  0  1.008503  0  0.120431  0  0.116331  0.097309  0  1.012641  0
H  H20  1  0.96564628  0.58832321  0.62271067  1  0  0.086436  0  0.990265  0  0  0.094346  0  1.055366  0  0  0.097577  0  1.05181  0  0.11695  0  0.11415  0.092271  0  1.057423  0
H  H21  1  0.03435324  0.41167660  0.37729347  1  0  0.086456  0  0.99023  0  0  0.094363  0  1.055331  0  0  0.097593  0  1.051775  0  0.116857  0  0.114172  0.092289  0  1.057385  0
H  H22  1  0.08611565  0.82730209  0.67360689  1  0  0.102997  0  0.957889  0  0  0.115915  0  1.014684  0  0  0.118716  0  1.014303  0  0.055489  0  0.106101  0.11392  0  1.015115  0
H  H23  1  0.91388346  0.17269869  0.32639367  1  0  0.102987  0  0.957875  0  0  0.115891  0  1.014689  0  0  0.118692  0  1.014308  0  0.055223  0  0.106089  0.113898  0  1.015118  0
H  H24  1  0.27531115  0.94468878  0.03615180  1  0  0.101663  0  0.953218  0  0  0.109648  0  1.018772  0  0  0.112453  0  1.01777  0  0.121338  0  0.104904  0.107638  0  1.019456  0
H  H25  1  0.72468612  0.05531200  0.96384554  1  0  0.101735  0  0.953264  0  0  0.109716  0  1.018803  0  0  0.11252  0  1.017801  0  0.12129  0  0.104919  0.107706  0  1.019487  0
H  H26  1  0.38116522  0.18664814  0.04979704  1  0  0.097493  0  0.938079  0  0  0.109647  0  0.992369  0  0  0.112476  0  0.99192  0  0.063723  0  0.105344  0.107564  0  0.992882  0
H  H27  1  0.61883297  0.81335265  0.95019978  1  0  0.097477  0  0.938102  0  0  0.109638  0  0.99239  0  0  0.112465  0  0.991946  0  0.06363  0  0.105338  0.107556  0  0.992903  0
H  H28  1  0.47583742  0.28848212  0.92019507  1  0  0.082386  0  0.955625  0  0  0.095535  0  1.014137  0  0  0.098615  0  1.011697  0  0.064972  0  0.100994  0.09326  0  1.016031  0
H  H29  1  0.52416352  0.71151866  0.07980304  1  0  0.082425  0  0.955622  0  0  0.09557  0  1.014135  0  0  0.09865  0  1.011695  0  0.065002  0  0.101001  0.093295  0  1.01603  0
H  H30  1  0.39096130  0.91016432  0.77483497  1  0  0.117315  0  0.951046  0  0  0.124973  0  1.015495  0  0  0.129041  0  1.012339  0  0.121873  0  0.11225  0.122064  0  1.017664  0
H  H31  1  0.60903689  0.08983646  0.22516256  1  0  0.117289  0  0.950979  0  0  0.124952  0  1.015419  0  0  0.129017  0  1.012269  0  0.121884  0  0.112236  0.122043  0  1.017589  0
H  H32  1  0.58417502  0.37189673  0.82774166  1  0  0.093816  0  0.965278  0  0  0.104794  0  1.025577  0  0  0.108027  0  1.024041  0  0.058483  0  0.103058  0.102409  0  1.027017  0
H  H33  1  0.41583091  0.62810307  0.17226171  1  0  0.093814  0  0.965282  0  0  0.104796  0  1.025578  0  0  0.108029  0  1.024043  0  0.058318  0  0.103067  0.102412  0  1.027018  0
H  H34  1  0.65831562  0.46085272  0.68651465  1  0  0.077877  0  0.943035  0  0  0.083862  0  1.011954  0  0  0.086852  0  1.008931  0  0.098471  0  0.11437  0.081811  0  1.013793  0
H  H35  1  0.34169223  0.53914904  0.31348851  1  0  0.077824  0  0.943103  0  0  0.083836  0  1.011978  0  0  0.086815  0  1.008966  0  0.098555  0  0.114369  0.081837  0  1.013769  0
H  H36  1  0.49955282  0.09069931  0.52053952  1  0  0.089975  0  0.937562  0  0  0.097747  0  1.002003  0  0  0.100622  0  0.998978  0  0.12407  0  0.12062  0.095594  0  1.004299  0
H  H37  1  0.50045004  0.90930344  0.47946050  1  0  0.089996  0  0.937547  0  0  0.097783  0  1.00197  0  0  0.100658  0  0.998945  0  0.124918  0  0.120619  0.095631  0  1.004267  0
H  H38  1  0.41088576  0.98304755  0.65015962  1  0  0.134894  0  0.956642  0  0  0.14202  0  1.019235  0  0  0.146514  0  1.016132  0  0.115933  0  0.114034  0.138888  0  1.021451  0
H  H39  1  0.58911793  0.01695323  0.34984119  1  0  0.134915  0  0.956608  0  0  0.141993  0  1.019255  0  0  0.146488  0  1.016151  0  0.115936  0  0.114039  0.13886  0  1.021477  0
H  H40  1  0.30113414  0.98996694  0.25080559  1  0  0.099773  0  0.970074  0  0  0.10811  0  1.036207  0  0  0.111682  0  1.033738  0  0.083667  0  0.102878  0.105544  0  1.037848  0
H  H41  1  0.69886680  0.01003385  0.74919606  1  0  0.099768  0  0.970103  0  0  0.108122  0  1.036198  0  0  0.111695  0  1.033728  0  0.083688  0  0.10289  0.105516  0  1.037888  0
H  H42  1  0.90580954  0.95239756  0.07144486  1  0  0.078517  0  0.991216  0  0  0.088962  0  1.056901  0  0  0.091051  0  1.056635  0  0.026123  0  0.095284  0.087507  0  1.057091  0
H  H43  1  0.09419181  0.04760225  0.92855825  1  0  0.078526  0  0.991169  0  0  0.088954  0  1.056881  0  0  0.091037  0  1.056623  0  0.026284  0  0.095279  0.087502  0  1.057066  0
H  H44  1  0.00527560  0.19039235  0.11131054  1  0  0.093461  0  0.958068  0  0  0.10135  0  1.021737  0  0  0.104447  0  1.020877  0  0.069175  0  0.096882  0.099217  0  1.022224  0
H  H45  1  0.99472392  0.80960746  0.88869147  1  0  0.093423  0  0.958106  0  0  0.101293  0  1.021799  0  0  0.104388  0  1.020939  0  0.069167  0  0.096881  0.09916  0  1.022285  0
H  H46  1  0.25398390  0.33009639  0.22369216  1  0  0.091354  0  0.95644  0  0  0.101102  0  1.020059  0  0  0.104547  0  1.017277  0  0.052967  0  0.098852  0.098525  0  1.022144  0
H  H47  1  0.74601612  0.66990440  0.77631001  1  0  0.091386  0  0.956393  0  0  0.101147  0  1.019999  0  0  0.104593  0  1.017217  0  0.053081  0  0.098859  0.09857  0  1.022083  0
H  H48  1  0.83078465  0.76362904  0.03301439  1  0  0.098912  0  0.973634  0  0  0.109847  0  1.034545  0  0  0.112437  0  1.034674  0  0.087571  0  0.105034  0.107873  0  1.034773  0
H  H49  1  0.16921437  0.23636979  0.96699384  1  0  0.098891  0  0.973634  0  0  0.109872  0  1.034516  0  0  0.112465  0  1.034645  0  0.087321  0  0.105054  0.107898  0  1.034745  0
H  H50  1  0.73970898  0.52418299  0.99775311  1  0  0.066961  0  0.931501  0  0  0.078902  0  0.989965  0  0  0.081477  0  0.987461  0  0.064089  0  0.113446  0.076952  0  0.991916  0
H  H51  1  0.26029146  0.47581682  0.00225193  1  0  0.066955  0  0.931452  0  0  0.078913  0  0.989896  0  0  0.081489  0  0.987392  0  0.064098  0  0.113474  0.076963  0  0.991847  0
H  H52  1  0.11220688  0.55815116  0.17697087  1  0  0.072115  0  0.930967  0  0  0.082464  0  0.992351  0  0  0.084595  0  0.990685  0  0.076046  0  0.116007  0.080974  0  0.993505  0
H  H53  1  0.88779498  0.44184963  0.82303026  1  0  0.072129  0  0.931018  0  0  0.082487  0  0.992386  0  0  0.08462  0  0.990718  0  0.07604  0  0.115998  0.080997  0  0.99354  0
H  H54  1  0.22008740  0.79823381  0.22147839  1  0  0.10386  0  0.966803  0  0  0.114687  0  1.026175  0  0  0.116739  0  1.027442  0  0.125896  0  0.107411  0.113106  0  1.025656  0
H  H55  1  0.77991436  0.20176502  0.77852264  1  0  0.103809  0  0.966815  0  0  0.114584  0  1.026252  0  0  0.116633  0  1.027526  0  0.125942  0  0.107396  0.113028  0  1.025701  0
C  C56  1  0.88054024  0.26179964  0.56628112  1  0  0.63312  0  3.939468  0  0  0.582696  0  4.23111  0  0  0.617008  0  4.225803  0  1.581348  0  0.194682  0.559686  0  4.233449  0
C  C57  1  0.11945887  0.73820115  0.43371873  1  0  0.633177  0  3.939354  0  0  0.582756  0  4.231025  0  0  0.617068  0  4.225719  0  1.581446  0  0.194701  0.559746  0  4.233366  0
C  C58  1  0.96449896  0.19609239  0.60812342  1  0  -0.066327  0  3.77027  0  0  -0.041587  0  4.005477  0  0  -0.050533  0  4.029401  0  -0.062623  0  -0.020419  -0.035984  0  3.989109  0
C  C59  1  0.03549823  0.80390643  0.39187310  1  0  -0.066347  0  3.770246  0  0  -0.041656  0  4.005526  0  0  -0.050601  0  4.029451  0  -0.062599  0  -0.020436  -0.036052  0  3.989158  0
C  C60  1  0.90237432  0.05991611  0.58155325  1  0  -0.091252  0  3.682402  0  0  -0.123275  0  3.928063  0  0  -0.122262  0  3.946874  0  -0.011918  0  -0.076803  -0.123009  0  3.914518  0
C  C61  1  0.09762562  0.94008271  0.41844315  1  0  -0.091277  0  3.682275  0  0  -0.123271  0  3.927939  0  0  -0.122256  0  3.946748  0  -0.011892  0  -0.076811  -0.123008  0  3.914392  0
C  C62  1  0.97424686  0.99200701  0.61849283  1  0  0.032799  0  3.77084  0  0  0.051603  0  4.001818  0  0  0.048449  0  4.025312  0  -0.014882  0  -0.008422  0.053504  0  3.985653  0
C  C63  1  0.02575316  0.00799378  0.38150297  1  0  0.032859  0  3.770817  0  0  0.051712  0  4.001734  0  0  0.048561  0  4.025226  0  -0.014758  0  -0.008355  0.053612  0  3.985571  0
C  C64  1  0.11262885  0.06580420  0.68326642  1  0  -0.084879  0  3.714601  0  0  -0.108111  0  3.962811  0  0  -0.108082  0  3.983591  0  -0.065593  0  -0.08411  -0.108353  0  3.949088  0
C  C65  1  0.88736975  0.93419560  0.31672974  1  0  -0.084879  0  3.714747  0  0  -0.108152  0  3.962928  0  0  -0.108124  0  3.983709  0  -0.065677  0  -0.084115  -0.108395  0  3.9492  0
C  C66  1  0.17551539  0.20160244  0.70944527  1  0  -0.079459  0  3.795948  0  0  -0.089341  0  4.048471  0  0  -0.093943  0  4.072224  0  -0.017447  0  -0.095905  -0.08614  0  4.032368  0
C  C67  1  0.82448280  0.79839835  0.29055438  1  0  -0.079529  0  3.795999  0  0  -0.089429  0  4.048522  0  0  -0.09403  0  4.072275  0  -0.017127  0  -0.095941  -0.086221  0  4.032422  0
C  C68  1  0.10227567  0.26761231  0.67267677  1  0  -0.056754  0  3.723333  0  0  -0.083266  0  3.969846  0  0  -0.082225  0  3.990137  0  -0.044414  0  -0.081209  -0.083929  0  3.956335  0
C  C69  1  0.89771969  0.73238651  0.32732149  1  0  -0.05666  0  3.723266  0  0  -0.083146  0  3.969776  0  0  -0.082106  0  3.990068  0  -0.044758  0  -0.08115  -0.08381  0  3.956262  0
C  C70  1  0.90668763  0.84779680  0.59031660  1  0  0.111274  0  3.745947  0  0  0.120991  0  3.975877  0  0  0.127085  0  3.998065  0  -0.010702  0  0.01738  0.11722  0  3.960573  0
C  C71  1  0.09331189  0.15220301  0.40967976  1  0  0.111198  0  3.74584  0  0  0.120856  0  3.975836  0  0  0.126945  0  3.998025  0  -0.01073  0  0.017345  0.117088  0  3.960529  0
C  C72  1  0.76771271  0.77220066  0.52731854  1  0  -0.151386  0  3.692509  0  0  -0.169388  0  3.941604  0  0  -0.178134  0  3.964074  0  0.035927  0  -0.083009  -0.164081  0  3.926781  0
C  C73  1  0.23228631  0.22779817  0.47267907  1  0  -0.151299  0  3.692542  0  0  -0.169278  0  3.941661  0  0  -0.178021  0  3.964143  0  0.035895  0  -0.083003  -0.163972  0  3.926831  0
C  C74  1  0.70807478  0.63699887  0.50149833  1  0  0.13748  0  3.704886  0  0  0.105372  0  3.957595  0  0  0.113909  0  3.975427  0  0.435119  0  0.047152  0.099912  0  3.945571  0
C  C75  1  0.29192557  0.36299898  0.49850165  1  0  0.137532  0  3.704932  0  0  0.105407  0  3.95765  0  0  0.113943  0  3.975475  0  0.435111  0  0.047225  0.099957  0  3.945633  0
C  C76  1  0.91123692  0.64303485  0.59706296  1  0  0.121119  0  3.726867  0  0  0.089549  0  3.97599  0  0  0.097009  0  3.994538  0  0.53001  0  0.037306  0.084891  0  3.962503  0
C  C77  1  0.08876219  0.35696594  0.40293971  1  0  0.121133  0  3.726723  0  0  0.089587  0  3.975846  0  0  0.097048  0  3.994392  0  0.530291  0  0.037321  0.084929  0  3.96236  0
C  C78  1  0.97784486  0.77816318  0.62524216  1  0  -0.156924  0  3.709548  0  0  -0.173912  0  3.957477  0  0  -0.182319  0  3.978944  0  -0.036284  0  -0.08495  -0.168227  0  3.942462  0
C  C79  1  0.02215516  0.22183761  0.37475788  1  0  -0.156908  0  3.709463  0  0  -0.173875  0  3.95741  0  0  -0.182281  0  3.978877  0  -0.036203  0  -0.084955  -0.168189  0  3.942394  0
C  C80  1  0.26799643  0.76962584  0.89451177  1  0  0.647326  0  3.848892  0  0  0.597109  0  4.147943  0  0  0.630267  0  4.13978  0  1.565127  0  0.224204  0.574585  0  4.152958  0
C  C81  1  0.73199975  0.23037103  0.10548515  1  0  0.647349  0  3.848877  0  0  0.597128  0  4.147938  0  0  0.630287  0  4.139774  0  1.56492  0  0.224211  0.574604  0  4.152946  0
C  C82  1  0.32584223  0.91439235  0.90315855  1  0  -0.075547  0  3.779348  0  0  -0.050313  0  4.012127  0  0  -0.059508  0  4.037066  0  0.018875  0  -0.017075  -0.044505  0  3.995406  0
C  C83  1  0.67415130  0.08560648  0.09683791  1  0  -0.075626  0  3.779529  0  0  -0.050377  0  4.012285  0  0  -0.059577  0  4.037226  0  0.019391  0  -0.017079  -0.044567  0  3.995562  0
C  C84  1  0.32154908  0.99085525  0.98080404  1  0  -0.050533  0  3.703947  0  0  -0.076933  0  3.953914  0  0  -0.075427  0  3.97392  0  -0.063147  0  -0.074564  -0.0775  0  3.940165  0
C  C85  1  0.67844728  0.00914554  0.01919239  1  0  -0.050581  0  3.704057  0  0  -0.076973  0  3.954005  0  0  -0.075465  0  3.97401  0  -0.063638  0  -0.074545  -0.077539  0  3.940256  0
C  C86  1  0.37903769  0.12585253  0.98724445  1  0  -0.067213  0  3.761756  0  0  -0.079317  0  4.018649  0  0  -0.082867  0  4.039571  0  -0.016246  0  -0.086253  -0.077034  0  4.004348  0
C  C87  1  0.62095826  0.87414923  0.01275194  1  0  -0.067193  0  3.761843  0  0  -0.079309  0  4.018748  0  0  -0.08286  0  4.039671  0  -0.015686  0  -0.086276  -0.077026  0  4.004447  0
C  C88  1  0.43503570  0.18321244  0.91458328  1  0  -0.085559  0  3.711468  0  0  -0.111126  0  3.964989  0  0  -0.111108  0  3.984387  0  -0.092887  0  -0.080205  -0.110784  0  3.951528  0
C  C89  1  0.56496432  0.81678834  0.08541393  1  0  -0.085563  0  3.711384  0  0  -0.111139  0  3.964914  0  0  -0.111118  0  3.984303  0  -0.09339  0  -0.080175  -0.110798  0  3.951454  0
C  C90  1  0.43827728  0.10789249  0.83482421  1  0  0.034038  0  3.760167  0  0  0.051044  0  3.995654  0  0  0.04847  0  4.019253  0  0.045475  0  -0.006159  0.052606  0  3.979433  0
C  C91  1  0.56172224  0.89210732  0.16517497  1  0  0.033947  0  3.760144  0  0  0.050969  0  3.995603  0  0  0.048395  0  4.019202  0  0.045553  0  -0.006179  0.052531  0  3.979382  0
C  C92  1  0.38585224  0.97284623  0.83205730  1  0  -0.098864  0  3.669184  0  0  -0.130095  0  3.914317  0  0  -0.129668  0  3.933078  0  -0.107205  0  -0.071329  -0.129929  0  3.901352  0
C  C93  1  0.61414403  0.02715260  0.16794044  1  0  -0.098794  0  3.669198  0  0  -0.130029  0  3.914311  0  0  -0.1296  0  3.933069  0  -0.107287  0  -0.071332  -0.129864  0  3.901344  0
C  C94  1  0.49074739  0.16743448  0.75443142  1  0  0.096378  0  3.755492  0  0  0.107569  0  3.986302  0  0  0.112656  0  4.009252  0  -0.054705  0  0.011791  0.104282  0  3.97066  0
C  C95  1  0.50925721  0.83256631  0.24556959  1  0  0.09644  0  3.75554  0  0  0.107634  0  3.986318  0  0  0.112722  0  4.00927  0  -0.054816  0  0.011775  0.104348  0  3.970673  0
C  C96  1  0.56202256  0.30393102  0.76146066  1  0  -0.172883  0  3.731667  0  0  -0.189465  0  3.978479  0  0  -0.19761  0  4.000006  0  -0.077245  0  -0.087045  -0.184276  0  3.964006  0
C  C97  1  0.43798245  0.69606879  0.23854110  1  0  -0.172928  0  3.731592  0  0  -0.189531  0  3.978416  0  0  -0.197676  0  3.999938  0  -0.077177  0  -0.087117  -0.184346  0  3.96396  0
C  C98  1  0.60578557  0.35526180  0.68286351  1  0  0.125147  0  3.742045  0  0  0.097186  0  3.99723  0  0  0.104334  0  4.015191  0  0.519185  0  0.045753  0.092835  0  3.984438  0
C  C99  1  0.39422270  0.64473898  0.31713898  1  0  0.125261  0  3.741848  0  0  0.097301  0  3.997022  0  0  0.104459  0  4.014984  0  0.519277  0  0.045859  0.092904  0  3.98422  0
C  C100  1  0.51646118  0.14910716  0.59050511  1  0  0.136519  0  3.704563  0  0  0.105641  0  3.962238  0  0  0.113922  0  3.977715  0  0.504836  0  0.048916  0.100156  0  3.951817  0
C  C101  1  0.48354301  0.85089461  0.40949727  1  0  0.136498  0  3.704543  0  0  0.105603  0  3.962217  0  0  0.113883  0  3.977696  0  0.504011  0  0.048892  0.100119  0  3.951792  0
C  C102  1  0.46738722  0.08959260  0.66476163  1  0  -0.158748  0  3.660081  0  0  -0.177582  0  3.911129  0  0  -0.184586  0  3.928625  0  -0.016058  0  -0.078714  -0.172982  0  3.899331  0
C  C103  1  0.53261230  0.91040721  0.33523685  1  0  -0.15873  0  3.660026  0  0  -0.177524  0  3.911089  0  0  -0.184528  0  3.928587  0  -0.016024  0  -0.078675  -0.172925  0  3.899286  0
C  C104  1  0.43425623  0.24695601  0.31662983  1  0  0.622159  0  3.96856  0  0  0.577285  0  4.254504  0  0  0.61156  0  4.249115  0  1.589065  0  0.185118  0.554111  0  4.257364  0
C  C105  1  0.56574521  0.75304576  0.68337197  1  0  0.62212  0  3.968553  0  0  0.577241  0  4.254498  0  0  0.611516  0  4.249112  0  1.589056  0  0.185077  0.554069  0  4.257358  0
C  C106  1  0.28988736  0.16602318  0.24234552  1  0  -0.055295  0  3.760322  0  0  -0.029583  0  3.99035  0  0  -0.03825  0  4.014268  0  -0.131351  0  -0.018285  -0.024119  0  3.974221  0
C  C107  1  0.71011266  0.83397761  0.75765594  1  0  -0.055278  0  3.760327  0  0  -0.029568  0  3.990354  0  0  -0.038234  0  4.014272  0  -0.131442  0  -0.01828  -0.024102  0  3.974215  0
C  C108  1  0.23349593  0.03023767  0.21758579  1  0  -0.096177  0  3.683831  0  0  -0.12691  0  3.927955  0  0  -0.126372  0  3.947225  0  0.078802  0  -0.076628  -0.126646  0  3.914566  0
C  C109  1  0.76650542  0.96976213  0.78241591  1  0  -0.096175  0  3.683894  0  0  -0.12691  0  3.928012  0  0  -0.126374  0  3.947284  0  0.078815  0  -0.07666  -0.126619  0  3.914645  0
C  C110  1  0.09526109  0.94983449  0.15513800  1  0  0.025608  0  3.770253  0  0  0.043449  0  4.001608  0  0  0.040151  0  4.025502  0  -0.029838  0  -0.010348  0.045431  0  3.985454  0
C  C111  1  0.90473884  0.05016433  0.84486617  1  0  0.025608  0  3.770067  0  0  0.043422  0  4.001463  0  0  0.040128  0  4.025355  0  -0.030211  0  -0.010326  0.045406  0  3.985302  0
C  C112  1  0.01441101  0.01056859  0.11814711  1  0  -0.082352  0  3.723305  0  0  -0.104253  0  3.969461  0  0  -0.104274  0  3.990526  0  -0.096008  0  -0.081846  -0.104116  0  3.955227  0
C  C113  1  0.98558883  0.98942827  0.88185413  1  0  -0.082306  0  3.72321  0  0  -0.104188  0  3.969368  0  0  -0.104206  0  3.990438  0  -0.095905  0  -0.081824  -0.10405  0  3.955138  0
C  C114  1  0.07042747  0.14611219  0.14105580  1  0  -0.081998  0  3.783077  0  0  -0.092605  0  4.037746  0  0  -0.097128  0  4.060451  0  0.022517  0  -0.094588  -0.08968  0  4.022231  0
C  C115  1  0.92957113  0.85388762  0.85894814  1  0  -0.081906  0  3.783273  0  0  -0.092495  0  4.037922  0  0  -0.097017  0  4.060626  0  0.022513  0  -0.09453  -0.089572  0  4.022408  0
C  C116  1  0.20817169  0.22412252  0.20285249  1  0  -0.064411  0  3.739898  0  0  -0.090621  0  3.98823  0  0  -0.089875  0  4.008802  0  0.014517  0  -0.081754  -0.090558  0  3.974101  0
C  C117  1  0.79182741  0.77587826  0.79715019  1  0  -0.064558  0  3.739995  0  0  -0.090779  0  3.988318  0  0  -0.090035  0  4.008891  0  0.014472  0  -0.081831  -0.090715  0  3.97419  0
C  C118  1  0.03605037  0.80605521  0.13087114  1  0  0.115679  0  3.730416  0  0  0.12581  0  3.960453  0  0  0.1319  0  3.981633  0  -0.005728  0  0.021319  0.121814  0  3.946254  0
C  C119  1  0.96395089  0.19394263  0.86913115  1  0  0.115706  0  3.730496  0  0  0.125847  0  3.960545  0  0  0.131935  0  3.981727  0  -0.005911  0  0.021323  0.121851  0  3.946351  0
C  C120  1  0.89841857  0.72383350  0.06694729  1  0  -0.163891  0  3.728177  0  0  -0.180916  0  3.975017  0  0  -0.189072  0  3.997465  0  -0.030147  0  -0.081462  -0.175527  0  3.959934  0
C  C121  1  0.10157995  0.27616434  0.93305655  1  0  -0.163894  0  3.728141  0  0  -0.180999  0  3.975033  0  0  -0.189158  0  3.997484  0  -0.029623  0  -0.081477  -0.17561  0  3.95995  0
C  C122  1  0.84661194  0.58943580  0.04636148  1  0  0.122324  0  3.743438  0  0  0.091002  0  3.994828  0  0  0.097446  0  4.012912  0  0.485277  0  0.046279  0.086904  0  3.982535  0
C  C123  1  0.15339042  0.41056597  0.95364476  1  0  0.122313  0  3.743053  0  0  0.091023  0  3.994481  0  0  0.097467  0  4.012564  0  0.48523  0  0.046219  0.086924  0  3.98219  0
C  C124  1  0.05371041  0.60808533  0.14606883  1  0  0.144382  0  3.702389  0  0  0.107806  0  3.962996  0  0  0.115937  0  3.978653  0  0.423605  0  0.052398  0.102364  0  3.952755  0
C  C125  1  0.94629135  0.39191349  0.85393220  1  0  0.144314  0  3.702497  0  0  0.107754  0  3.96307  0  0  0.115885  0  3.978726  0  0.423727  0  0.052416  0.102311  0  3.952837  0
C  C126  1  0.11342717  0.74328908  0.17058223  1  0  -0.143561  0  3.679847  0  0  -0.163653  0  3.932327  0  0  -0.17108  0  3.95272  0  0.014278  0  -0.076559  -0.159125  0  3.919218  0
C  C127  1  0.88657642  0.25670975  0.82942060  1  0  -0.143501  0  3.679882  0  0  -0.163535  0  3.932359  0  0  -0.17096  0  3.952755  0  0.01425  0  -0.076574  -0.159024  0  3.919234  0
N  N128  1  0.77845235  0.57231117  0.53543645  1  0  -0.350162  0  3.275009  0  0  -0.268155  0  3.542461  0  0  -0.290334  0  3.561899  0  -1.257997  0  -0.335368  -0.253102  0  3.528532  0
N  N129  1  0.22154758  0.42768766  0.46456419  1  0  -0.350249  0  3.274994  0  0  -0.268297  0  3.542524  0  0  -0.290476  0  3.56196  0  -1.257967  0  -0.33544  -0.253243  0  3.528594  0
N  N130  1  0.58498297  0.27978710  0.59844004  1  0  -0.339596  0  3.225102  0  0  -0.270873  0  3.493554  0  0  -0.289288  0  3.511079  0  -1.251169  0  -0.323662  -0.258295  0  3.481195  0
N  N131  1  0.41502305  0.72021466  0.40156131  1  0  -0.339661  0  3.225011  0  0  -0.270955  0  3.4935  0  0  -0.289366  0  3.511015  0  -1.25122  0  -0.323701  -0.25838  0  3.481162  0
N  N132  1  0.92250887  0.53148924  0.08458105  1  0  -0.291439  0  3.256693  0  0  -0.22638  0  3.500304  0  0  -0.241323  0  3.517114  0  -1.226241  0  -0.311265  -0.2164  0  3.489134  0
N  N133  1  0.07749065  0.46851057  0.91542096  1  0  -0.291391  0  3.256555  0  0  -0.226385  0  3.500227  0  0  -0.241327  0  3.517035  0  -1.226393  0  -0.311243  -0.216413  0  3.489047  0
O  O134  1  0.93123144  0.38485210  0.59586936  1  0  -0.66303  0  2.000816  0  0  -0.599133  0  2.232194  0  0  -0.627702  0  2.223188  0  -1.206362  0  -0.327002  -0.578907  0  2.236873  0
O  O135  1  0.06876808  0.61514771  0.40413053  1  0  -0.663047  0  2.000764  0  0  -0.599135  0  2.232123  0  0  -0.627707  0  2.223124  0  -1.206365  0  -0.326999  -0.578908  0  2.236804  0
O  O136  1  0.75941272  0.19119936  0.50283548  1  0  -0.629493  0  1.981129  0  0  -0.566202  0  2.222136  0  0  -0.595767  0  2.214511  0  -1.162752  0  -0.326311  -0.545706  0  2.226641  0
O  O137  1  0.24058588  0.80880044  0.49716351  1  0  -0.629548  0  1.981134  0  0  -0.566251  0  2.222144  0  0  -0.595816  0  2.214519  0  -1.162821  0  -0.326345  -0.545757  0  2.22665  0
O  O138  1  0.18352226  0.71817753  0.94738244  1  0  -0.556261  0  2.104724  0  0  -0.505922  0  2.332038  0  0  -0.529234  0  2.321247  0  -1.174539  0  -0.332317  -0.489487  0  2.33872  0
O  O139  1  0.81647035  0.28182130  0.05261311  1  0  -0.556254  0  2.104748  0  0  -0.505929  0  2.332068  0  0  -0.529238  0  2.321272  0  -1.174363  0  -0.332348  -0.48949  0  2.338763  0
O  O140  1  0.29819794  0.70551206  0.84149575  1  0  -0.588095  0  1.949723  0  0  -0.542019  0  2.159974  0  0  -0.563021  0  2.150102  0  -1.177299  0  -0.304873  -0.527429  0  2.166475  0
O  O141  1  0.70180016  0.29448676  0.15850167  1  0  -0.588086  0  1.949615  0  0  -0.542016  0  2.159881  0  0  -0.563016  0  2.150007  0  -1.177229  0  -0.30487  -0.527424  0  2.166379  0
O  O142  1  0.48114976  0.36843459  0.34450570  1  0  -0.647578  0  1.909412  0  0  -0.598949  0  2.134497  0  0  -0.624988  0  2.125835  0  -1.191882  0  -0.341463  -0.580768  0  2.139513  0
O  O143  1  0.51885360  0.63156913  0.65549234  1  0  -0.647559  0  1.909431  0  0  -0.598923  0  2.134503  0  0  -0.624962  0  2.125843  0  -1.191867  0  -0.341454  -0.580741  0  2.139514  0
O  O144  1  0.50067331  0.18505271  0.35059529  1  0  -0.644705  0  1.965761  0  0  -0.579685  0  2.207166  0  0  -0.609689  0  2.197895  0  -1.156138  0  -0.339774  -0.558796  0  2.212411  0
O  O145  1  0.49932905  0.81494905  0.64940529  1  0  -0.644685  0  1.965737  0  0  -0.579665  0  2.207152  0  0  -0.609665  0  2.197873  0  -1.156158  0  -0.339739  -0.558775  0  2.212391  0
O  O146  1  0.81597343  0.41158551  0.35581412  1  0  -0.859447  0  1.860026  0  0  -0.795558  0  2.054454  0  0  -0.817644  0  2.019246  0  -1.278955  0  -0.599339  -0.780004  0  2.079019  0
O  O147  1  0.18402660  0.58841527  0.64418521  1  0  -0.859466  0  1.859988  0  0  -0.795586  0  2.05443  0  0  -0.817669  0  2.019215  0  -1.278961  0  -0.59934  -0.780024  0  2.078982  0
