# generated using pymatgen
data_ZnH22C30(NO)4
_symmetry_space_group_name_H-M   'P 1'
_cell_length_a   8.39257833
_cell_length_b   13.35591020
_cell_length_c   13.35584812
_cell_angle_alpha   112.30572115
_cell_angle_beta   101.71672139
_cell_angle_gamma   101.71619419
_symmetry_Int_Tables_number   1
_chemical_formula_structural   ZnH22C30(NO)4
_chemical_formula_sum   'Zn2 H44 C60 N8 O8'
_cell_volume   1289.70690908
_cell_formula_units_Z   2
loop_
 _symmetry_equiv_pos_site_id
 _symmetry_equiv_pos_as_xyz
  1  'x, y, z'
loop_
 _atom_site_type_symbol
 _atom_site_label
 _atom_site_symmetry_multiplicity
 _atom_site_fract_x
 _atom_site_fract_y
 _atom_site_fract_z
 _atom_site_occupancy
 _atom_site_hle17_bader_spin_density
 _atom_site_hle17_ddec_charge
 _atom_site_hle17_ddec_spin_density
 _atom_site_hle17_ddec_sum_bond_order
 _atom_site_hle17_magmom
 _atom_site_hse06_10hf_bader_spin_density
 _atom_site_hse06_10hf_ddec_charge
 _atom_site_hse06_10hf_ddec_spin_density
 _atom_site_hse06_10hf_ddec_sum_bond_order
 _atom_site_hse06_10hf_magmom
 _atom_site_hse06_bader_spin_density
 _atom_site_hse06_ddec_charge
 _atom_site_hse06_ddec_spin_density
 _atom_site_hse06_ddec_sum_bond_order
 _atom_site_hse06_magmom
 _atom_site_pbe_bader_spin_density
 _atom_site_pbe_cm5_charge
 _atom_site_pbe_ddec_charge
 _atom_site_pbe_ddec_spin_density
 _atom_site_pbe_ddec_sum_bond_order
 _atom_site_pbe_magmom
Zn  Zn0  1  0.29124734  0.61552230  0.88318626  1  0  0.961986  0  1.859266  0  0  0.775525  0  2.31326  0  0  0.827394  0  2.258733  0  0  0.676886  0.739417  0  2.350536  0
Zn  Zn1  1  0.79125204  0.88318910  0.61552400  1  0  0.962137  0  1.859078  0  0  0.775684  0  2.313058  0  0  0.827557  0  2.258531  0  0  0.676956  0.739576  0  2.350327  0
H  H2  1  0.28857022  0.43222150  0.65291516  1  0  0.082527  0  0.921239  0  0  0.094333  0  0.977911  0  0  0.096286  0  0.976626  0  0  0.121827  0.09282  0  0.978965  0
H  H3  1  0.78857807  0.65291915  0.43222089  1  0  0.082496  0  0.921236  0  0  0.094302  0  0.977915  0  0  0.096254  0  0.976631  0  0  0.121829  0.09279  0  0.978966  0
H  H4  1  0.30347781  0.42658830  0.46414721  1  0  0.120102  0  0.964937  0  0  0.122581  0  1.034303  0  0  0.126108  0  1.03255  0  0  0.111836  0.120007  0  1.035762  0
H  H5  1  0.80348368  0.46415024  0.42658746  1  0  0.120125  0  0.964899  0  0  0.122614  0  1.034243  0  0  0.126141  0  1.032488  0  0  0.111851  0.120039  0  1.035698  0
H  H6  1  0.30532435  0.60063107  0.43463593  1  0  0.097903  0  0.933738  0  0  0.110046  0  0.990571  0  0  0.111971  0  0.990041  0  0  0.111739  0.108529  0  0.991127  0
H  H7  1  0.80532551  0.43463777  0.60062976  1  0  0.097955  0  0.933692  0  0  0.1101  0  0.990526  0  0  0.112038  0  0.98998  0  0  0.111765  0.108583  0  0.991084  0
H  H8  1  0.29886424  0.77430641  0.59302074  1  0  0.116722  0  0.986125  0  0  0.124856  0  1.049587  0  0  0.127818  0  1.048533  0  0  0.109348  0.122659  0  1.050522  0
H  H9  1  0.79885784  0.59302101  0.77430459  1  0  0.116756  0  0.986095  0  0  0.124852  0  1.049604  0  0  0.127833  0  1.048526  0  0  0.109334  0.122657  0  1.050543  0
H  H10  1  0.29408031  0.91178362  0.73035673  1  0  0.125608  0  0.968164  0  0  0.13275  0  1.031907  0  0  0.136611  0  1.029207  0  0  0.113184  0.129898  0  1.034056  0
H  H11  1  0.79407124  0.73035255  0.91178139  1  0  0.125589  0  0.968222  0  0  0.132758  0  1.031942  0  0  0.136611  0  1.029248  0  0  0.113197  0.129908  0  1.034093  0
H  H12  1  0.28397884  0.06721733  0.90251953  1  0  0.093719  0  0.937923  0  0  0.106842  0  0.994293  0  0  0.108586  0  0.99414  0  0  0.108387  0.105479  0  0.994526  0
H  H13  1  0.78397413  0.90251639  0.06721725  1  0  0.093654  0  0.937968  0  0  0.106766  0  0.994339  0  0  0.108511  0  0.994188  0  0  0.108328  0.105402  0  0.994578  0
H  H14  1  0.27312295  0.03264988  0.07509219  1  0  0.097191  0  0.981618  0  0  0.105414  0  1.04727  0  0  0.107931  0  1.047726  0  0  0.102479  0.103585  0  1.047128  0
H  H15  1  0.77312156  0.07508989  0.03265236  1  0  0.097218  0  0.98158  0  0  0.105431  0  1.047236  0  0  0.10795  0  1.047693  0  0  0.102467  0.103598  0  1.047098  0
H  H16  1  0.28034642  0.84185229  0.06525123  1  0  0.090248  0  0.929992  0  0  0.100029  0  0.989519  0  0  0.102083  0  0.988386  0  0  0.122614  0.098436  0  0.990479  0
H  H17  1  0.78034865  0.06524933  0.84185294  1  0  0.090293  0  0.929979  0  0  0.100075  0  0.989499  0  0  0.102129  0  0.988366  0  0  0.122635  0.098485  0  0.990455  0
H  H18  1  0.70060208  0.50990716  0.88484922  1  0  0.105214  0  1.003755  0  0  0.109657  0  1.074551  0  0  0.113927  0  1.070763  0  0  0.099503  0.106515  0  1.077445  0
H  H19  1  0.20060421  0.88484847  0.50990740  1  0  0.105221  0  1.003764  0  0  0.109656  0  1.074585  0  0  0.113929  0  1.07079  0  0  0.0995  0.106512  0  1.077472  0
H  H20  1  0.42605125  0.36309475  0.81973364  1  0  0.100474  0  0.950568  0  0  0.112193  0  1.00929  0  0  0.115456  0  1.007537  0  0  0.103407  0.109826  0  1.010658  0
H  H21  1  0.92605227  0.81973267  0.36309739  1  0  0.100436  0  0.950622  0  0  0.112151  0  1.009353  0  0  0.115414  0  1.0076  0  0  0.103376  0.109785  0  1.010719  0
H  H22  1  0.65722530  0.10415710  0.67247979  1  0  0.11369  0  0.976626  0  0  0.120503  0  1.042106  0  0  0.12395  0  1.040502  0  0  0.102945  0.118004  0  1.043401  0
H  H23  1  0.15722223  0.67247816  0.10415584  1  0  0.113719  0  0.976609  0  0  0.120514  0  1.042102  0  0  0.12396  0  1.040499  0  0  0.102961  0.118016  0  1.043391  0
H  H24  1  0.93449095  0.25285660  0.73922207  1  0  0.098779  0  0.987984  0  0  0.102284  0  1.062479  0  0  0.10636  0  1.058476  0  0  0.099125  0.099317  0  1.065406  0
H  H25  1  0.43449023  0.73922505  0.25285633  1  0  0.098761  0  0.987962  0  0  0.102267  0  1.06247  0  0  0.106344  0  1.058465  0  0  0.099094  0.099306  0  1.065386  0
H  H26  1  0.37382532  0.04415961  0.66047917  1  0  0.10221  0  0.966202  0  0  0.110154  0  1.034293  0  0  0.113998  0  1.030188  0  0  0.105541  0.10734  0  1.037283  0
H  H27  1  0.87381795  0.66047407  0.04415771  1  0  0.10218  0  0.966161  0  0  0.110119  0  1.034282  0  0  0.113977  0  1.030141  0  0  0.105552  0.107307  0  1.037269  0
H  H28  1  0.19225587  0.22459192  0.74734776  1  0  0.114596  0  0.963237  0  0  0.123132  0  1.02751  0  0  0.127453  0  1.025011  0  0  0.103082  0.120053  0  1.029455  0
H  H29  1  0.69225168  0.74734984  0.22459274  1  0  0.114609  0  0.963301  0  0  0.123144  0  1.027565  0  0  0.127467  0  1.025063  0  0  0.103097  0.120066  0  1.029508  0
H  H30  1  0.98228614  0.25031715  0.56081190  1  0  0.064807  0  0.938272  0  0  0.074177  0  1.001673  0  0  0.076464  0  0.999925  0  0  0.106791  0.072517  0  1.002968  0
H  H31  1  0.48228853  0.56081232  0.25032600  1  0  0.064785  0  0.938365  0  0  0.074134  0  1.001777  0  0  0.076421  0  1.000018  0  0  0.106777  0.072469  0  1.003078  0
H  H32  1  0.80791105  0.04673709  0.48449426  1  0  0.110187  0  0.970649  0  0  0.11755  0  1.032761  0  0  0.120379  0  1.032748  0  0  0.102709  0.115485  0  1.032947  0
H  H33  1  0.30792056  0.48449960  0.04674347  1  0  0.110178  0  0.970668  0  0  0.117572  0  1.032752  0  0  0.120402  0  1.032735  0  0  0.102726  0.115504  0  1.032942  0
H  H34  1  0.61514095  0.94790672  0.28130871  1  0  0.093664  0  0.943067  0  0  0.106239  0  1.000332  0  0  0.108414  0  0.999353  0  0  0.104322  0.104653  0  1.001032  0
H  H35  1  0.11514923  0.28131583  0.94790672  1  0  0.093614  0  0.943048  0  0  0.106193  0  1.000323  0  0  0.108377  0  0.999334  0  0  0.104281  0.104605  0  1.001024  0
H  H36  1  0.60900503  0.05627437  0.16544006  1  0  0.083944  0  0.989025  0  0  0.094318  0  1.054491  0  0  0.097007  0  1.054438  0  0  0.094368  0.092413  0  1.054636  0
H  H37  1  0.10900486  0.16544448  0.05627287  1  0  0.083896  0  0.989063  0  0  0.094309  0  1.054474  0  0  0.096997  0  1.054429  0  0  0.094351  0.092403  0  1.054615  0
H  H38  1  0.55255447  0.17142489  0.10599203  1  0  0.08672  0  0.986717  0  0  0.096054  0  1.054224  0  0  0.098719  0  1.053982  0  0  0.095338  0.09414  0  1.054524  0
H  H39  1  0.05255421  0.10599449  0.17142348  1  0  0.086714  0  0.986741  0  0  0.096044  0  1.054246  0  0  0.098709  0  1.054006  0  0  0.095338  0.094132  0  1.054547  0
H  H40  1  0.57115266  0.28491515  0.99538243  1  0  0.085514  0  0.953844  0  0  0.097797  0  1.012677  0  0  0.09941  0  1.013056  0  0  0.101119  0.096619  0  1.012444  0
H  H41  1  0.07115297  0.99538386  0.28491257  1  0  0.085514  0  0.953876  0  0  0.097811  0  1.012692  0  0  0.099423  0  1.013072  0  0  0.101141  0.09663  0  1.01246  0
H  H42  1  0.82435030  0.45975058  0.07006322  1  0  0.100372  0  0.964109  0  0  0.110106  0  1.024986  0  0  0.111809  0  1.026539  0  0  0.101772  0.108847  0  1.024049  0
H  H43  1  0.32435449  0.07006196  0.45974840  1  0  0.100302  0  0.964207  0  0  0.110078  0  1.025025  0  0  0.111782  0  1.026578  0  0  0.101806  0.108821  0  1.02409  0
H  H44  1  0.04663741  0.51228328  0.25300126  1  0  0.064469  0  0.941786  0  0  0.071735  0  1.007426  0  0  0.07347  0  1.007417  0  0  0.105228  0.070475  0  1.007448  0
H  H45  1  0.54664045  0.25299941  0.51228386  1  0  0.064419  0  0.941817  0  0  0.071685  0  1.007468  0  0  0.073425  0  1.007445  0  0  0.105211  0.070427  0  1.007493  0
C  C46  1  0.29182260  0.50598045  0.63558385  1  0  0.145222  0  3.68042  0  0  0.114335  0  3.92888  0  0  0.120819  0  3.946951  0  0  0.06037  0.110117  0  3.916637  0
C  C47  1  0.79182774  0.63558598  0.50597949  1  0  0.14517  0  3.68039  0  0  0.114271  0  3.928872  0  0  0.120753  0  3.946944  0  0  0.060317  0.110047  0  3.916627  0
C  C48  1  0.29821857  0.50278599  0.53103117  1  0  -0.08226  0  3.680179  0  0  -0.100056  0  3.940232  0  0  -0.104498  0  3.958065  0  0  -0.064751  -0.097347  0  3.928473  0
C  C49  1  0.79822013  0.53103446  0.50278549  1  0  -0.082263  0  3.680147  0  0  -0.100034  0  3.940171  0  0  -0.104476  0  3.95801  0  0  -0.064745  -0.097322  0  3.928405  0
C  C50  1  0.29983674  0.60024953  0.51530871  1  0  0.014734  0  3.680986  0  0  -0.005338  0  3.93226  0  0  -0.002268  0  3.950413  0  0  -0.056504  -0.007153  0  3.919979  0
C  C51  1  0.79983610  0.51531095  0.60024978  1  0  0.014718  0  3.680861  0  0  -0.00539  0  3.932183  0  0  -0.002331  0  3.950337  0  0  -0.056519  -0.007202  0  3.919904  0
C  C52  1  0.29533159  0.69710570  0.60344137  1  0  -0.130803  0  3.678933  0  0  -0.151467  0  3.92451  0  0  -0.158057  0  3.946478  0  0  -0.075701  -0.147171  0  3.909798  0
C  C53  1  0.79532695  0.60344361  0.69710472  1  0  -0.130872  0  3.678835  0  0  -0.151498  0  3.924425  0  0  -0.158105  0  3.946383  0  0  -0.075727  -0.147211  0  3.909726  0
C  C54  1  0.29204237  0.69461094  0.70665348  1  0  0.168601  0  3.756279  0  0  0.164903  0  3.99487  0  0  0.170114  0  4.016966  0  0  0.117105  0.161476  0  3.979843  0
C  C55  1  0.79203858  0.70665428  0.69460978  1  0  0.168583  0  3.756382  0  0  0.164886  0  3.994945  0  0  0.170097  0  4.017044  0  0  0.117164  0.16146  0  3.979918  0
C  C56  1  0.29152470  0.79412283  0.80640275  1  0  0.186933  0  3.734553  0  0  0.181715  0  3.97372  0  0  0.18903  0  3.993997  0  0  0.125712  0.176827  0  3.960014  0
C  C57  1  0.79151981  0.80640216  0.79412190  1  0  0.186977  0  3.734621  0  0  0.181805  0  3.973748  0  0  0.189121  0  3.994022  0  0  0.12573  0.176924  0  3.960035  0
C  C58  1  0.29261657  0.89884021  0.80577995  1  0  -0.125093  0  3.662685  0  0  -0.145894  0  3.910489  0  0  -0.152523  0  3.930599  0  0  -0.073444  -0.141666  0  3.897145  0
C  C59  1  0.79260979  0.80577640  0.89883785  1  0  -0.125169  0  3.662734  0  0  -0.14602  0  3.910556  0  0  -0.152644  0  3.930663  0  0  -0.073485  -0.1418  0  3.897222  0
C  C60  1  0.28569961  0.98575175  0.90250040  1  0  0.000413  0  3.717656  0  0  -0.018371  0  3.967479  0  0  -0.01492  0  3.986237  0  0  -0.065876  -0.020406  0  3.954727  0
C  C61  1  0.78569533  0.90249603  0.98575144  1  0  0.000578  0  3.717555  0  0  -0.018177  0  3.967337  0  0  -0.014727  0  3.986096  0  0  -0.065791  -0.020211  0  3.95459  0
C  C62  1  0.28000676  0.96729431  0.99802215  1  0  -0.13795  0  3.75388  0  0  -0.150161  0  4.006544  0  0  -0.15667  0  4.027211  0  0  -0.087899  -0.146035  0  3.992747  0
C  C63  1  0.78000409  0.99801899  0.96729405  1  0  -0.138038  0  3.753902  0  0  -0.150238  0  4.00655  0  0  -0.156751  0  4.02722  0  0  -0.087884  -0.1461  0  3.992747  0
C  C64  1  0.28273011  0.86166573  0.99334425  1  0  0.143919  0  3.691124  0  0  0.113596  0  3.938112  0  0  0.120736  0  3.955596  0  0  0.055271  0.108951  0  3.926299  0
C  C65  1  0.78272851  0.99334163  0.86166600  1  0  0.143888  0  3.691097  0  0  0.11358  0  3.938094  0  0  0.12072  0  3.955577  0  0  0.055239  0.108924  0  3.926286  0
C  C66  1  0.00384972  0.48184853  0.85496774  1  0  0.61672  0  3.917742  0  0  0.572294  0  4.200143  0  0  0.606608  0  4.193715  0  0  0.193402  0.549088  0  4.203605  0
C  C67  1  0.50385328  0.85496968  0.48184756  1  0  0.61681  0  3.917633  0  0  0.572365  0  4.200069  0  0  0.606682  0  4.193634  0  0  0.193428  0.549172  0  4.203516  0
C  C68  1  0.83776467  0.39162287  0.81695038  1  0  -0.07046  0  3.781858  0  0  -0.045686  0  4.009948  0  0  -0.054663  0  4.034223  0  0  -0.020911  -0.039828  0  3.993454  0
C  C69  1  0.33776430  0.81694939  0.39162260  1  0  -0.07035  0  3.781868  0  0  -0.045563  0  4.009955  0  0  -0.054542  0  4.034232  0  0  -0.020849  -0.039709  0  3.993463  0
C  C70  1  0.69251180  0.42120764  0.83858155  1  0  -0.079871  0  3.749342  0  0  -0.103545  0  3.998478  0  0  -0.103309  0  4.017949  0  0  -0.088547  -0.103452  0  3.985209  0
C  C71  1  0.19251471  0.83858060  0.42120885  1  0  -0.079943  0  3.749434  0  0  -0.103637  0  3.998592  0  0  -0.103398  0  4.018059  0  0  -0.088583  -0.103544  0  3.985314  0
C  C72  1  0.53650868  0.33783851  0.80119198  1  0  -0.11151  0  3.716947  0  0  -0.127009  0  3.957371  0  0  -0.130353  0  3.977784  0  0  -0.087  -0.124709  0  3.943439  0
C  C73  1  0.03650812  0.80119060  0.33784060  1  0  -0.111513  0  3.716875  0  0  -0.12699  0  3.957309  0  0  -0.130335  0  3.977723  0  0  -0.086987  -0.124687  0  3.943371  0
C  C74  1  0.52180656  0.22209550  0.74096702  1  0  0.072296  0  3.835722  0  0  0.092812  0  4.063876  0  0  0.092257  0  4.088031  0  0  -0.013181  0.093257  0  4.047292  0
C  C75  1  0.02180458  0.74096531  0.22209725  1  0  0.072432  0  3.835555  0  0  0.092908  0  4.063758  0  0  0.09235  0  4.087917  0  0  -0.013142  0.093347  0  4.04718  0
C  C76  1  0.66762392  0.19331664  0.71924801  1  0  -0.11209  0  3.701076  0  0  -0.130478  0  3.946426  0  0  -0.134056  0  3.966593  0  0  -0.088073  -0.128071  0  3.932749  0
C  C77  1  0.16762129  0.71924708  0.19331647  1  0  -0.112125  0  3.70108  0  0  -0.130477  0  3.946433  0  0  -0.134056  0  3.966605  0  0  -0.088054  -0.128068  0  3.932757  0
C  C78  1  0.82359282  0.27711177  0.75672400  1  0  -0.070411  0  3.758841  0  0  -0.097731  0  4.01406  0  0  -0.096608  0  4.032944  0  0  -0.088553  -0.098266  0  4.001258  0
C  C79  1  0.32359004  0.75672332  0.27711057  1  0  -0.070507  0  3.758891  0  0  -0.097831  0  4.014116  0  0  -0.096708  0  4.033  0  0  -0.088602  -0.098377  0  4.001325  0
C  C80  1  0.36374447  0.12991186  0.70104286  1  0  -0.039223  0  3.737846  0  0  -0.064423  0  3.987192  0  0  -0.058888  0  4.003086  0  0  -0.072018  -0.067807  0  3.976164  0
C  C81  1  0.86374175  0.70103893  0.12991330  1  0  -0.039173  0  3.737732  0  0  -0.064364  0  3.987081  0  0  -0.058827  0  4.002984  0  0  -0.071995  -0.067743  0  3.976053  0
C  C82  1  0.21026886  0.14117184  0.70947634  1  0  -0.24854  0  3.705011  0  0  -0.262322  0  3.960718  0  0  -0.274813  0  3.976995  0  0  -0.105659  -0.254114  0  3.949593  0
C  C83  1  0.71026817  0.70947534  0.14117196  1  0  -0.248542  0  3.705058  0  0  -0.262323  0  3.96073  0  0  -0.274815  0  3.977008  0  0  -0.105671  -0.254121  0  3.949608  0
C  C84  1  0.05748711  0.04270081  0.66865018  1  0  0.649984  0  3.949703  0  0  0.607391  0  4.229709  0  0  0.642487  0  4.223413  0  0  0.184338  0.583733  0  4.232955  0
C  C85  1  0.55748013  0.66864596  0.04269959  1  0  0.649935  0  3.949673  0  0  0.607382  0  4.229645  0  0  0.642477  0  4.223356  0  0  0.184354  0.583726  0  4.232894  0
C  C86  1  0.89802906  0.20456368  0.47274207  1  0  0.112342  0  3.75898  0  0  0.090411  0  4.017884  0  0  0.095047  0  4.03657  0  0  0.042167  0.087466  0  4.005026  0
C  C87  1  0.39803527  0.47274180  0.20456859  1  0  0.112379  0  3.7589  0  0  0.09047  0  4.017825  0  0  0.095116  0  4.036509  0  0  0.042175  0.087529  0  4.004959  0
C  C88  1  0.80105722  0.09061594  0.43042956  1  0  -0.123229  0  3.732981  0  0  -0.134522  0  3.977267  0  0  -0.141594  0  4.001015  0  0  -0.088593  -0.12988  0  3.961197  0
C  C89  1  0.30106308  0.43043322  0.09062006  1  0  -0.123306  0  3.732928  0  0  -0.134625  0  3.977207  0  0  -0.1417  0  4.000957  0  0  -0.088623  -0.129982  0  3.961137  0
C  C90  1  0.69461761  0.03646827  0.31801001  1  0  -0.022148  0  3.766111  0  0  -0.036405  0  4.010064  0  0  -0.034686  0  4.031097  0  0  -0.077138  -0.037203  0  3.995505  0
C  C91  1  0.19462522  0.31801453  0.03647046  1  0  -0.022001  0  3.766013  0  0  -0.036259  0  4.009966  0  0  -0.034548  0  4.031014  0  0  -0.077096  -0.037062  0  3.995406  0
C  C92  1  0.69107638  0.09759673  0.25355338  1  0  -0.167216  0  3.739353  0  0  -0.184025  0  3.98246  0  0  -0.190902  0  4.004575  0  0  -0.095052  -0.179408  0  3.967366  0
C  C93  1  0.19107830  0.25355603  0.09759589  1  0  -0.167206  0  3.739294  0  0  -0.18404  0  3.982401  0  0  -0.190919  0  4.004518  0  0  -0.095024  -0.179419  0  3.967305  0
C  C94  1  0.79352794  0.21200835  0.30311232  1  0  0.17253  0  3.76191  0  0  0.173068  0  4.008748  0  0  0.179163  0  4.027403  0  0  0.116832  0.169017  0  3.996019  0
C  C95  1  0.29353235  0.30311301  0.21200915  1  0  0.172524  0  3.76195  0  0  0.173044  0  4.008802  0  0  0.179139  0  4.027453  0  0  0.11683  0.168988  0  3.996076  0
C  C96  1  0.79545242  0.27978993  0.23628177  1  0  0.167631  0  3.752483  0  0  0.168101  0  3.998114  0  0  0.173934  0  4.015909  0  0  0.117615  0.164207  0  3.985999  0
C  C97  1  0.29545058  0.23628208  0.27979012  1  0  0.167603  0  3.752474  0  0  0.1681  0  3.998069  0  0  0.173932  0  4.015864  0  0  0.117615  0.164213  0  3.985947  0
C  C98  1  0.66312184  0.24589588  0.13539034  1  0  -0.158686  0  3.73548  0  0  -0.174174  0  3.977291  0  0  -0.18048  0  3.998564  0  0  -0.092069  -0.169962  0  3.962879  0
C  C99  1  0.16312070  0.13539184  0.24589441  1  0  -0.158728  0  3.735456  0  0  -0.174238  0  3.977298  0  0  -0.180543  0  3.998568  0  0  -0.092102  -0.170032  0  3.962889  0
C  C100  1  0.67226340  0.30986539  0.07392569  1  0  -0.016727  0  3.762422  0  0  -0.032161  0  4.004233  0  0  -0.030594  0  4.025834  0  0  -0.077045  -0.032887  0  3.989333  0
C  C101  1  0.17226464  0.07392676  0.30986368  1  0  -0.016699  0  3.762421  0  0  -0.032145  0  4.004234  0  0  -0.030578  0  4.025834  0  0  -0.077058  -0.032863  0  3.98933  0
C  C102  1  0.81201049  0.40719519  0.11530496  1  0  -0.125115  0  3.748296  0  0  -0.134949  0  3.989685  0  0  -0.141891  0  4.014242  0  0  -0.088293  -0.130406  0  3.973067  0
C  C103  1  0.31201093  0.11530365  0.40719415  1  0  -0.125059  0  3.748402  0  0  -0.134923  0  3.989771  0  0  -0.141865  0  4.014327  0  0  -0.088309  -0.13038  0  3.973156  0
C  C104  1  0.93595182  0.43589709  0.21735186  1  0  0.11564  0  3.758111  0  0  0.094696  0  4.012358  0  0  0.099332  0  4.031168  0  0  0.042295  0.09178  0  3.999393  0
C  C105  1  0.43595230  0.21735022  0.43589774  1  0  0.115704  0  3.758073  0  0  0.094755  0  4.012328  0  0  0.099391  0  4.031141  0  0  0.042314  0.091831  0  3.999374  0
N  N106  1  0.28965391  0.59944238  0.72098840  1  0  -0.35133  0  3.298379  0  0  -0.276814  0  3.563816  0  0  -0.29614  0  3.580999  0  0  -0.322855  -0.263763  0  3.552089  0
N  N107  1  0.78965359  0.72098972  0.59944207  1  0  -0.351262  0  3.29838  0  0  -0.276748  0  3.563814  0  0  -0.296075  0  3.581  0  0  -0.32286  -0.263693  0  3.552078  0
N  N108  1  0.28807304  0.77793103  0.89993807  1  0  -0.342564  0  3.290588  0  0  -0.268212  0  3.554121  0  0  -0.287228  0  3.570119  0  0  -0.319006  -0.255479  0  3.543321  0
N  N109  1  0.78807349  0.89993780  0.77793108  1  0  -0.342565  0  3.290605  0  0  -0.26828  0  3.554195  0  0  -0.287297  0  3.570194  0  0  -0.319024  -0.255545  0  3.543393  0
N  N110  1  0.89530333  0.26464888  0.41217579  1  0  -0.321623  0  3.050473  0  0  -0.294134  0  3.319327  0  0  -0.303949  0  3.333916  0  0  -0.310122  -0.28726  0  3.309197  0
N  N111  1  0.39530488  0.41217509  0.26465166  1  0  -0.321618  0  3.050469  0  0  -0.294127  0  3.319321  0  0  -0.303944  0  3.333907  0  0  -0.310115  -0.287257  0  3.309191  0
N  N112  1  0.92992204  0.37454525  0.27658519  1  0  -0.322276  0  3.062356  0  0  -0.292631  0  3.328455  0  0  -0.302641  0  3.343455  0  0  -0.310945  -0.285654  0  3.318078  0
N  N113  1  0.42991972  0.27658417  0.37454677  1  0  -0.322232  0  3.062295  0  0  -0.292592  0  3.328385  0  0  -0.302604  0  3.343388  0  0  -0.310938  -0.285612  0  3.318003  0
O  O114  1  0.01354658  0.58587719  0.90557563  1  0  -0.622837  0  1.953303  0  0  -0.566324  0  2.188773  0  0  -0.591182  0  2.178413  0  0  -0.317699  -0.548816  0  2.195259  0
O  O115  1  0.51355441  0.90557528  0.58587798  1  0  -0.622907  0  1.953319  0  0  -0.566374  0  2.18878  0  0  -0.59123  0  2.178416  0  0  -0.317714  -0.548862  0  2.195239  0
O  O116  1  0.13458394  0.45227245  0.83225805  1  0  -0.633757  0  1.957031  0  0  -0.569928  0  2.209601  0  0  -0.597837  0  2.19636  0  0  -0.333627  -0.55034  0  2.217862  0
O  O117  1  0.63458823  0.83226264  0.45227294  1  0  -0.63388  0  1.957018  0  0  -0.570052  0  2.209606  0  0  -0.59796  0  2.19636  0  0  -0.333702  -0.550472  0  2.217864  0
O  O118  1  0.06287404  0.94028812  0.62678301  1  0  -0.627707  0  1.97332  0  0  -0.560211  0  2.209641  0  0  -0.587549  0  2.199172  0  0  -0.318727  -0.541023  0  2.216151  0
O  O119  1  0.56286688  0.62677860  0.94028647  1  0  -0.627732  0  1.9734  0  0  -0.56024  0  2.209704  0  0  -0.587577  0  2.199232  0  0  -0.318741  -0.541054  0  2.216223  0
O  O120  1  0.91574723  0.06158942  0.67739428  1  0  -0.634232  0  2.005468  0  0  -0.564656  0  2.250747  0  0  -0.592878  0  2.239855  0  0  -0.31938  -0.544878  0  2.257421  0
O  O121  1  0.41574000  0.67739260  0.06158729  1  0  -0.634129  0  2.005353  0  0  -0.564607  0  2.250647  0  0  -0.59283  0  2.239763  0  0  -0.319387  -0.54482  0  2.257312  0
