# generated using pymatgen
data_Zn5H34C56(N2O9)2
_symmetry_space_group_name_H-M   'P 1'
_cell_length_a   11.25148733
_cell_length_b   11.36777848
_cell_length_c   12.34691185
_cell_angle_alpha   95.44416780
_cell_angle_beta   104.60478317
_cell_angle_gamma   118.79327534
_symmetry_Int_Tables_number   1
_chemical_formula_structural   Zn5H34C56(N2O9)2
_chemical_formula_sum   'Zn5 H34 C56 N4 O18'
_cell_volume   1294.95101911
_cell_formula_units_Z   1
loop_
 _symmetry_equiv_pos_site_id
 _symmetry_equiv_pos_as_xyz
  1  'x, y, z'
loop_
 _atom_site_type_symbol
 _atom_site_label
 _atom_site_symmetry_multiplicity
 _atom_site_fract_x
 _atom_site_fract_y
 _atom_site_fract_z
 _atom_site_occupancy
 _atom_site_hle17_bader_spin_density
 _atom_site_hle17_ddec_charge
 _atom_site_hle17_ddec_spin_density
 _atom_site_hle17_ddec_sum_bond_order
 _atom_site_hle17_magmom
 _atom_site_hse06_10hf_bader_spin_density
 _atom_site_hse06_10hf_ddec_charge
 _atom_site_hse06_10hf_ddec_spin_density
 _atom_site_hse06_10hf_ddec_sum_bond_order
 _atom_site_hse06_10hf_magmom
 _atom_site_hse06_bader_spin_density
 _atom_site_hse06_ddec_charge
 _atom_site_hse06_ddec_spin_density
 _atom_site_hse06_ddec_sum_bond_order
 _atom_site_hse06_magmom
 _atom_site_pbe_bader_spin_density
 _atom_site_pbe_cm5_charge
 _atom_site_pbe_ddec_charge
 _atom_site_pbe_ddec_spin_density
 _atom_site_pbe_ddec_sum_bond_order
 _atom_site_pbe_magmom
Zn  Zn0  1  0.19303336  0.21898107  0.26639061  1  0  1.145418  0  1.775864  0  0  0.977748  0  2.250844  0  0  1.027771  0  2.184967  0  0  0.671939  0.942343  0  2.29671  0
Zn  Zn1  1  0.80696753  0.78101899  0.73361114  1  0  1.145387  0  1.775948  0  0  0.977684  0  2.250934  0  0  1.027712  0  2.185054  0  0  0.671889  0.942274  0  2.296799  0
Zn  Zn2  1  0.00000056  0.00000104  0.00000021  1  0  1.204329  0  1.71981  0  0  1.052166  0  2.159134  0  0  1.100445  0  2.09728  0  0  0.655421  1.018074  0  2.201797  0
Zn  Zn3  1  0.15670974  0.97229088  0.80525021  1  0  1.074354  0  1.809794  0  0  0.889645  0  2.273589  0  0  0.938428  0  2.216256  0  0  0.686201  0.85522  0  2.313566  0
Zn  Zn4  1  0.84329054  0.02770812  0.19474888  1  0  1.074356  0  1.809813  0  0  0.889652  0  2.273609  0  0  0.938436  0  2.216272  0  0  0.686191  0.855227  0  2.313586  0
H  H5  1  0.36269492  0.86084978  0.89044438  1  0  0.083871  0  0.941272  0  0  0.092898  0  1.002996  0  0  0.095513  0  1.000778  0  0  0.118205  0.090922  0  1.004652  0
H  H6  1  0.63730556  0.13915129  0.10955493  1  0  0.083903  0  0.941273  0  0  0.092939  0  1.002983  0  0  0.095555  0  1.000765  0  0  0.118224  0.090962  0  1.004636  0
H  H7  1  0.61436556  0.92705299  0.89398260  1  0  0.121956  0  0.964426  0  0  0.131108  0  1.023917  0  0  0.134373  0  1.023233  0  0  0.107689  0.128797  0  1.024383  0
H  H8  1  0.38563531  0.07294707  0.10601834  1  0  0.121979  0  0.964402  0  0  0.131131  0  1.023894  0  0  0.134396  0  1.02321  0  0  0.107693  0.128819  0  1.024359  0
H  H9  1  0.75012053  0.12913543  0.81897975  1  0  0.112408  0  0.95288  0  0  0.121567  0  1.014984  0  0  0.124139  0  1.013746  0  0  0.112828  0.119545  0  1.016149  0
H  H10  1  0.24987828  0.87086253  0.18101892  1  0  0.112421  0  0.952886  0  0  0.121581  0  1.01499  0  0  0.124152  0  1.013749  0  0  0.112835  0.119557  0  1.016153  0
H  H11  1  0.75858884  0.32515247  0.73275020  1  0  0.104276  0  0.941044  0  0  0.117422  0  0.996633  0  0  0.119362  0  0.997453  0  0  0.108211  0.115998  0  0.996138  0
H  H12  1  0.24141141  0.67484652  0.26724726  1  0  0.104264  0  0.941114  0  0  0.117413  0  0.996702  0  0  0.119349  0  0.997526  0  0  0.108222  0.11599  0  0.996206  0
H  H13  1  0.63970077  0.45029565  0.66003548  1  0  0.112513  0  0.952675  0  0  0.122126  0  1.014958  0  0  0.125474  0  1.012512  0  0  0.108071  0.119584  0  1.016979  0
H  H14  1  0.36030213  0.54970649  0.33996527  1  0  0.112511  0  0.952652  0  0  0.122137  0  1.014915  0  0  0.125483  0  1.012472  0  0  0.108078  0.119596  0  1.01694  0
H  H15  1  0.42490424  0.48004320  0.62660254  1  0  0.106562  0  0.916249  0  0  0.121779  0  0.968089  0  0  0.124617  0  0.965873  0  0  0.116856  0.119497  0  0.970045  0
H  H16  1  0.57509595  0.51995892  0.37340086  1  0  0.106562  0  0.916326  0  0  0.121777  0  0.968164  0  0  0.124615  0  0.965948  0  0  0.116863  0.119491  0  0.970125  0
H  H17  1  0.17891379  0.39505152  0.64064071  1  0  0.097722  0  0.975816  0  0  0.109549  0  1.032169  0  0  0.111386  0  1.0338  0  0  0.10478  0.108252  0  1.031082  0
H  H18  1  0.82108156  0.60494848  0.35935982  1  0  0.097733  0  0.975844  0  0  0.10957  0  1.032178  0  0  0.111399  0  1.033815  0  0  0.104788  0.108271  0  1.031092  0
H  H19  1  0.06140106  0.18240574  0.70945020  1  0  0.09565  0  0.967064  0  0  0.104745  0  1.02871  0  0  0.107828  0  1.025049  0  0  0.121051  0.102262  0  1.031768  0
H  H20  1  0.93860237  0.81759227  0.29054949  1  0  0.095677  0  0.966984  0  0  0.104755  0  1.028647  0  0  0.107839  0  1.024987  0  0  0.121055  0.102271  0  1.031703  0
H  H21  1  0.79100243  0.26601229  0.38701582  1  0  0.101816  0  0.963587  0  0  0.109719  0  1.028704  0  0  0.113072  0  1.027024  0  0  0.104954  0.107405  0  1.029897  0
H  H22  1  0.20900104  0.73399089  0.61298595  1  0  0.101813  0  0.963524  0  0  0.109697  0  1.028662  0  0  0.113048  0  1.026982  0  0  0.104968  0.107385  0  1.029856  0
H  H23  1  0.75435538  0.43752208  0.49711813  1  0  0.101558  0  0.948891  0  0  0.1117  0  1.010089  0  0  0.115039  0  1.008022  0  0  0.107192  0.109193  0  1.011937  0
H  H24  1  0.24564791  0.56247904  0.50288423  1  0  0.10156  0  0.948853  0  0  0.11171  0  1.010036  0  0  0.115046  0  1.007973  0  0  0.107187  0.109203  0  1.011885  0
H  H25  1  0.31122599  0.52075571  0.05398295  1  0  0.096824  0  0.967921  0  0  0.105164  0  1.033297  0  0  0.107247  0  1.034046  0  0  0.100584  0.103396  0  1.033447  0
H  H26  1  0.68877449  0.47924536  0.94601637  1  0  0.096834  0  0.96786  0  0  0.105176  0  1.033222  0  0  0.10725  0  1.033995  0  0  0.100577  0.103377  0  1.033416  0
H  H27  1  0.48973950  0.71283171  0.99199636  1  0  0.090105  0  0.95257  0  0  0.101432  0  1.013268  0  0  0.104197  0  1.012282  0  0  0.099157  0.099661  0  1.013658  0
H  H28  1  0.51025528  0.28716725  0.00800315  1  0  0.090132  0  0.952535  0  0  0.101467  0  1.013221  0  0  0.104231  0  1.012238  0  0  0.09917  0.099697  0  1.013611  0
H  H29  1  0.57753421  0.20490821  0.41736833  1  0  0.089295  0  0.964082  0  0  0.100183  0  1.027221  0  0  0.10277  0  1.026005  0  0  0.100174  0.098237  0  1.028337  0
H  H30  1  0.42246431  0.79509080  0.58263443  1  0  0.089223  0  0.964098  0  0  0.100113  0  1.027244  0  0  0.1027  0  1.026026  0  0  0.100139  0.098168  0  1.02836  0
H  H31  1  0.75958815  0.14989377  0.52510973  1  0  0.099321  0  0.960589  0  0  0.107246  0  1.025517  0  0  0.110591  0  1.023346  0  0  0.101372  0.104662  0  1.027456  0
H  H32  1  0.24041183  0.85010628  0.47489263  1  0  0.099357  0  0.96059  0  0  0.107271  0  1.025523  0  0  0.110619  0  1.023349  0  0  0.101376  0.104689  0  1.027462  0
H  H33  1  0.09700225  0.57917743  0.84331568  1  0  0.098175  0  0.945151  0  0  0.107623  0  1.004972  0  0  0.111166  0  1.003013  0  0  0.100716  0.105052  0  1.006463  0
H  H34  1  0.90299525  0.42082154  0.15668199  1  0  0.098218  0  0.945158  0  0  0.10768  0  1.004955  0  0  0.111223  0  1.002997  0  0  0.10075  0.105113  0  1.006443  0
H  H35  1  0.04021708  0.34612715  0.87710842  1  0  0.103561  0  0.945895  0  0  0.112026  0  1.007942  0  0  0.11579  0  1.005313  0  0  0.104767  0.109233  0  1.01025  0
H  H36  1  0.95977987  0.65387078  0.12288904  1  0  0.103561  0  0.945898  0  0  0.112011  0  1.007958  0  0  0.115774  0  1.005331  0  0  0.104775  0.109215  0  1.010266  0
H  H37  1  0.05071061  0.97991354  0.21314409  1  0  0.412375  0  0.900569  0  0  0.381051  0  0.966935  0  0  0.392667  0  0.950216  0  0  0.281319  0.372749  0  0.978888  0
H  H38  1  0.94928841  0.02008649  0.78685562  1  0  0.412374  0  0.900556  0  0  0.381051  0  0.96693  0  0  0.392666  0  0.950215  0  0  0.28132  0.37275  0  0.978886  0
C  C39  1  0.42754662  0.94851867  0.85922775  1  0  0.139037  0  3.69936  0  0  0.106417  0  3.954561  0  0  0.114698  0  3.971484  0  0  0.055081  0.101004  0  3.942903  0
C  C40  1  0.57245236  0.05148135  0.14077034  1  0  0.139045  0  3.69934  0  0  0.106411  0  3.954535  0  0  0.114693  0  3.971456  0  0  0.055101  0.101002  0  3.942874  0
C  C41  1  0.56656346  0.98566157  0.86055761  1  0  -0.118358  0  3.705357  0  0  -0.131456  0  3.960368  0  0  -0.139128  0  3.981774  0  0  -0.081732  -0.126426  0  3.945767  0
C  C42  1  0.43343684  0.01433744  0.13944229  1  0  -0.118401  0  3.705341  0  0  -0.131498  0  3.96036  0  0  -0.139169  0  3.981764  0  0  -0.081748  -0.126467  0  3.945754  0
C  C43  1  0.64266919  0.09876651  0.81999483  1  0  -0.033452  0  3.659125  0  0  -0.060904  0  3.908596  0  0  -0.05842  0  3.927573  0  0  -0.058744  -0.062428  0  3.896154  0
C  C44  1  0.35733055  0.90123146  0.18000405  1  0  -0.033431  0  3.659106  0  0  -0.060878  0  3.908576  0  0  -0.058388  0  3.927546  0  0  -0.058742  -0.062402  0  3.896131  0
C  C45  1  0.57952590  0.17391343  0.77729147  1  0  0.029257  0  3.782531  0  0  0.047624  0  4.011636  0  0  0.044838  0  4.03704  0  0  0.003591  0.049207  0  3.994725  0
C  C46  1  0.42047321  0.82608348  0.22270394  1  0  0.029231  0  3.782565  0  0  0.0476  0  4.01169  0  0  0.044812  0  4.037093  0  0  0.003602  0.049183  0  3.994781  0
C  C47  1  0.65007273  0.29134382  0.73289145  1  0  -0.092502  0  3.724922  0  0  -0.114772  0  3.977706  0  0  -0.118826  0  4.002275  0  0  -0.078927  -0.111848  0  3.960968  0
C  C48  1  0.34992719  0.70865621  0.26710765  1  0  -0.092485  0  3.724944  0  0  -0.114755  0  3.977723  0  0  -0.118807  0  4.002292  0  0  -0.078939  -0.111833  0  3.960991  0
C  C49  1  0.58380748  0.36003626  0.69214440  1  0  -0.075695  0  3.703498  0  0  -0.102461  0  3.962651  0  0  -0.104309  0  3.982991  0  0  -0.073832  -0.101129  0  3.948972  0
C  C50  1  0.41619187  0.63996272  0.30785367  1  0  -0.075724  0  3.70341  0  0  -0.102503  0  3.962576  0  0  -0.10435  0  3.982913  0  0  -0.073858  -0.101174  0  3.948909  0
C  C51  1  0.44203953  0.31728573  0.69350925  1  0  0.036095  0  3.773701  0  0  0.051994  0  4.006781  0  0  0.049477  0  4.030868  0  0  0.006952  0.053635  0  3.990427  0
C  C52  1  0.55795967  0.68271121  0.30649104  1  0  0.036045  0  3.773764  0  0  0.051944  0  4.00682  0  0  0.049428  0  4.030909  0  0  0.006904  0.053585  0  3.990464  0
C  C53  1  0.37120139  0.38850885  0.65820241  1  0  -0.019242  0  3.652929  0  0  -0.046984  0  3.902208  0  0  -0.043546  0  3.919271  0  0  -0.049143  -0.048934  0  3.890384  0
C  C54  1  0.62879985  0.61149018  0.34179851  1  0  -0.019226  0  3.653123  0  0  -0.046968  0  3.902392  0  0  -0.043533  0  3.919454  0  0  -0.049124  -0.048916  0  3.890569  0
C  C55  1  0.23609424  0.34203208  0.66603404  1  0  -0.11702  0  3.730563  0  0  -0.12943  0  3.9826  0  0  -0.137169  0  4.005177  0  0  -0.083201  -0.124388  0  3.967121  0
C  C56  1  0.76390462  0.65796589  0.33396707  1  0  -0.116973  0  3.730469  0  0  -0.129394  0  3.982493  0  0  -0.137123  0  4.005073  0  0  -0.083184  -0.124352  0  3.967013  0
C  C57  1  0.17009170  0.22347458  0.70678248  1  0  0.157878  0  3.656285  0  0  0.125835  0  3.904947  0  0  0.134565  0  3.920798  0  0  0.064125  0.120158  0  3.894448  0
C  C58  1  0.82990969  0.77652650  0.29321623  1  0  0.157846  0  3.656007  0  0  0.12581  0  3.904683  0  0  0.134541  0  3.92053  0  0  0.064152  0.120134  0  3.894183  0
C  C59  1  0.36857345  0.20072908  0.73619142  1  0  0.129992  0  3.76009  0  0  0.123596  0  3.993987  0  0  0.127375  0  4.016943  0  0  0.118791  0.121154  0  3.97842  0
C  C60  1  0.63142502  0.79926992  0.26380889  1  0  0.129994  0  3.760034  0  0  0.123655  0  3.993864  0  0  0.127432  0  4.016823  0  0  0.118817  0.121215  0  3.978293  0
C  C61  1  0.43855614  0.12838508  0.77875342  1  0  0.130022  0  3.759307  0  0  0.122025  0  3.995229  0  0  0.125954  0  4.017854  0  0  0.11952  0.119121  0  3.980061  0
C  C62  1  0.56144264  0.87161287  0.22124363  1  0  0.13011  0  3.759301  0  0  0.122058  0  3.995262  0  0  0.125988  0  4.017887  0  0  0.119546  0.119151  0  3.980092  0
C  C63  1  0.88145440  0.36878648  0.43737068  1  0  -0.076263  0  3.734862  0  0  -0.097738  0  3.980446  0  0  -0.098832  0  4.000259  0  0  -0.082515  -0.096906  0  3.967037  0
C  C64  1  0.11854909  0.63121671  0.56263191  1  0  -0.07627  0  3.734669  0  0  -0.097718  0  3.980274  0  0  -0.098811  0  4.000086  0  0  -0.08251  -0.096885  0  3.966868  0
C  C65  1  0.86132644  0.46350933  0.49774297  1  0  -0.078716  0  3.744106  0  0  -0.101214  0  3.992184  0  0  -0.101729  0  4.011674  0  0  -0.082623  -0.100882  0  3.979069  0
C  C66  1  0.13867465  0.53649280  0.50225900  1  0  -0.07874  0  3.744042  0  0  -0.101241  0  3.992084  0  0  -0.101755  0  4.011575  0  0  -0.082652  -0.100909  0  3.978975  0
C  C67  1  0.02005866  0.40425381  0.43984228  1  0  -0.054395  0  3.749154  0  0  -0.032923  0  3.981383  0  0  -0.039462  0  4.003088  0  0  -0.01244  -0.028471  0  3.966618  0
C  C68  1  0.97994336  0.59574833  0.56016071  1  0  -0.05436  0  3.749126  0  0  -0.032939  0  3.98143  0  0  -0.039478  0  4.003133  0  0  -0.012486  -0.028485  0  3.966664  0
C  C69  1  0.03946687  0.29823270  0.37842211  1  0  0.667113  0  3.893868  0  0  0.613171  0  4.189768  0  0  0.648648  0  4.181289  0  0  0.217878  0.589013  0  4.194756  0
C  C70  1  0.96053699  0.70176945  0.62158047  1  0  0.667044  0  3.894041  0  0  0.613061  0  4.190005  0  0  0.648539  0  4.181525  0  0  0.217819  0.588902  0  4.194992  0
C  C71  1  0.39386631  0.51235267  0.02966379  1  0  -0.078583  0  3.748101  0  0  -0.102504  0  3.998497  0  0  -0.103278  0  4.0198  0  0  -0.089507  -0.10198  0  3.984695  0
C  C72  1  0.60613305  0.48765148  0.97033475  1  0  -0.07858  0  3.748055  0  0  -0.102493  0  3.998433  0  0  -0.103267  0  4.019727  0  0  -0.089531  -0.101955  0  3.984638  0
C  C73  1  0.39955613  0.39233554  0.03391259  1  0  -0.053407  0  3.754679  0  0  -0.030424  0  3.986722  0  0  -0.036969  0  4.008547  0  0  -0.017427  -0.026109  0  3.971883  0
C  C74  1  0.60044417  0.60766863  0.96608697  1  0  -0.053547  0  3.754654  0  0  -0.030534  0  3.98667  0  0  -0.03707  0  4.008493  0  0  -0.01741  -0.026212  0  3.971819  0
C  C75  1  0.49383676  0.61937228  0.99585723  1  0  -0.085748  0  3.76008  0  0  -0.10916  0  4.011274  0  0  -0.110372  0  4.031985  0  0  -0.092004  -0.107998  0  3.996572  0
C  C76  1  0.50616201  0.38063082  0.00413947  1  0  -0.085796  0  3.760159  0  0  -0.109213  0  4.011369  0  0  -0.110426  0  4.032081  0  0  -0.091979  -0.108045  0  3.996664  0
C  C77  1  0.29783525  0.28230075  0.07789574  1  0  0.672655  0  3.880637  0  0  0.620323  0  4.17299  0  0  0.656196  0  4.163249  0  0  0.217163  0.595926  0  4.178541  0
C  C78  1  0.70216362  0.71770238  0.92210584  1  0  0.672779  0  3.88077  0  0  0.62045  0  4.173131  0  0  0.656301  0  4.163422  0  0  0.217208  0.596051  0  4.178679  0
C  C79  1  0.54525958  0.11582371  0.45446747  1  0  -0.0793  0  3.757335  0  0  -0.104966  0  4.010363  0  0  -0.106403  0  4.032935  0  0  -0.088403  -0.103965  0  3.995203  0
C  C80  1  0.45473945  0.88417117  0.54553341  1  0  -0.079138  0  3.757185  0  0  -0.104792  0  4.010221  0  0  -0.106222  0  4.032783  0  0  -0.088335  -0.103788  0  3.995062  0
C  C81  1  0.39922696  0.03064926  0.44056507  1  0  -0.056763  0  3.758437  0  0  -0.031863  0  3.9863  0  0  -0.03852  0  4.008893  0  0  -0.017039  -0.027586  0  3.97105  0
C  C82  1  0.60077317  0.96934769  0.55943543  1  0  -0.05675  0  3.758354  0  0  -0.031893  0  3.986309  0  0  -0.038551  0  4.008901  0  0  -0.017007  -0.027625  0  3.971063  0
C  C83  1  0.64545965  0.08520781  0.51330894  1  0  -0.07689  0  3.735325  0  0  -0.100968  0  3.987473  0  0  -0.101837  0  4.007544  0  0  -0.085481  -0.09996  0  3.974006  0
C  C84  1  0.35453981  0.91479122  0.48669483  1  0  -0.077038  0  3.735325  0  0  -0.101112  0  3.987449  0  0  -0.101983  0  4.007518  0  0  -0.085505  -0.100109  0  3.973983  0
C  C85  1  0.28873253  0.05675020  0.37079967  1  0  0.652464  0  3.90212  0  0  0.603095  0  4.192707  0  0  0.637565  0  4.185119  0  0  0.209925  0.579643  0  4.197093  0
C  C86  1  0.71126907  0.94325296  0.62920089  1  0  0.652516  0  3.902172  0  0  0.603139  0  4.192804  0  0  0.63761  0  4.185214  0  0  0.209954  0.579693  0  4.197183  0
C  C87  1  0.05492719  0.54392128  0.91206447  1  0  -0.073462  0  3.735067  0  0  -0.094565  0  3.981494  0  0  -0.095335  0  4.001106  0  0  -0.083294  -0.093781  0  3.968018  0
C  C88  1  0.94507012  0.45607562  0.08793298  1  0  -0.073625  0  3.735157  0  0  -0.094746  0  3.981597  0  0  -0.095517  0  4.001206  0  0  -0.083377  -0.093964  0  3.968122  0
C  C89  1  0.03201792  0.63067743  0.98135313  1  0  -0.055697  0  3.729156  0  0  -0.035864  0  3.965761  0  0  -0.042469  0  3.988188  0  0  -0.013417  -0.031149  0  3.950329  0
C  C90  1  0.96798235  0.36932157  0.01864515  1  0  -0.055612  0  3.729157  0  0  -0.03578  0  3.965751  0  0  -0.042388  0  3.988175  0  0  -0.013384  -0.031074  0  3.950337  0
C  C91  1  0.02317021  0.41456629  0.93056647  1  0  -0.078949  0  3.73959  0  0  -0.101312  0  3.992278  0  0  -0.101818  0  4.011113  0  0  -0.085739  -0.100864  0  3.979791  0
C  C92  1  0.97682858  0.58543166  0.06943139  1  0  -0.078842  0  3.739507  0  0  -0.101195  0  3.992202  0  0  -0.101697  0  4.011033  0  0  -0.085702  -0.100745  0  3.979706  0
C  C93  1  0.06469840  0.77026827  0.96150846  1  0  0.66416  0  3.883867  0  0  0.610438  0  4.180764  0  0  0.645744  0  4.172943  0  0  0.214213  0.586097  0  4.18572  0
C  C94  1  0.93530429  0.22973179  0.03849125  1  0  0.664121  0  3.883837  0  0  0.610406  0  4.180726  0  0  0.645727  0  4.172883  0  0  0.214163  0.586068  0  4.185688  0
N  N95  1  0.36621937  0.01878265  0.82067201  1  0  -0.353153  0  3.289206  0  0  -0.279668  0  3.56343  0  0  -0.298307  0  3.57833  0  0  -0.319928  -0.266945  0  3.55343  0
N  N96  1  0.63377939  0.98121528  0.17932422  1  0  -0.353239  0  3.289175  0  0  -0.279748  0  3.563444  0  0  -0.298389  0  3.578344  0  0  -0.320004  -0.267024  0  3.553439  0
N  N97  1  0.23482448  0.15490146  0.74128825  1  0  -0.344898  0  3.258708  0  0  -0.27351  0  3.528565  0  0  -0.292191  0  3.543951  0  0  -0.312215  -0.261009  0  3.518211  0
N  N98  1  0.76517340  0.84509648  0.25871022  1  0  -0.344922  0  3.25867  0  0  -0.273539  0  3.528503  0  0  -0.29222  0  3.54389  0  0  -0.312268  -0.26104  0  3.518148  0
O  O99  1  0.93861629  0.17244356  0.35256638  1  0  -0.629722  0  2.059649  0  0  -0.566803  0  2.319813  0  0  -0.593038  0  2.30542  0  0  -0.317843  -0.548452  0  2.329261  0
O  O100  1  0.06138531  0.82755958  0.64743337  1  0  -0.629601  0  2.05968  0  0  -0.566693  0  2.319854  0  0  -0.592932  0  2.305471  0  0  -0.317781  -0.548343  0  2.3293  0
O  O101  1  0.15844774  0.34366626  0.35828279  1  0  -0.641103  0  2.051023  0  0  -0.569651  0  2.323024  0  0  -0.598313  0  2.306049  0  0  -0.315541  -0.549651  0  2.33418  0
O  O102  1  0.84155612  0.65633589  0.64171979  1  0  -0.641223  0  2.051169  0  0  -0.569636  0  2.32308  0  0  -0.598299  0  2.306104  0  0  -0.315523  -0.549637  0  2.334234  0
O  O103  1  0.27783076  0.33107120  0.16536458  1  0  -0.647989  0  2.074398  0  0  -0.574194  0  2.349243  0  0  -0.604521  0  2.334748  0  0  -0.318355  -0.552771  0  2.358551  0
O  O104  1  0.72217035  0.66893609  0.83463867  1  0  -0.647998  0  2.074472  0  0  -0.574258  0  2.349389  0  0  -0.604579  0  2.3349  0  0  -0.318417  -0.552838  0  2.358698  0
O  O105  1  0.24232785  0.15491524  0.03159865  1  0  -0.650738  0  1.994203  0  0  -0.59569  0  2.255912  0  0  -0.620629  0  2.239483  0  0  -0.309147  -0.577985  0  2.266589  0
O  O106  1  0.75767260  0.84508898  0.96840823  1  0  -0.650717  0  1.994215  0  0  -0.59568  0  2.255948  0  0  -0.620611  0  2.239534  0  0  -0.309111  -0.577971  0  2.26662  0
O  O107  1  0.33414555  0.18320269  0.36368411  1  0  -0.66084  0  2.007675  0  0  -0.589864  0  2.271768  0  0  -0.618826  0  2.254812  0  0  -0.335962  -0.569679  0  2.283038  0
O  O108  1  0.66585388  0.81679633  0.63631803  1  0  -0.660961  0  2.007542  0  0  -0.589967  0  2.271642  0  0  -0.618933  0  2.254684  0  0  -0.336032  -0.569777  0  2.282906  0
O  O109  1  0.16149308  0.95475550  0.32167736  1  0  -0.617076  0  1.96474  0  0  -0.565455  0  2.184243  0  0  -0.589607  0  2.173273  0  0  -0.312819  -0.548351  0  2.19146  0
O  O110  1  0.83850576  0.04524247  0.67832294  1  0  -0.617009  0  1.964897  0  0  -0.565398  0  2.184422  0  0  -0.589547  0  2.17345  0  0  -0.312774  -0.54829  0  2.191635  0
O  O111  1  0.12520971  0.81059278  0.88658868  1  0  -0.646596  0  2.06044  0  0  -0.577998  0  2.326885  0  0  -0.606591  0  2.3147  0  0  -0.316066  -0.558081  0  2.335026  0
O  O112  1  0.87478909  0.18940517  0.11340999  1  0  -0.646565  0  2.060437  0  0  -0.577969  0  2.32688  0  0  -0.606567  0  2.314686  0  0  -0.316059  -0.558045  0  2.335019  0
O  O113  1  0.03019451  0.83723209  0.02239266  1  0  -0.642503  0  2.072695  0  0  -0.573647  0  2.33297  0  0  -0.602178  0  2.320518  0  0  -0.313911  -0.553305  0  2.340933  0
O  O114  1  0.96980576  0.16276691  0.97760562  1  0  -0.642515  0  2.072677  0  0  -0.573671  0  2.332968  0  0  -0.60221  0  2.320515  0  0  -0.31387  -0.553335  0  2.340964  0
O  O115  1  0.01876511  0.03672913  0.17191484  1  0  -0.989506  0  2.045721  0  0  -0.879301  0  2.359139  0  0  -0.914043  0  2.314682  0  0  -0.563765  -0.854922  0  2.389553  0
O  O116  1  0.98123575  0.96327092  0.82808528  1  0  -0.989503  0  2.045694  0  0  -0.879264  0  2.359073  0  0  -0.91401  0  2.314627  0  0  -0.56376  -0.854885  0  2.389482  0
