# generated using pymatgen
data_MnH15C21(NO4)2
_symmetry_space_group_name_H-M   'P 1'
_cell_length_a   8.93311710
_cell_length_b   11.35131618
_cell_length_c   11.58269023
_cell_angle_alpha   110.84264230
_cell_angle_beta   100.65827610
_cell_angle_gamma   112.46633109
_symmetry_Int_Tables_number   1
_chemical_formula_structural   MnH15C21(NO4)2
_chemical_formula_sum   'Mn2 H30 C42 N4 O16'
_cell_volume   941.71814788
_cell_formula_units_Z   2
loop_
 _symmetry_equiv_pos_site_id
 _symmetry_equiv_pos_as_xyz
  1  'x, y, z'
loop_
 _atom_site_type_symbol
 _atom_site_label
 _atom_site_symmetry_multiplicity
 _atom_site_fract_x
 _atom_site_fract_y
 _atom_site_fract_z
 _atom_site_occupancy
 _atom_site_hle17_ddec_charge
 _atom_site_hle17_ddec_spin_density
 _atom_site_hle17_ddec_sum_bond_order
 _atom_site_hle17_magmom
 _atom_site_hse06_10hf_ddec_charge
 _atom_site_hse06_10hf_ddec_spin_density
 _atom_site_hse06_10hf_ddec_sum_bond_order
 _atom_site_hse06_10hf_magmom
 _atom_site_hse06_ddec_charge
 _atom_site_hse06_ddec_spin_density
 _atom_site_hse06_ddec_sum_bond_order
 _atom_site_hse06_magmom
 _atom_site_pbe_cm5_charge
 _atom_site_pbe_ddec_charge
 _atom_site_pbe_ddec_spin_density
 _atom_site_pbe_ddec_sum_bond_order
 _atom_site_pbe_magmom
Mn  Mn0  1  0.35669986  0.35463652  0.37296377  1  1.167379  4.832621  1.7876  4.655  1.000355  4.693163  2.294559  4.511  1.071929  4.768347  2.212113  4.586  0.583322  0.934574  4.606188  2.362383  4.421
Mn  Mn1  1  0.63568589  0.63169986  0.61454918  1  0.912505  1.100734  2.512907  1.123  0.825023  1.119911  3.046839  1.091  0.866153  1.020903  2.978016  1.008  0.609853  0.806192  1.226235  3.082663  1.186
H  H2  1  0.67634583  0.39920667  0.11678199  1  0.099614  5.2e-05  0.94485  0.0  0.110159  -0.000153  1.005083  0.0  0.113504  -0.000131  1.002866  0.0  0.106176  0.107704  -0.000174  1.006803  0.0
H  H3  1  0.34053602  0.61474990  0.90062525  1  0.098532  -5.8e-05  0.941387  0.0  0.108998  5.9e-05  1.001735  0.0  0.112224  6.5e-05  0.999916  0.0  0.105017  0.10667  5.9e-05  1.003084  0.0
H  H4  1  0.07323801  0.64099318  0.50988723  1  0.098131  0.000158  0.962445  0.0  0.105693  -0.000105  1.031828  0.0  0.109009  -9.3e-05  1.029186  0.0  0.105649  0.103087  -0.000135  1.034104  0.0
H  H5  1  0.95376594  0.37956551  0.50354081  1  0.099492  -0.000125  0.95718  0.0  0.107805  -0.00029  1.024747  0.0  0.110767  -0.000231  1.022773  0.0  0.105499  0.105682  -0.000339  1.026279  0.0
H  H6  1  0.90694198  0.41071116  0.02144741  1  0.117816  -0.000132  0.957711  0.0  0.124834  3.5e-05  1.023403  0.0  0.128904  -7e-06  1.02105  0.0  0.107358  0.121964  5.5e-05  1.025166  0.0
H  H7  1  0.10438788  0.59478550  0.98977748  1  0.117138  1.3e-05  0.959393  0.0  0.123779  7.9e-05  1.025933  0.0  0.127771  3.7e-05  1.023506  0.0  0.106391  0.12105  0.000106  1.027649  0.0
H  H8  1  0.31609119  0.80923703  0.28563774  1  0.124805  3.1e-05  0.92943  0.0  0.137346  0.000116  0.980912  0.0  0.141113  9e-05  0.979321  0.0  0.112954  0.134613  0.000166  0.982327  0.0
H  H9  1  0.68979245  0.19472681  0.71380568  1  0.124508  -9e-06  0.929601  0.0  0.136931  -1.6e-05  0.981188  0.0  0.140617  -1.2e-05  0.979844  0.0  0.112523  0.134206  -8e-06  0.982418  0.0
H  H10  1  0.50259480  0.51339134  0.12130015  1  0.11373  -0.000137  0.948724  0.0  0.122453  -0.000197  1.013456  0.0  0.125715  -0.000163  1.012138  0.0  0.108056  0.120193  -0.000229  1.014482  0.0
H  H11  1  0.51204551  0.49427808  0.88763382  1  0.110991  -9.6e-05  0.951665  0.0  0.11975  -6.3e-05  1.01703  0.0  0.123048  -3.2e-05  1.015762  0.0  0.107219  0.117235  -7.9e-05  1.018336  0.0
H  H12  1  0.61584946  0.01609370  0.37782262  1  0.122307  -2.3e-05  0.963339  0.0  0.129333  1.7e-05  1.026796  0.0  0.133546  2.9e-05  1.022825  0.0  0.109463  0.126132  2.6e-05  1.029762  0.0
H  H13  1  0.38949276  0.99039572  0.62481435  1  0.121769  3.8e-05  0.962008  0.0  0.127114  3.7e-05  1.02661  0.0  0.131232  3.8e-05  1.022848  0.0  0.109489  0.124119  5e-05  1.029336  0.0
H  H14  1  0.80497138  0.72250637  0.21290306  1  0.101889  -4.1e-05  0.949697  0.0  0.109864  -5.3e-05  1.011898  0.0  0.113057  -6e-06  1.009783  0.0  0.104792  0.107537  -0.000102  1.013585  0.0
H  H15  1  0.20897512  0.28795270  0.79908624  1  0.101273  -6e-06  0.948022  0.0  0.109752  -3.3e-05  1.009839  0.0  0.112659  -2e-05  1.008404  0.0  0.1051  0.10769  -4.7e-05  1.010877  0.0
H  H16  1  0.93205966  0.22171200  0.27973659  1  0.092828  -0.00018  0.970996  0.0  0.101008  0.000235  1.03916  0.0  0.103512  0.000151  1.036078  0.0  0.135812  0.099031  0.000304  1.041468  0.0
H  H17  1  0.04159312  0.74218397  0.69901197  1  0.089739  5.4e-05  0.985451  0.001  0.095609  -0.000363  1.058572  0.0  0.098266  -0.000252  1.053906  0.0  0.134832  0.09365  -0.000485  1.062213  0.0
H  H18  1  0.22786912  0.23343296  0.03566102  1  0.103918  -3.9e-05  0.936258  0.0  0.116761  0.000235  0.991686  0.0  0.118891  0.000152  0.990837  0.0  0.121941  0.115103  0.000316  0.992545  0.0
H  H19  1  0.73185435  0.75087922  0.93193761  1  0.108303  6.7e-05  0.936918  0.0  0.119704  -0.000259  0.995009  0.0  0.121599  -0.000223  0.993742  0.0  0.124371  0.118486  -0.000269  0.995945  0.0
H  H20  1  0.87758808  0.07712704  0.87513406  1  0.129337  8.8e-05  0.969913  0.0  0.137949  0.000199  1.03028  0.0  0.142033  0.000206  1.027434  0.0  0.126036  0.134675  0.000224  1.032758  0.0
H  H21  1  0.08064037  0.92072972  0.10002476  1  0.12861  -0.000703  0.959936  0.0  0.137975  -0.000108  1.019423  0.0  0.140313  -0.000162  1.018705  0.0  0.127365  0.136506  -2.8e-05  1.019697  0.0
H  H22  1  0.61713194  0.91024977  0.83086382  1  0.124597  -0.000201  0.990629  0.0  0.131698  -6.9e-05  1.053731  0.0  0.136563  -8.2e-05  1.05038  0.0  0.111651  0.127843  -1.7e-05  1.056443  0.0
H  H23  1  0.35083314  0.07389781  0.15167391  1  0.123566  -0.000405  0.997304  0.0  0.132452  -0.000203  1.058043  0.0  0.136121  -0.000297  1.055558  0.0  0.10984  0.129801  -9e-05  1.059937  0.0
H  H24  1  0.66702524  0.19684398  0.21874751  1  0.110288  -0.000162  0.952505  0.0  0.119184  -0.000207  1.016249  0.0  0.121598  -0.000218  1.015757  0.0  0.108024  0.117376  -0.000197  1.01675  0.0
H  H25  1  0.30130649  0.79129975  0.76147623  1  0.105832  2.7e-05  0.962152  0.0  0.113674  -1.8e-05  1.028445  0.0  0.116212  0.0  1.02752  0.0  0.106395  0.111601  -4.7e-05  1.029565  0.0
H  H26  1  0.05716688  0.21122040  0.47033926  1  0.401652  -0.000575  0.861684  0.0  0.370226  -0.000398  0.942049  0.0  0.382436  -0.000445  0.928771  0.0  0.311429  0.361764  -0.000314  0.951003  0.0
H  H27  1  0.95551689  0.79841012  0.54363956  1  0.397128  0.000175  0.864052  0.0  0.366877  0.000315  0.941541  0.0  0.379152  0.000191  0.928543  0.0  0.315255  0.357992  0.00038  0.950973  0.0
H  H28  1  0.42408271  0.15861772  0.38331983  1  0.416751  0.000195  0.897555  0.001  0.386764  0.001009  0.958589  0.001  0.399145  0.000729  0.941037  0.001  0.290507  0.377744  0.001267  0.971281  0.002
H  H29  1  0.58219792  0.83181681  0.61809305  1  0.411091  -3.9e-05  0.909007  0.001  0.383277  -0.000443  0.966338  0.0  0.394324  -0.000667  0.951138  0.0  0.29791  0.375574  -0.000265  0.976843  0.0
H  H30  1  0.21261930  0.08183272  0.34982309  1  0.420296  0.000137  0.889439  0.001  0.388997  0.000962  0.953436  0.002  0.40055  0.000669  0.936703  0.002  0.289894  0.380598  0.001236  0.965551  0.002
H  H31  1  0.79776346  0.90040457  0.65848018  1  0.413132  0.000264  0.895571  0.002  0.385737  0.000429  0.95374  0.002  0.395533  0.000275  0.939862  0.002  0.297201  0.378995  0.000467  0.963292  0.002
C  C32  1  0.72528277  0.52444231  0.38020904  1  0.658978  -0.015175  3.815464  -0.008  0.599501  -0.008831  4.114266  -0.003  0.642388  -0.0001  4.102794  0.003  0.221415  0.569213  -0.014262  4.121602  -0.006
C  C33  1  0.29410276  0.48744126  0.63223893  1  0.654031  -0.030387  3.803962  -0.017  0.594752  -0.018447  4.104985  -0.01  0.638171  -0.006868  4.093377  -0.003  0.218962  0.564735  -0.023455  4.111505  -0.013
C  C34  1  0.85927225  0.52496873  0.32097152  1  -0.097065  0.003589  3.792158  0.004  -0.07684  -0.000243  4.037225  0.001  -0.087241  -0.00015  4.057051  0.001  -0.027512  -0.070633  -0.001175  4.024891  0.001
C  C35  1  0.16361961  0.49384103  0.69441622  1  -0.095431  0.000405  3.777546  0.002  -0.076485  -0.000529  4.026431  0.001  -0.086247  0.000147  4.045409  0.001  -0.027858  -0.070916  -0.00169  4.014515  0.001
C  C36  1  0.81275033  0.45534116  0.18218489  1  -0.039598  -0.010052  3.733396  -0.006  -0.06671  -0.004577  3.990755  -0.003  -0.061791  -0.001229  4.006336  -0.001  -0.079117  -0.07008  -0.007641  3.980803  -0.004
C  C37  1  0.20547510  0.55887093  0.83263154  1  -0.041784  -0.003117  3.738343  -0.002  -0.069172  -0.002834  3.997994  -0.002  -0.063907  -0.000684  4.012905  0.0  -0.081786  -0.072582  -0.004463  3.988179  -0.003
C  C38  1  0.03421040  0.59055298  0.40238565  1  -0.048504  -0.008744  3.72515  -0.005  -0.085607  -0.003337  3.978577  -0.002  -0.079987  -0.000593  3.994719  0.0  -0.07879  -0.08948  -0.005409  3.968467  -0.003
C  C39  1  0.98880475  0.42778016  0.61079410  1  -0.058524  -0.004132  3.716322  -0.003  -0.096073  -0.003819  3.972944  -0.002  -0.091594  -0.001299  3.988967  -0.001  -0.081075  -0.098811  -0.005614  3.96277  -0.003
C  C40  1  0.16317374  0.59038842  0.35047755  1  -0.166994  0.003322  3.755741  0.004  -0.151078  0.00035  4.002656  0.001  -0.161949  8.7e-05  4.022116  0.0  -0.020313  -0.144136  0.000191  3.989934  0.001
C  C41  1  0.85613295  0.42364334  0.65961924  1  -0.157198  0.001247  3.735345  0.001  -0.142841  0.001177  3.983826  0.002  -0.150698  0.000774  3.999501  0.001  -0.01884  -0.138814  0.00159  3.974865  0.002
C  C42  1  0.11549851  0.52965447  0.21186136  1  0.270589  -0.010828  3.759374  -0.007  0.247878  -0.005263  4.027081  -0.003  0.262878  -0.001215  4.039963  -0.001  0.093367  0.237376  -0.008896  4.018567  -0.005
C  C43  1  0.89964681  0.47869606  0.79769983  1  0.268874  -0.003797  3.745213  -0.002  0.245939  -0.004743  4.013139  -0.003  0.261084  -0.001532  4.024966  -0.001  0.092679  0.235264  -0.007575  4.005684  -0.005
C  C44  1  0.94045165  0.46026620  0.12848142  1  -0.171652  0.00458  3.739152  0.004  -0.199176  0.000927  4.009266  0.001  -0.204338  0.00033  4.024671  0.0  -0.100253  -0.196053  0.001123  3.999567  0.002
C  C45  1  0.07394807  0.54856593  0.88313903  1  -0.17215  0.001722  3.734772  0.002  -0.200284  0.000864  4.00718  0.001  -0.205079  0.000539  4.022097  0.001  -0.101381  -0.197252  0.000961  3.997383  0.001
C  C46  1  0.34283408  0.65868535  0.45083919  1  0.674934  -0.008266  3.845863  -0.005  0.618473  -0.000162  4.1455  0.001  0.655594  0.001373  4.136402  0.002  0.227661  0.592672  -0.000336  4.151074  0.001
C  C47  1  0.67563437  0.35331968  0.55822335  1  0.678596  0.005644  3.832521  0.005  0.623022  -0.000904  4.133928  -0.001  0.659953  -0.0018  4.125721  -0.001  0.228611  0.597407  0.000235  4.138226  0.0
C  C48  1  0.42311421  0.79043701  0.26949917  1  -0.193127  -0.000369  3.733719  0.0  -0.212488  -0.000107  3.986913  0.0  -0.220239  4e-06  4.005494  0.0  -0.100412  -0.207563  -0.000265  3.974675  0.0
C  C49  1  0.58462328  0.21488878  0.73276562  1  -0.194296  0.000259  3.733529  0.0  -0.213731  4.7e-05  3.986717  0.0  -0.221543  6.6e-05  4.005608  0.0  -0.100796  -0.208674  3.8e-05  3.974202  0.0
C  C50  1  0.39497853  0.64970994  0.20129433  1  0.294031  -0.000463  3.764102  0.0  0.281301  -0.000458  4.027263  0.0  0.294465  -0.000158  4.041537  0.0  0.093625  0.272302  -0.00073  4.017528  0.0
C  C51  1  0.61622849  0.35618413  0.80428117  1  0.29892  -0.000642  3.755803  0.0  0.286797  -0.000659  4.018284  0.0  0.300072  -0.000324  4.032175  0.0  0.095592  0.27749  -0.001155  4.009181  -0.001
C  C52  1  0.52997286  0.62418190  0.17619007  1  -0.173754  -0.000598  3.734349  0.0  -0.197898  -0.000554  3.996446  0.0  -0.204495  -0.000351  4.015097  0.0  -0.099252  -0.193743  -0.000761  3.984105  0.0
C  C53  1  0.48272233  0.38316933  0.83134823  1  -0.170653  2.1e-05  3.728232  0.0  -0.195019  -0.000298  3.989328  0.0  -0.201509  -0.000143  4.008303  0.0  -0.097765  -0.191194  -0.000372  3.977315  0.0
C  C54  1  0.59118669  0.90624494  0.32128477  1  -0.016435  -4.4e-05  3.689434  0.0  -0.043136  -8.4e-05  3.938675  0.0  -0.037573  4.5e-05  3.954548  0.0  -0.074025  -0.046717  -0.000151  3.928278  0.0
C  C55  1  0.41591317  0.10056171  0.68238338  1  -0.012573  -0.000644  3.683167  0.0  -0.03782  -0.000405  3.932389  0.0  -0.032784  -0.000194  3.948961  0.0  -0.072935  -0.040994  -0.000749  3.921194  0.0
C  C56  1  0.72957927  0.88152015  0.30327194  1  -0.112132  -0.000359  3.798966  0.0  -0.09304  -0.000149  4.040608  0.0  -0.104561  -2.2e-05  4.064364  0.0  -0.033094  -0.085769  -0.000358  4.024996  0.0
C  C57  1  0.27980798  0.12659769  0.70506391  1  -0.109537  0.000181  3.795714  0.0  -0.090766  0.000102  4.036482  0.0  -0.102478  0.000138  4.061467  0.0  -0.031065  -0.083131  3.5e-05  4.019582  0.0
C  C58  1  0.69670031  0.73995429  0.22757038  1  -0.03943  3e-05  3.743778  0.0  -0.063572  -0.000134  3.992732  0.0  -0.059916  -3.1e-05  4.011495  0.0  -0.080039  -0.065943  -0.000188  3.980338  0.0
C  C59  1  0.31526998  0.26872796  0.78169593  1  -0.041847  -0.000395  3.747397  0.0  -0.065946  -0.000146  3.996861  0.0  -0.063312  -0.000144  4.017186  0.0  -0.079423  -0.067358  -0.000218  3.98304  0.0
C  C60  1  0.91179803  0.99932263  0.36428930  1  0.653794  -0.000273  3.822947  0.0  0.599275  -0.000136  4.126566  0.0  0.633756  5.1e-05  4.11726  0.0  0.231342  0.575837  -0.000212  4.132528  0.0
C  C61  1  0.09940389  0.00798862  0.65050615  1  0.655534  -0.000359  3.811789  0.0  0.600917  -0.000379  4.117096  0.0  0.634903  -9.7e-05  4.108168  0.0  0.232328  0.577644  -0.000873  4.122938  0.0
C  C62  1  0.96781226  0.20619589  0.19336139  1  0.162885  0.00637  3.655389  0.006  0.10338  0.0094  3.923084  0.008  0.116179  0.007965  3.938041  0.007  0.142735  0.094325  0.008819  3.913094  0.008
C  C63  1  0.00288180  0.76656433  0.78353387  1  0.154776  -0.024943  3.625338  -0.014  0.091793  -0.008902  3.897177  -0.004  0.109067  -0.003748  3.907672  -0.001  0.136423  0.079445  -0.013513  3.89093  -0.007
C  C64  1  0.11434784  0.20829885  0.06311127  1  0.027392  0.001988  3.726452  0.003  -0.009683  0.003579  4.004537  0.004  -0.006525  0.003098  4.022248  0.004  0.006006  -0.012098  0.004386  3.992832  0.005
C  C65  1  0.84839825  0.77463971  0.90853778  1  0.023628  -0.010098  3.686423  -0.007  -0.015955  -0.000958  3.965397  0.0  -0.01095  -8.2e-05  3.981971  0.001  0.007863  -0.019304  -0.000133  3.954009  0.001
C  C66  1  0.94138284  0.13151226  0.98223856  1  -0.0619  -0.000575  3.6484  0.0  -0.104989  0.000117  3.912566  0.0  -0.102564  -0.000214  3.92812  0.0  0.002945  -0.107093  0.000649  3.903418  0.001
C  C67  1  0.02016353  0.85887108  0.99257977  1  -0.062436  0.003554  3.64663  0.003  -0.101797  0.001501  3.907088  0.001  -0.102651  0.000746  3.927652  0.001  0.004672  -0.100264  0.002151  3.891928  0.002
C  C68  1  0.66449857  0.06216693  0.02876833  1  0.163577  -0.000675  3.799451  0.0  0.15476  -0.000668  4.045237  0.0  0.159125  -0.00022  4.068867  0.0  0.088643  0.15169  -0.001885  4.029643  -0.001
C  C69  1  0.30215306  0.92441017  0.95155029  1  0.168089  0.000112  3.788889  0.0  0.158345  0.000329  4.036243  0.0  0.163193  0.000314  4.059821  0.0  0.091418  0.154445  -0.00058  4.020841  0.0
C  C70  1  0.55921874  0.94857698  0.90048254  1  -0.134252  0.000788  3.732703  0.001  -0.155874  0.000834  3.986009  0.001  -0.158107  0.000649  4.003575  0.001  -0.091642  -0.15466  0.001055  3.975148  0.001
C  C71  1  0.40769208  0.03794101  0.08005911  1  -0.139179  -0.000744  3.72581  0.0  -0.158932  -0.000753  3.974954  0.0  -0.162468  -0.000575  3.995074  0.0  -0.092258  -0.156669  -0.001022  3.961914  -0.001
C  C72  1  0.58840472  0.10707208  0.11878285  1  -0.12787  0.00036  3.744973  0.0  -0.147708  0.000532  3.998473  0.001  -0.151169  0.000357  4.02043  0.0  -0.087144  -0.145591  1.7e-05  3.984084  0.0
C  C73  1  0.37891498  0.88045431  0.86157756  1  -0.125306  -0.001245  3.746373  -0.001  -0.146034  -0.00116  4.003683  -0.001  -0.148933  -0.000508  4.024265  0.0  -0.089038  -0.144487  -0.001986  3.990892  -0.001
N  N74  1  0.12944239  0.25446354  0.19463592  1  -0.390561  0.030354  3.242279  0.012  -0.325789  0.034247  3.548524  0.009  -0.34847  0.030834  3.561959  0.007  -0.350688  -0.308253  0.036645  3.539382  0.011
N  N75  1  0.83868397  0.71699966  0.77773796  1  -0.316913  -0.022109  3.337754  -0.014  -0.260567  -0.010914  3.643031  -0.013  -0.282729  -0.008259  3.656127  -0.01  -0.371697  -0.246305  -0.013503  3.63294  -0.016
N  N76  1  0.84879316  0.13026764  0.06639559  1  -0.090148  0.001283  3.620719  0.001  0.001495  0.002329  3.829064  0.002  -0.013539  0.001887  3.855876  0.002  -0.223382  0.011221  0.002863  3.811749  0.003
N  N77  1  0.11772695  0.85408741  0.91201016  1  -0.09123  -0.000762  3.616096  0.0  -0.000641  -0.002182  3.826558  -0.001  -0.016381  -0.000912  3.853482  0.0  -0.224714  0.010302  -0.002723  3.80796  -0.001
O  O78  1  0.57021922  0.42154420  0.31320525  1  -0.610813  0.030093  2.037294  0.017  -0.546485  0.034685  2.306314  0.018  -0.576221  0.033197  2.288851  0.017  -0.298432  -0.523003  0.037039  2.318371  0.02
O  O79  1  0.45120788  0.59274042  0.69088950  1  -0.55621  0.001924  2.093921  0.006  -0.500577  0.020431  2.370171  0.02  -0.534777  0.015422  2.360709  0.014  -0.289656  -0.475359  0.024076  2.37218  0.023
O  O80  1  0.77793286  0.62936433  0.49934060  1  -0.622129  0.011483  2.159657  0.009  -0.550807  0.014932  2.424081  0.011  -0.587937  0.00888  2.415787  0.005  -0.299668  -0.524833  0.018162  2.427329  0.014
O  O81  1  0.23693386  0.37461346  0.51938570  1  -0.666612  0.027013  2.082726  0.015  -0.593667  0.032894  2.344519  0.018  -0.625483  0.03225  2.327857  0.017  -0.305494  -0.56865  0.034834  2.355307  0.02
O  O82  1  0.42198537  0.58368339  0.44378434  1  -0.648179  0.030216  2.184861  0.022  -0.577416  0.035013  2.468811  0.023  -0.613568  0.032425  2.455412  0.02  -0.286884  -0.549886  0.035847  2.476273  0.024
O  O83  1  0.58775685  0.42135022  0.56050345  1  -0.645796  0.017824  2.212843  0.005  -0.583586  0.026368  2.507394  0.017  -0.620769  0.02593  2.494331  0.017  -0.293078  -0.555  0.026457  2.512511  0.016
O  O84  1  0.40144180  0.78572802  0.54104339  1  -0.570396  -0.000972  1.984979  0.0  -0.513373  0.001458  2.195715  0.002  -0.536556  0.001811  2.185882  0.002  -0.290279  -0.497612  0.001543  2.202561  0.002
O  O85  1  0.61897725  0.22572448  0.47052110  1  -0.580405  0.003566  1.968798  0.004  -0.528146  0.000551  2.184825  0.001  -0.555864  0.000575  2.177286  0.001  -0.290051  -0.506866  -3e-05  2.188516  0.001
O  O86  1  0.23409111  0.52846404  0.15056465  1  -0.297198  -0.00085  2.391907  0.0  -0.224501  -0.000544  2.620865  0.0  -0.244457  -0.000173  2.624398  0.0  -0.141732  -0.210144  -0.000927  2.617924  0.0
O  O87  1  0.77901047  0.47595360  0.85782081  1  -0.295245  -0.000297  2.391056  0.0  -0.222936  -0.000586  2.619774  0.0  -0.242387  -0.000261  2.622655  0.0  -0.141565  -0.209186  -0.000787  2.617683  0.0
O  O88  1  0.03442935  0.97530903  0.35389276  1  -0.565251  -0.000189  1.985743  0.0  -0.515394  -4.3e-05  2.199772  0.0  -0.535934  -7.5e-05  2.18866  0.0  -0.287363  -0.501433  2.5e-05  2.207384  0.0
O  O89  1  0.97737312  0.02747900  0.67236743  1  -0.564846  0.000142  1.965568  0.0  -0.515274  0.000181  2.175581  0.0  -0.535158  8.2e-05  2.165208  0.0  -0.288492  -0.502053  0.000191  2.182917  0.0
O  O90  1  0.93224401  0.13102951  0.43105025  1  -0.545423  -9.8e-05  2.14007  0.0  -0.493739  -2.4e-05  2.368394  0.0  -0.515729  -7.7e-05  2.353446  0.0  -0.323889  -0.478402  2.2e-05  2.377941  0.0
O  O91  1  0.07834422  0.87782126  0.57608514  1  -0.541065  0.000159  2.152033  0.0  -0.490133  0.000211  2.382255  0.0  -0.512637  0.000173  2.367989  0.0  -0.323873  -0.47426  0.000289  2.391867  0.0
O  O92  1  0.30729275  0.13819936  0.32603041  1  -0.858869  0.03571  1.926139  0.023  -0.792775  0.04381  2.133154  0.027  -0.820163  0.039542  2.095894  0.024  -0.581045  -0.771302  0.046841  2.160082  0.03
O  O93  1  0.69343106  0.83693669  0.66999996  1  -0.796659  0.006539  2.058221  -0.002  -0.740251  0.003234  2.274162  -0.003  -0.774955  0.003504  2.246024  -0.002  -0.565815  -0.714203  0.003296  2.290461  -0.003
