# generated using pymatgen
data_NdH11C8SO11
_symmetry_space_group_name_H-M   'P 1'
_cell_length_a   6.96631224
_cell_length_b   10.54067722
_cell_length_c   16.67890000
_cell_angle_alpha   90.00000000
_cell_angle_beta   90.00000000
_cell_angle_gamma   90.00000000
_symmetry_Int_Tables_number   1
_chemical_formula_structural   NdH11C8SO11
_chemical_formula_sum   'Nd4 H44 C32 S4 O44'
_cell_volume   1224.72576853
_cell_formula_units_Z   4
loop_
 _symmetry_equiv_pos_site_id
 _symmetry_equiv_pos_as_xyz
  1  'x, y, z'
loop_
 _atom_site_type_symbol
 _atom_site_label
 _atom_site_symmetry_multiplicity
 _atom_site_fract_x
 _atom_site_fract_y
 _atom_site_fract_z
 _atom_site_occupancy
 _atom_site_hle17_bader_spin_density
 _atom_site_hle17_ddec_charge
 _atom_site_hle17_ddec_spin_density
 _atom_site_hle17_ddec_sum_bond_order
 _atom_site_hle17_magmom
 _atom_site_hse06_10hf_bader_spin_density
 _atom_site_hse06_10hf_ddec_charge
 _atom_site_hse06_10hf_ddec_spin_density
 _atom_site_hse06_10hf_ddec_sum_bond_order
 _atom_site_hse06_10hf_magmom
 _atom_site_hse06_bader_spin_density
 _atom_site_hse06_ddec_charge
 _atom_site_hse06_ddec_spin_density
 _atom_site_hse06_ddec_sum_bond_order
 _atom_site_hse06_magmom
 _atom_site_pbe_bader_charge
 _atom_site_pbe_bader_spin_density
 _atom_site_pbe_cm5_charge
 _atom_site_pbe_ddec_charge
 _atom_site_pbe_ddec_spin_density
 _atom_site_pbe_ddec_sum_bond_order
 _atom_site_pbe_magmom
Nd  Nd0  1  0.10528239  0.74896611  0.08201080  1  0  2.289938  0  1.549492  0  0  2.126691  0  2.010562  0  0  2.224577  0  1.85886  0  2.248759  0  1.468085  2.097582  0  2.041465  0
Nd  Nd1  1  0.89471729  0.24896598  0.91798800  1  0  2.289897  0  1.549526  0  0  2.126641  0  2.010611  0  0  2.224535  0  1.858897  0  2.248769  0  1.468073  2.097532  0  2.041517  0
Nd  Nd2  1  0.39471817  0.24896598  0.58201080  1  0  2.289895  0  1.549539  0  0  2.126623  0  2.010634  0  0  2.224519  0  1.858914  0  2.248714  0  1.468063  2.097512  0  2.04154  0
Nd  Nd3  1  0.60528438  0.74896801  0.41798980  1  0  2.289929  0  1.549476  0  0  2.126697  0  2.010516  0  0  2.224566  0  1.858845  0  2.248688  0  1.468083  2.09759  0  2.041416  0
H  H4  1  0.69283860  0.85314348  0.08836194  1  0  0.438382  0  0.845678  0  0  0.415996  0  0.897588  0  0  0.426051  0  0.88286  0  0.642152  0  0.311941  0.408957  0  0.907998  0
H  H5  1  0.30715965  0.35314334  0.91163746  1  0  0.43841  0  0.845629  0  0  0.416023  0  0.897549  0  0  0.426079  0  0.882819  0  0.642145  0  0.311951  0.408983  0  0.907961  0
H  H6  1  0.80716020  0.35314240  0.58836254  1  0  0.438388  0  0.84563  0  0  0.416  0  0.897575  0  0  0.426053  0  0.882849  0  0.642153  0  0.311942  0.408961  0  0.907986  0
H  H7  1  0.19284091  0.85314253  0.41163746  1  0  0.438402  0  0.845639  0  0  0.416016  0  0.897557  0  0  0.426071  0  0.882829  0  0.642162  0  0.311945  0.408977  0  0.907968  0
H  H8  1  0.81965749  0.97744194  0.07235429  1  0  0.455675  0  0.83895  0  0  0.424225  0  0.902507  0  0  0.435864  0  0.885675  0  0.660493  0  0.304754  0.415993  0  0.914488  0
H  H9  1  0.18034219  0.47744086  0.92764571  1  0  0.455702  0  0.838918  0  0  0.42427  0  0.902452  0  0  0.435911  0  0.885619  0  0.660428  0  0.304759  0.416037  0  0.914434  0
H  H10  1  0.68034275  0.47743991  0.57235249  1  0  0.455669  0  0.838955  0  0  0.424222  0  0.902507  0  0  0.43586  0  0.885676  0  0.660495  0  0.304754  0.415989  0  0.914488  0
H  H11  1  0.31965693  0.97744099  0.42764631  1  0  0.455695  0  0.838927  0  0  0.424263  0  0.902462  0  0  0.435903  0  0.88563  0  0.660493  0  0.304759  0.416029  0  0.914445  0
H  H12  1  0.75610449  0.57575143  0.09652495  1  0  0.444716  0  0.842434  0  0  0.413828  0  0.908626  0  0  0.42388  0  0.894029  0  0.658559  0  0.312497  0.406549  0  0.919386  0
H  H13  1  0.24389662  0.07575130  0.90347445  1  0  0.444726  0  0.842435  0  0  0.413847  0  0.908602  0  0  0.423899  0  0.894004  0  0.65855  0  0.312497  0.406567  0  0.919362  0
H  H14  1  0.74389574  0.07575320  0.59652615  1  0  0.444701  0  0.842445  0  0  0.41381  0  0.908653  0  0  0.423864  0  0.894053  0  0.658558  0  0.312489  0.406529  0  0.919416  0
H  H15  1  0.25610394  0.57575238  0.40347445  1  0  0.444709  0  0.84244  0  0  0.413832  0  0.908619  0  0  0.423885  0  0.894021  0  0.658546  0  0.312499  0.406552  0  0.919381  0
H  H16  1  0.80590703  0.56290785  0.00281733  1  0  0.457778  0  0.837216  0  0  0.423804  0  0.905229  0  0  0.435374  0  0.888511  0  0.678432  0  0.30804  0.415601  0  0.91725  0
H  H17  1  0.19409265  0.06290867  0.99718147  1  0  0.457801  0  0.837201  0  0  0.423808  0  0.905228  0  0  0.435375  0  0.888514  0  0.67849  0  0.308053  0.415606  0  0.917247  0
H  H18  1  0.69409177  0.06290962  0.50281853  1  0  0.457769  0  0.837249  0  0  0.42374  0  0.905319  0  0  0.435308  0  0.888608  0  0.678486  0  0.30803  0.415538  0  0.917338  0
H  H19  1  0.30590934  0.56290785  0.49718147  1  0  0.457793  0  0.837203  0  0  0.423778  0  0.905267  0  0  0.435347  0  0.888551  0  0.678497  0  0.308038  0.415577  0  0.917286  0
H  H20  1  0.48202692  0.82582265  0.00776730  1  0  0.442256  0  0.863126  0  0  0.411378  0  0.926871  0  0  0.421488  0  0.91233  0  0.668095  0  0.30652  0.404105  0  0.937468  0
H  H21  1  0.51797276  0.32582347  0.99223330  1  0  0.442234  0  0.863159  0  0  0.411367  0  0.926888  0  0  0.421477  0  0.912347  0  0.668062  0  0.306516  0.404092  0  0.937488  0
H  H22  1  0.01797364  0.32582347  0.50776790  1  0  0.442224  0  0.863181  0  0  0.411362  0  0.926902  0  0  0.421473  0  0.912359  0  0.668098  0  0.306506  0.404087  0  0.937501  0
H  H23  1  0.98202747  0.82582455  0.49223270  1  0  0.442224  0  0.863177  0  0  0.411355  0  0.926909  0  0  0.421466  0  0.912367  0  0.668084  0  0.306501  0.40408  0  0.93751  0
H  H24  1  0.55329274  0.69564031  0.04481591  1  0  0.432674  0  0.852871  0  0  0.404765  0  0.920757  0  0  0.415248  0  0.905218  0  0.632719  0  0.308925  0.397402  0  0.931807  0
H  H25  1  0.44670694  0.19564113  0.95518409  1  0  0.432687  0  0.852868  0  0  0.40478  0  0.920739  0  0  0.415263  0  0.9052  0  0.632723  0  0.308924  0.397417  0  0.931789  0
H  H26  1  0.94670606  0.19564113  0.54481531  1  0  0.432668  0  0.852893  0  0  0.404758  0  0.920773  0  0  0.415241  0  0.905234  0  0.63271  0  0.308914  0.397395  0  0.931821  0
H  H27  1  0.05329218  0.69564221  0.45518529  1  0  0.432685  0  0.852863  0  0  0.404778  0  0.92074  0  0  0.415259  0  0.905204  0  0.632731  0  0.308931  0.397415  0  0.931789  0
H  H28  1  0.42214444  0.42124333  0.30439178  1  0  0.129406  0  0.933564  0  0  0.135438  0  0.999205  0  0  0.140007  0  0.99447  0  0.182558  0  0.120133  0.132165  0  1.002509  0
H  H29  1  0.57785380  0.92124536  0.69560822  1  0  0.129401  0  0.933574  0  0  0.135425  0  0.999224  0  0  0.139994  0  0.994487  0  0.182544  0  0.120119  0.132151  0  1.002528  0
H  H30  1  0.07785468  0.92124346  0.80438938  1  0  0.129448  0  0.933554  0  0  0.13547  0  0.999206  0  0  0.14004  0  0.994468  0  0.182625  0  0.120144  0.132197  0  1.00251  0
H  H31  1  0.92215074  0.42124333  0.19561062  1  0  0.129404  0  0.933599  0  0  0.135438  0  0.999227  0  0  0.140006  0  0.994492  0  0.182731  0  0.120133  0.132165  0  1.002531  0
H  H32  1  0.31356332  0.21637130  0.08473041  1  0  0.112194  0  0.955257  0  0  0.119863  0  1.022042  0  0  0.123921  0  1.018169  0  0.068795  0  0.117543  0.116957  0  1.024651  0
H  H33  1  0.68643779  0.71636953  0.91526839  1  0  0.112112  0  0.955391  0  0  0.119835  0  1.022123  0  0  0.123893  0  1.018249  0  0.068788  0  0.117538  0.116931  0  1.02473  0
H  H34  1  0.18643580  0.71636669  0.58472921  1  0  0.1122  0  0.955298  0  0  0.119934  0  1.022028  0  0  0.123991  0  1.018155  0  0.068773  0  0.11756  0.117029  0  1.024636  0
H  H35  1  0.81356388  0.21637130  0.41527139  1  0  0.112229  0  0.955285  0  0  0.11989  0  1.02208  0  0  0.123948  0  1.018206  0  0.068766  0  0.117552  0.116985  0  1.024688  0
H  H36  1  0.28572650  0.02278791  0.31083105  1  0  0.114597  0  0.98246  0  0  0.121653  0  1.048625  0  0  0.126274  0  1.043906  0  0.154936  0  0.114003  0.11847  0  1.051687  0
H  H37  1  0.71426744  0.52278804  0.68916715  1  0  0.114618  0  0.982381  0  0  0.12165  0  1.04859  0  0  0.126275  0  1.04386  0  0.154875  0  0.113975  0.118465  0  1.051658  0
H  H38  1  0.21427406  0.52278709  0.81083105  1  0  0.114605  0  0.982438  0  0  0.121659  0  1.048606  0  0  0.126281  0  1.043887  0  0.154936  0  0.114005  0.118476  0  1.051667  0
H  H39  1  0.78572275  0.02278981  0.18916955  1  0  0.114595  0  0.982428  0  0  0.12163  0  1.048629  0  0  0.126253  0  1.043906  0  0.154959  0  0.113996  0.118447  0  1.051692  0
H  H40  1  0.99595737  0.64681423  0.25000150  1  0  0.444095  0  0.848364  0  0  0.413515  0  0.911  0  0  0.423942  0  0.895836  0  0.658872  0  0.306624  0.406145  0  0.921852  0
H  H41  1  0.00404088  0.14681315  0.74999910  1  0  0.444102  0  0.84835  0  0  0.413512  0  0.911002  0  0  0.423941  0  0.895834  0  0.659301  0  0.306621  0.406142  0  0.921854  0
H  H42  1  0.50404287  0.14681315  0.75000030  1  0  0.444104  0  0.848349  0  0  0.413516  0  0.911001  0  0  0.423944  0  0.895835  0  0.658559  0  0.306623  0.406145  0  0.921853  0
H  H43  1  0.49595968  0.64681328  0.24999850  1  0  0.444088  0  0.848373  0  0  0.413489  0  0.911039  0  0  0.423918  0  0.895871  0  0.659289  0  0.306611  0.406118  0  0.921891  0
H  H44  1  0.87707094  0.77409448  0.23818597  1  0  0.452963  0  0.834068  0  0  0.423827  0  0.894148  0  0  0.434193  0  0.879058  0  0.649605  0  0.31206  0.416387  0  0.905232  0
H  H45  1  0.12293018  0.27409245  0.76181403  1  0  0.452978  0  0.834052  0  0  0.423842  0  0.894132  0  0  0.434208  0  0.879042  0  0.649607  0  0.312077  0.416403  0  0.905215  0
H  H46  1  0.62292930  0.27409339  0.73818537  1  0  0.452993  0  0.834035  0  0  0.423857  0  0.894117  0  0  0.434224  0  0.879026  0  0.649611  0  0.312082  0.416417  0  0.905201  0
H  H47  1  0.37707038  0.77409353  0.26181463  1  0  0.452947  0  0.834103  0  0  0.423805  0  0.894197  0  0  0.434173  0  0.879104  0  0.649611  0  0.312053  0.416364  0  0.905282  0
C  C48  1  0.35074225  0.22342587  0.31776556  1  0  -0.067375  0  3.730775  0  0  -0.038264  0  3.965398  0  0  -0.049522  0  3.988831  0  -0.02828  0  -0.012234  -0.030958  0  3.949285  0
C  C49  1  0.64925600  0.72342506  0.68223504  1  0  -0.067363  0  3.730719  0  0  -0.038246  0  3.965344  0  0  -0.049506  0  3.98878  0  -0.028361  0  -0.012206  -0.030939  0  3.949227  0
C  C50  1  0.14925831  0.72342600  0.81776376  1  0  -0.067383  0  3.730853  0  0  -0.038275  0  3.965462  0  0  -0.049533  0  3.988895  0  -0.02838  0  -0.012234  -0.030967  0  3.949347  0
C  C51  1  0.85074424  0.22342682  0.18223504  1  0  -0.067451  0  3.730733  0  0  -0.038333  0  3.965365  0  0  -0.049591  0  3.988796  0  -0.028415  0  -0.012235  -0.031026  0  3.949253  0
C  C52  1  0.38333912  0.33415880  0.27340712  1  0  -0.018719  0  3.645772  0  0  -0.062182  0  3.901911  0  0  -0.055527  0  3.917331  0  -0.069139  0  -0.059197  -0.066137  0  3.890905  0
C  C53  1  0.61665912  0.83415893  0.72659348  1  0  -0.01873  0  3.645844  0  0  -0.062182  0  3.901946  0  0  -0.055527  0  3.91737  0  -0.068996  0  -0.059201  -0.066135  0  3.890937  0
C  C54  1  0.11665857  0.83415703  0.77340532  1  0  -0.018775  0  3.645852  0  0  -0.062245  0  3.901972  0  0  -0.055589  0  3.917389  0  -0.069006  0  -0.059241  -0.066199  0  3.890963  0
C  C55  1  0.88334255  0.33415974  0.22659468  1  0  -0.018743  0  3.645828  0  0  -0.062208  0  3.901932  0  0  -0.055553  0  3.917348  0  -0.069168  0  -0.059246  -0.066163  0  3.890925  0
C  C56  1  0.32606061  0.21773269  0.14970052  1  0  -0.034467  0  3.675552  0  0  -0.077729  0  3.927484  0  0  -0.071858  0  3.943741  0  0.018847  0  -0.064838  -0.080842  0  3.915827  0
C  C57  1  0.67393907  0.71773092  0.85029948  1  0  -0.034401  0  3.675605  0  0  -0.077716  0  3.927529  0  0  -0.071844  0  3.943785  0  0.01889  0  -0.064846  -0.080826  0  3.915867  0
C  C58  1  0.17393851  0.71772808  0.64969932  1  0  -0.034548  0  3.675673  0  0  -0.07789  0  3.927626  0  0  -0.07202  0  3.943885  0  0.018902  0  -0.064898  -0.081  0  3.915964  0
C  C59  1  0.82605973  0.21773269  0.35030008  1  0  -0.034559  0  3.675725  0  0  -0.077839  0  3.927632  0  0  -0.071971  0  3.943892  0  0.018912  0  -0.064875  -0.08095  0  3.915972  0
C  C60  1  0.29897167  0.10640398  0.19411832  1  0  -0.071279  0  3.743721  0  0  -0.040705  0  3.97825  0  0  -0.051584  0  4.000643  0  0.016711  0  -0.013386  -0.033729  0  3.962703  0
C  C61  1  0.70102514  0.60640032  0.80588228  1  0  -0.071372  0  3.743742  0  0  -0.040809  0  3.97829  0  0  -0.051687  0  4.000676  0  0.016459  0  -0.013465  -0.033832  0  3.96274  0
C  C62  1  0.20102602  0.60640032  0.69411772  1  0  -0.071296  0  3.743784  0  0  -0.040727  0  3.978346  0  0  -0.051607  0  4.000735  0  0.016543  0  -0.013454  -0.03375  0  3.962796  0
C  C63  1  0.79897223  0.10640493  0.30588288  1  0  -0.071361  0  3.743796  0  0  -0.04076  0  3.978287  0  0  -0.051636  0  4.000675  0  0.016563  0  -0.013387  -0.033784  0  3.96274  0
C  C64  1  0.36782876  0.33037725  0.18997236  1  0  -0.129367  0  3.719999  0  0  -0.099363  0  3.974422  0  0  -0.110057  0  3.996578  0  -0.158313  0  -0.013343  -0.092576  0  3.959234  0
C  C65  1  0.63217092  0.83037644  0.81002764  1  0  -0.129389  0  3.720002  0  0  -0.099365  0  3.974387  0  0  -0.11006  0  3.996544  0  -0.158274  0  -0.013317  -0.092577  0  3.959195  0
C  C66  1  0.13216749  0.83037454  0.68996996  1  0  -0.129363  0  3.720088  0  0  -0.099322  0  3.974476  0  0  -0.110015  0  3.996631  0  -0.158265  0  -0.013286  -0.092533  0  3.959286  0
C  C67  1  0.86783506  0.33037631  0.31002884  1  0  -0.129322  0  3.720023  0  0  -0.099266  0  3.97433  0  0  -0.109959  0  3.996486  0  -0.158353  0  -0.013258  -0.092479  0  3.959142  0
C  C68  1  0.36643922  0.22769220  0.40737219  1  0  0.637867  0  3.927228  0  0  0.591381  0  4.217225  0  0  0.623721  0  4.216931  0  1.562586  0  0.19813  0.568909  0  4.220813  0
C  C69  1  0.63355903  0.72769328  0.59262661  1  0  0.637878  0  3.927177  0  0  0.591349  0  4.217235  0  0  0.623687  0  4.216945  0  1.562645  0  0.198142  0.568876  0  4.22082  0
C  C70  1  0.13355703  0.72769233  0.90737099  1  0  0.637847  0  3.927345  0  0  0.59137  0  4.217327  0  0  0.623711  0  4.217033  0  1.562535  0  0.198176  0.568897  0  4.220914  0
C  C71  1  0.86643834  0.22769315  0.09262901  1  0  0.637918  0  3.927215  0  0  0.591392  0  4.217253  0  0  0.62373  0  4.216959  0  1.562542  0  0.198151  0.568918  0  4.220842  0
C  C72  1  0.25391340  0.98284767  0.15454317  1  0  0.666084  0  3.884587  0  0  0.615247  0  4.171478  0  0  0.648314  0  4.169926  0  1.552178  0  0.210646  0.592562  0  4.175199  0
C  C73  1  0.74608341  0.48284564  0.84545624  1  0  0.666351  0  3.884756  0  0  0.615529  0  4.171603  0  0  0.648599  0  4.170046  0  1.552361  0  0.210772  0.592843  0  4.175323  0
C  C74  1  0.24608860  0.48284564  0.65454317  1  0  0.666178  0  3.884686  0  0  0.615332  0  4.171573  0  0  0.648401  0  4.170021  0  1.55224  0  0.210654  0.592646  0  4.175292  0
C  C75  1  0.75391252  0.98284767  0.34545863  1  0  0.666317  0  3.884561  0  0  0.615479  0  4.171425  0  0  0.648548  0  4.169864  0  1.552261  0  0.210692  0.592795  0  4.17515  0
C  C76  1  0.30888796  0.11030506  0.27774134  1  0  -0.040369  0  3.654644  0  0  -0.082765  0  3.902501  0  0  -0.077448  0  3.919205  0  -0.030933  0  -0.064494  -0.08585  0  3.890616  0
C  C77  1  0.69110884  0.61030234  0.72225866  1  0  -0.040294  0  3.654456  0  0  -0.082661  0  3.90228  0  0  -0.077343  0  3.918986  0  -0.030931  0  -0.06442  -0.085748  0  3.890398  0
C  C78  1  0.19110829  0.61030519  0.77774074  1  0  -0.040366  0  3.65464  0  0  -0.082753  0  3.902488  0  0  -0.077436  0  3.919191  0  -0.030922  0  -0.064469  -0.08584  0  3.890605  0
C  C79  1  0.80889139  0.11030601  0.22225926  1  0  -0.040265  0  3.654612  0  0  -0.082662  0  3.902466  0  0  -0.077345  0  3.919167  0  -0.030898  0  -0.064457  -0.085748  0  3.890579  0
S  S80  1  0.40722120  0.47270682  0.13477268  1  0  1.343462  0  5.573936  0  0  1.239461  0  6.086899  0  0  1.287574  0  6.066474  0  3.179039  0  0.545356  1.20633  0  6.101744  0
S  S81  1  0.59277992  0.97270885  0.86522852  1  0  1.343365  0  5.573776  0  0  1.239354  0  6.086761  0  0  1.287465  0  6.06634  0  3.17904  0  0.545299  1.206226  0  6.101601  0
S  S82  1  0.09277793  0.97270505  0.63477088  1  0  1.343546  0  5.573838  0  0  1.239546  0  6.086814  0  0  1.287659  0  6.06639  0  3.179063  0  0.545319  1.206412  0  6.101658  0
S  S83  1  0.90722319  0.47270777  0.36522912  1  0  1.343463  0  5.57394  0  0  1.239497  0  6.086884  0  0  1.287609  0  6.06646  0  3.179103  0  0.545358  1.206366  0  6.101727  0
O  O84  1  0.82330648  0.88780159  0.09271655  1  0  -0.90842  0  1.862441  0  0  -0.85502  0  2.054538  0  0  -0.880773  0  2.017862  0  -1.290341  0  -0.649784  -0.841776  0  2.077076  0
O  O85  1  0.17669176  0.38780241  0.90728225  1  0  -0.908467  0  1.862407  0  0  -0.855081  0  2.054475  0  0  -0.880841  0  2.017791  0  -1.290287  0  -0.649799  -0.841837  0  2.077015  0
O  O86  1  0.67669376  0.38780146  0.59271595  1  0  -0.908421  0  1.862435  0  0  -0.855012  0  2.054549  0  0  -0.880766  0  2.017875  0  -1.290319  0  -0.649793  -0.841767  0  2.077087  0
O  O87  1  0.32330736  0.88780254  0.40728225  1  0  -0.908441  0  1.862406  0  0  -0.85506  0  2.054471  0  0  -0.880816  0  2.017791  0  -1.290362  0  -0.649787  -0.841817  0  2.077011  0
O  O88  1  0.80696785  0.62228829  0.04971551  1  0  -0.921307  0  1.868386  0  0  -0.865588  0  2.070676  0  0  -0.892048  0  2.033576  0  -1.311959  0  -0.625093  -0.851939  0  2.094671  0
O  O89  1  0.19303183  0.12228911  0.95028389  1  0  -0.921338  0  1.868411  0  0  -0.865598  0  2.070727  0  0  -0.892058  0  2.033627  0  -1.311964  0  -0.625096  -0.851952  0  2.094719  0
O  O90  1  0.69303095  0.12229006  0.54971671  1  0  -0.921292  0  1.868461  0  0  -0.865507  0  2.070868  0  0  -0.891969  0  2.033765  0  -1.311962  0  -0.625082  -0.851859  0  2.094862  0
O  O91  1  0.30697016  0.62228829  0.45028449  1  0  -0.921334  0  1.868394  0  0  -0.865581  0  2.070735  0  0  -0.89204  0  2.033636  0  -1.311953  0  -0.625099  -0.851934  0  2.094728  0
O  O92  1  0.46283168  0.76625627  0.05377453  1  0  -0.915768  0  1.889509  0  0  -0.867422  0  2.086939  0  0  -0.892642  0  2.052146  0  -1.290457  0  -0.625092  -0.85447  0  2.108941  0
O  O93  1  0.53716800  0.26625709  0.94622607  1  0  -0.915756  0  1.889527  0  0  -0.867396  0  2.086927  0  0  -0.892621  0  2.052139  0  -1.290441  0  -0.625071  -0.854444  0  2.108932  0
O  O94  1  0.03716744  0.26625614  0.55377453  1  0  -0.915746  0  1.889579  0  0  -0.867389  0  2.086984  0  0  -0.89261  0  2.052187  0  -1.290451  0  -0.625058  -0.854435  0  2.108989  0
O  O95  1  0.96283367  0.76625722  0.44622607  1  0  -0.915765  0  1.889536  0  0  -0.867418  0  2.086956  0  0  -0.89263  0  2.052154  0  -1.29046  0  -0.62508  -0.854468  0  2.108963  0
O  O96  1  0.56958687  0.53733360  0.17442098  1  0  -0.672844  0  2.001469  0  0  -0.608438  0  2.241325  0  0  -0.630913  0  2.227826  0  -1.328862  0  -0.311802  -0.591993  0  2.249542  0
O  O97  1  0.43040993  0.03733346  0.82557902  1  0  -0.672798  0  2.001398  0  0  -0.608458  0  2.241314  0  0  -0.630934  0  2.227819  0  -1.328851  0  -0.311815  -0.592012  0  2.24953  0
O  O98  1  0.93040906  0.03733157  0.67441858  1  0  -0.672839  0  2.001393  0  0  -0.608445  0  2.241225  0  0  -0.630923  0  2.22773  0  -1.328846  0  -0.311782  -0.592003  0  2.249452  0
O  O99  1  0.06958632  0.53733644  0.32558022  1  0  -0.672756  0  2.001447  0  0  -0.608434  0  2.241358  0  0  -0.630908  0  2.22786  0  -1.328871  0  -0.311803  -0.591984  0  2.24957  0
O  O100  1  0.25253821  0.88085991  0.19572754  1  0  -0.698991  0  2.004382  0  0  -0.640861  0  2.237805  0  0  -0.670656  0  2.226706  0  -1.198047  0  -0.355979  -0.624289  0  2.245088  0
O  O101  1  0.74745429  0.38085883  0.80427186  1  0  -0.699127  0  2.004389  0  0  -0.641  0  2.237814  0  0  -0.670795  0  2.226707  0  -1.198101  0  -0.356043  -0.624427  0  2.245098  0
O  O102  1  0.24745948  0.38085883  0.69572874  1  0  -0.699046  0  2.004436  0  0  -0.640912  0  2.237864  0  0  -0.670709  0  2.226763  0  -1.198102  0  -0.355968  -0.62434  0  2.245146  0
O  O103  1  0.75254020  0.88086181  0.30427246  1  0  -0.699112  0  2.00441  0  0  -0.640995  0  2.237838  0  0  -0.670788  0  2.226734  0  -1.198005  0  -0.356012  -0.624425  0  2.245125  0
O  O104  1  0.45118276  0.43699185  0.05214732  1  0  -0.662219  0  2.030507  0  0  -0.602261  0  2.277832  0  0  -0.622755  0  2.262925  0  -1.341489  0  -0.31867  -0.58759  0  2.287673  0
O  O105  1  0.54882122  0.93698913  0.94785328  1  0  -0.662227  0  2.030502  0  0  -0.602211  0  2.277783  0  0  -0.622705  0  2.262877  0  -1.341502  0  -0.318631  -0.587558  0  2.287645  0
O  O106  1  0.04882067  0.93699293  0.55214493  1  0  -0.662226  0  2.030443  0  0  -0.602281  0  2.277772  0  0  -0.622778  0  2.262867  0  -1.341612  0  -0.318632  -0.587621  0  2.28764  0
O  O107  1  0.95118619  0.43699469  0.44785388  1  0  -0.6622  0  2.03046  0  0  -0.602271  0  2.277772  0  0  -0.622766  0  2.262864  0  -1.341585  0  -0.318681  -0.587612  0  2.287637  0
O  O108  1  0.22917147  0.54876455  0.14046670  1  0  -0.747358  0  2.007904  0  0  -0.690046  0  2.285082  0  0  -0.718889  0  2.267305  0  -1.340262  0  -0.39699  -0.675487  0  2.296428  0
O  O109  1  0.77083395  0.04876347  0.85953390  1  0  -0.747284  0  2.007751  0  0  -0.689965  0  2.284924  0  0  -0.718808  0  2.267147  0  -1.340293  0  -0.396957  -0.675404  0  2.296266  0
O  O110  1  0.27082765  0.04876347  0.64046550  1  0  -0.74744  0  2.007963  0  0  -0.690097  0  2.28512  0  0  -0.718942  0  2.267342  0  -1.340182  0  -0.397011  -0.675535  0  2.296466  0
O  O111  1  0.72917059  0.54876360  0.35953510  1  0  -0.747435  0  2.007918  0  0  -0.690102  0  2.28506  0  0  -0.718943  0  2.267283  0  -1.340212  0  -0.397013  -0.675542  0  2.296404  0
O  O112  1  0.21032936  0.97901205  0.07992733  1  0  -0.690149  0  2.042133  0  0  -0.623314  0  2.273665  0  0  -0.654313  0  2.264947  0  -1.192773  0  -0.359855  -0.605211  0  2.278727  0
O  O113  1  0.78966888  0.47901381  0.92007147  1  0  -0.690199  0  2.042267  0  0  -0.623386  0  2.273796  0  0  -0.654388  0  2.265075  0  -1.192684  0  -0.359865  -0.605294  0  2.278891  0
O  O114  1  0.28967263  0.47901097  0.57992733  1  0  -0.690139  0  2.042082  0  0  -0.62329  0  2.273622  0  0  -0.654295  0  2.264908  0  -1.192779  0  -0.359825  -0.60519  0  2.278697  0
O  O115  1  0.71032992  0.97901300  0.42007447  1  0  -0.690247  0  2.042203  0  0  -0.623388  0  2.273714  0  0  -0.65439  0  2.265  0  -1.192802  0  -0.359867  -0.60528  0  2.278769  0
O  O116  1  0.41961369  0.33015715  0.44098831  1  0  -0.671095  0  1.957993  0  0  -0.624747  0  2.199584  0  0  -0.653397  0  2.190553  0  -1.177219  0  -0.368932  -0.609271  0  2.205437  0
O  O117  1  0.58038455  0.83016013  0.55901049  1  0  -0.671056  0  1.957882  0  0  -0.624706  0  2.199499  0  0  -0.653353  0  2.190468  0  -1.177278  0  -0.368931  -0.609231  0  2.20535  0
O  O118  1  0.08038830  0.83016013  0.94098772  1  0  -0.671102  0  1.958023  0  0  -0.624735  0  2.199577  0  0  -0.653384  0  2.190544  0  -1.177223  0  -0.368947  -0.60926  0  2.205431  0
O  O119  1  0.91961281  0.33015905  0.05901228  1  0  -0.671092  0  1.957953  0  0  -0.624721  0  2.199542  0  0  -0.65337  0  2.19051  0  -1.177221  0  -0.368924  -0.609245  0  2.205396  0
O  O120  1  0.32651565  0.12921466  0.44981743  1  0  -0.708334  0  2.024017  0  0  -0.649805  0  2.256652  0  0  -0.680527  0  2.247131  0  -1.192126  0  -0.358452  -0.632232  0  2.26254  0
O  O121  1  0.67348259  0.62921384  0.55018197  1  0  -0.708353  0  2.023985  0  0  -0.649798  0  2.256633  0  0  -0.680513  0  2.247108  0  -1.192125  0  -0.358468  -0.632224  0  2.262519  0
O  O122  1  0.17348347  0.62921479  0.94981683  1  0  -0.708308  0  2.024055  0  0  -0.649778  0  2.256674  0  0  -0.680501  0  2.247156  0  -1.192074  0  -0.358446  -0.632205  0  2.262562  0
O  O123  1  0.82651908  0.12921561  0.05018377  1  0  -0.70834  0  2.023994  0  0  -0.649785  0  2.256633  0  0  -0.68051  0  2.247123  0  -1.192063  0  -0.358463  -0.632212  0  2.262521  0
O  O124  1  0.93745296  0.70287894  0.20914329  1  0  -0.904009  0  1.832164  0  0  -0.852565  0  2.023667  0  0  -0.877519  0  1.98828  0  -1.283154  0  -0.647143  -0.839755  0  2.045904  0
O  O125  1  0.06254816  0.20287786  0.79085671  1  0  -0.904019  0  1.832169  0  0  -0.852575  0  2.023687  0  0  -0.87753  0  1.98829  0  -1.283588  0  -0.647146  -0.839764  0  2.045926  0
O  O126  1  0.56255015  0.20287596  0.70914269  1  0  -0.90403  0  1.832149  0  0  -0.852591  0  2.023661  0  0  -0.877547  0  1.98827  0  -1.282852  0  -0.647149  -0.83978  0  2.045899  0
O  O127  1  0.43745240  0.70287704  0.29085671  1  0  -0.903994  0  1.832215  0  0  -0.852546  0  2.023734  0  0  -0.877497  0  1.988341  0  -1.28358  0  -0.64712  -0.839735  0  2.045972  0
