# generated using pymatgen
data_Al3H34C51N15O14
_symmetry_space_group_name_H-M   'P 1'
_cell_length_a   14.38278149
_cell_length_b   14.30720056
_cell_length_c   34.68477698
_cell_angle_alpha   90.07789561
_cell_angle_beta   89.95231571
_cell_angle_gamma   121.16932062
_symmetry_Int_Tables_number   1
_chemical_formula_structural   Al3H34C51N15O14
_chemical_formula_sum   'Al6 H68 C102 N30 O28'
_cell_volume   6106.99968310
_cell_formula_units_Z   2
loop_
 _symmetry_equiv_pos_site_id
 _symmetry_equiv_pos_as_xyz
  1  'x, y, z'
loop_
 _atom_site_type_symbol
 _atom_site_label
 _atom_site_symmetry_multiplicity
 _atom_site_fract_x
 _atom_site_fract_y
 _atom_site_fract_z
 _atom_site_occupancy
 _atom_site_pbe_bader_charge
 _atom_site_pbe_bader_spin_density
 _atom_site_pbe_cm5_charge
 _atom_site_pbe_ddec_charge
 _atom_site_pbe_ddec_spin_density
 _atom_site_pbe_ddec_sum_bond_order
 _atom_site_pbe_magmom
Al  Al0  1  0.48143794  0.22485601  0.50159498  1  2.496629  0  0.400306  1.686631  0  2.551726  0
Al  Al1  1  0.71649971  0.25356626  0.49934132  1  2.481325  0  0.497856  1.655841  0  2.523449  0
Al  Al2  1  0.70342566  0.45545579  0.50005930  1  2.481479  0  0.500769  1.661286  0  2.513036  0
Al  Al3  1  0.21581859  0.47954146  0.00276522  1  2.492483  0  0.399066  1.690131  0  2.542818  0
Al  Al4  1  0.25005151  0.71844099  0.99945105  1  2.486543  0  0.499353  1.65819  0  2.520539  0
Al  Al5  1  0.44786704  0.70096793  0.00188555  1  2.475861  0  0.498679  1.659585  0  2.516957  0
H  H6  1  0.81752511  0.28217374  0.60143612  1  0.093684  0  0.108402  0.11352  0  1.012288  0
H  H7  1  0.38368258  0.06419670  0.40074708  1  0.105701  0  0.11329  0.116139  0  0.990101  0
H  H8  1  0.67679166  0.59509511  0.40135222  1  0.099711  0  0.110313  0.113058  0  0.991192  0
H  H9  1  0.88288092  0.29823317  0.39948128  1  0.092025  0  0.111634  0.113772  0  0.993738  0
H  H10  1  0.88871935  0.30230645  0.66845392  1  0.083755  0  0.105677  0.108181  0  1.013829  0
H  H11  1  0.66789089  0.60149067  0.66947250  1  0.111916  0  0.098733  0.100266  0  1.037613  0
H  H12  1  0.36556320  0.01456359  0.66505548  1  0.100028  0  0.104097  0.107493  0  1.022495  0
H  H13  1  0.30497063  0.89587155  0.16956115  1  0.105813  0  0.102535  0.102936  0  1.021816  0
H  H14  1  0.64030220  0.65790619  0.16297228  1  0.085779  0  0.103391  0.104497  0  1.020612  0
H  H15  1  0.93834975  0.33934863  0.15592739  1  0.09011  0  0.102842  0.103605  0  1.02344  0
H  H16  1  0.04271483  0.65095826  0.65807651  1  0.098311  0  0.107759  0.110672  0  1.026391  0
H  H17  1  0.68276922  0.57179257  0.59931486  1  0.091009  0  0.101335  0.098463  0  1.047191  0
H  H18  1  0.33324045  0.34103911  0.66666759  1  0.108271  0  0.104745  0.106143  0  1.035973  0
H  H19  1  0.64046521  0.97229197  0.66430501  1  0.082736  0  0.105254  0.107038  0  1.032112  0
H  H20  1  0.65074127  0.04839306  0.15638989  1  0.099041  0  0.106738  0.109184  0  1.027905  0
H  H21  1  0.36698875  0.32898395  0.16753036  1  0.100043  0  0.106257  0.108828  0  1.023557  0
H  H22  1  0.00669291  0.66758402  0.16957831  1  0.09971  0  0.105596  0.107151  0  1.030823  0
H  H23  1  0.04516905  0.36437635  0.82938177  1  0.112985  0  0.109438  0.108824  0  1.008125  0
H  H24  1  0.61652597  0.64860207  0.83643713  1  0.095757  0  0.107525  0.107067  0  1.011029  0
H  H25  1  0.31967056  0.92390550  0.83056372  1  0.09841  0  0.110226  0.110061  0  1.007601  0
H  H26  1  0.36512365  0.03875660  0.32899967  1  0.105149  0  0.108736  0.107582  0  1.009603  0
H  H27  1  0.68395423  0.61057052  0.32920317  1  0.107923  0  0.108603  0.108475  0  1.006619  0
H  H28  1  0.40590726  0.07752875  0.59642158  1  0.135347  0  0.116974  0.127641  0  0.985908  0
H  H29  1  0.90763762  0.31241635  0.32770655  1  0.11689  0  0.10935  0.109378  0  1.006214  0
H  H30  1  0.12469057  0.70924380  0.89375308  1  0.093896  0  0.108488  0.110579  0  1.001353  0
H  H31  1  0.26727658  0.38661643  0.90081976  1  0.110645  0  0.116185  0.123004  0  0.986981  0
H  H32  1  0.57226124  0.83811260  0.89766290  1  0.096558  0  0.111289  0.114172  0  0.99852  0
H  H33  1  0.70818496  0.12468250  0.39457600  1  0.096616  0  0.108584  0.110505  0  1.002721  0
H  H34  1  0.42012523  0.25977924  0.39286421  1  0.113138  0  0.111594  0.115769  0  1.001671  0
H  H35  1  0.85236145  0.58121329  0.39950588  1  0.078851  0  0.111507  0.114587  0  0.996202  0
H  H36  1  0.10090133  0.68989577  0.82202071  1  0.08682  0  0.108401  0.108635  0  1.007523  0
H  H37  1  0.29239995  0.36823150  0.83007868  1  0.112204  0  0.107604  0.106163  0  1.016911  0
H  H38  1  0.58695578  0.86927859  0.82629105  1  0.108205  0  0.109473  0.109288  0  1.011092  0
H  H39  1  0.28022926  0.82351642  0.10249956  1  0.129984  0  0.103296  0.104092  0  1.050339  0
H  H40  1  0.69200667  0.10319598  0.32261609  1  0.108521  0  0.10855  0.108617  0  1.008849  0
H  H41  1  0.42887025  0.27305925  0.32056559  1  0.097487  0  0.106958  0.106924  0  1.015224  0
H  H42  1  0.87776873  0.59641206  0.32780015  1  0.125105  0  0.108897  0.107463  0  1.016395  0
H  H43  1  0.04910475  0.71977509  0.60016499  1  0.400557  0  0.302843  0.243655  0  0.941182  0
H  H44  1  0.87701903  0.70927062  0.61273159  1  0.018778  0  0.086439  0.084436  0  0.997705  0
H  H45  1  0.82767585  0.62870832  0.56980017  1  0.089345  0  0.10414  0.122334  0  1.049525  0
H  H46  1  0.93605622  0.76659139  0.56677509  1  0.028857  0  0.10259  0.111159  0  0.980034  0
H  H47  1  0.25468861  0.27065059  0.61072520  1  0.422649  0  0.319291  0.254077  0  0.932721  0
H  H48  1  0.21066600  0.29776078  0.55095404  1  0.037398  0  0.098921  0.096883  0  0.989896  0
H  H49  1  0.29821475  0.25057616  0.53478795  1  0.165099  0  0.10744  0.149279  0  1.034197  0
H  H50  1  0.57148439  0.68307473  0.10028110  1  0.08358  0  0.104446  0.103145  0  1.042605  0
H  H51  1  0.34952194  0.39331990  0.54033343  1  0.068668  0  0.101462  0.105095  0  0.989727  0
H  H52  1  0.73428004  0.00105934  0.61236926  1  0.420304  0  0.314641  0.251244  0  0.936822  0
H  H53  1  0.71565806  0.92022532  0.55538697  1  0.045369  0  0.102805  0.101169  0  0.985668  0
H  H54  1  0.75441706  0.05049200  0.53530427  1  0.059765  0  0.10071  0.105954  0  0.995351  0
H  H55  1  0.61497634  0.94987362  0.54087661  1  0.074884  0  0.108015  0.116287  0  0.983062  0
H  H56  1  0.71575761  0.05337104  0.09777471  1  0.406788  0  0.30286  0.242486  0  0.941102  0
H  H57  1  0.70933050  0.88331904  0.10897502  1  0.01074  0  0.084722  0.079933  0  1.001561  0
H  H58  1  0.75447022  0.93566466  0.06127396  1  0.036378  0  0.10425  0.113726  0  0.977431  0
H  H59  1  0.61843635  0.82818387  0.06891095  1  0.107339  0  0.105627  0.122841  0  1.050313  0
H  H60  1  0.25051859  0.26616496  0.12114444  1  0.401816  0  0.303052  0.240182  0  0.942526  0
H  H61  1  0.00738175  0.38450822  0.08803975  1  0.135437  0  0.116548  0.122225  0  0.99694  0
H  H62  1  0.14519863  0.34769848  0.13612170  1  0.012133  0  0.083112  0.079817  0  1.007501  0
H  H63  1  0.10648905  0.28040355  0.08995560  1  0.064858  0  0.103111  0.113931  0  0.983743  0
H  H64  1  0.19213943  0.42307759  0.09216993  1  0.112325  0  0.108896  0.123554  0  1.04789  0
H  H65  1  0.07814550  0.78314463  0.12302107  1  0.415551  0  0.310785  0.246272  0  0.932476  0
H  H66  1  0.96382470  0.77114627  0.07397032  1  0.031307  0  0.094122  0.089788  0  0.994592  0
H  H67  1  0.99906465  0.68938773  0.04604905  1  0.062317  0  0.11131  0.126665  0  1.002247  0
H  H68  1  0.09399628  0.83105495  0.05095357  1  0.053227  0  0.103662  0.110336  0  0.979314  0
H  H69  1  0.07203179  0.38590908  0.90118489  1  0.113422  0  0.11925  0.126605  0  0.979391  0
H  H70  1  0.59035586  0.66648290  0.90708896  1  0.098811  0  0.110204  0.11251  0  0.993001  0
H  H71  1  0.30537747  0.89237769  0.90201345  1  0.08098  0  0.112578  0.11527  0  0.989766  0
H  H72  1  0.30280951  0.09623457  0.48251229  1  0.552717  0  0.291805  0.374728  0  0.935363  0
H  H73  1  0.16570118  0.30033961  0.01688839  1  0.557533  0  0.289094  0.377441  0  0.935744  0
C  C74  1  0.54405286  0.41287081  0.55510669  1  1.526449  0  0.262167  0.633725  0  4.111448  0
C  C75  1  0.49672986  0.02033972  0.20639351  1  0.94105  0  0.243549  0.248416  0  3.979615  0
C  C76  1  0.68541428  0.90305856  0.08125813  1  0.250121  0  -0.14631  -0.226306  0  3.97023  0
C  C77  1  0.17273792  0.34722529  0.10640822  1  0.225148  0  -0.147172  -0.228343  0  3.97082  0
C  C78  1  0.03055488  0.75822985  0.06598459  1  0.286484  0  -0.13601  -0.21358  0  3.969735  0
C  C79  1  0.54327822  0.47171427  0.20604600  1  0.9378  0  0.241856  0.247085  0  3.994532  0
C  C80  1  0.93768273  0.48253848  0.20775030  1  0.979889  0  0.243927  0.25015  0  3.970348  0
C  C81  1  0.06181331  0.43921135  0.84376159  1  -0.062306  0  -0.077059  -0.104228  0  3.953428  0
C  C82  1  0.54060474  0.59131860  0.85080430  1  -0.017059  0  -0.080161  -0.108644  0  3.958406  0
C  C83  1  0.37529782  0.90628928  0.84560780  1  -0.037019  0  -0.076399  -0.10468  0  3.949014  0
C  C84  1  0.43962893  0.05693764  0.34363140  1  -0.056879  0  -0.078708  -0.105525  0  3.958994  0
C  C85  1  0.62612774  0.53428791  0.34339422  1  -0.052084  0  -0.079912  -0.108125  0  3.96132  0
C  C86  1  0.89691875  0.37168733  0.34374688  1  -0.039424  0  -0.077321  -0.104977  0  3.95122  0
C  C87  1  0.07626369  0.45082235  0.88345442  1  0.023859  0  -0.070933  -0.077106  0  3.946845  0
C  C88  1  0.56700207  0.11560671  0.55346763  1  1.525505  0  0.263901  0.634088  0  4.105917  0
C  C89  1  0.52623257  0.60097151  0.88995328  1  -0.040264  0  -0.077132  -0.084177  0  3.970971  0
C  C90  1  0.36754087  0.88902820  0.88518365  1  0.013777  0  -0.07343  -0.078223  0  3.96305  0
C  C91  1  0.44966625  0.07040123  0.38332372  1  0.031654  0  -0.075459  -0.081477  0  3.969739  0
C  C92  1  0.62177820  0.52584643  0.38332760  1  0.019064  0  -0.077007  -0.085227  0  3.976167  0
C  C93  1  0.88333534  0.36394332  0.38352055  1  -0.007778  0  -0.074668  -0.080323  0  3.965319  0
C  C94  1  0.10649329  0.63395249  0.87935477  1  -0.032608  0  -0.077989  -0.082664  0  3.968513  0
C  C95  1  0.34344055  0.44256944  0.88631172  1  -0.061086  0  -0.073091  -0.077282  0  3.954324  0
C  C96  1  0.51853023  0.85848223  0.88273337  1  -0.066446  0  -0.072817  -0.073933  0  3.954645  0
C  C97  1  0.63335228  0.10518715  0.37989266  1  -0.041208  0  -0.07691  -0.08302  0  3.965149  0
C  C98  1  0.47676454  0.33605030  0.37843803  1  -0.044342  0  -0.074518  -0.079758  0  3.955091  0
C  C99  1  0.83872542  0.42948767  0.55292681  1  1.534364  0  0.279143  0.663553  0  4.059302  0
C  C100  1  0.86658787  0.52419072  0.38356390  1  0.008905  0  -0.073889  -0.075364  0  3.958057  0
C  C101  1  0.09320936  0.62315480  0.83957861  1  0.022823  0  -0.078435  -0.106275  0  3.956511  0
C  C102  1  0.35732049  0.43275056  0.84722863  1  -0.011671  0  -0.079528  -0.107314  0  3.961449  0
C  C103  1  0.52649898  0.87549548  0.84316721  1  0.016959  0  -0.076713  -0.104978  0  3.949493  0
C  C104  1  0.62431351  0.09318325  0.34000456  1  -0.049275  0  -0.078562  -0.10583  0  3.95017  0
C  C105  1  0.48179071  0.34356122  0.33847490  1  0.02939  0  -0.079302  -0.105812  0  3.953552  0
C  C106  1  0.88027723  0.53237835  0.34382752  1  -0.037913  0  -0.077432  -0.104417  0  3.95021  0
C  C107  1  0.07164300  0.52592680  0.82139342  1  -0.013135  0  7.2e-05  0.023787  0  3.988209  0
C  C108  1  0.45590492  0.50737253  0.82905537  1  0.006792  0  0.000146  0.025541  0  3.981412  0
C  C109  1  0.45389695  0.89808426  0.82417322  1  0.003514  0  0.003501  0.031066  0  3.974268  0
C  C110  1  0.40104282  0.54755928  0.06014409  1  1.546211  0  0.267344  0.64551  0  4.074712  0
C  C111  1  0.52785743  0.07059766  0.32148200  1  -0.009351  0  0.001577  0.027009  0  3.982557  0
C  C112  1  0.55776753  0.44240477  0.32060081  1  -0.044564  0  3.6e-05  0.025967  0  3.99267  0
C  C113  1  0.89363633  0.45501515  0.32344664  1  -0.048851  0  0.003125  0.03067  0  3.974889  0
C  C114  1  0.09955102  0.54855811  0.90148669  1  -0.077234  0  -0.007714  -0.039374  0  3.960813  0
C  C115  1  0.42747642  0.52709125  0.90788721  1  -0.065857  0  -0.010443  -0.040316  0  3.967068  0
C  C116  1  0.43808784  0.86358533  0.90394791  1  -0.003848  0  -0.010593  -0.047207  0  3.970377  0
C  C117  1  0.54705353  0.09629547  0.40173807  1  -0.045437  0  -0.009641  -0.038461  0  3.958949  0
C  C118  1  0.54825425  0.42634676  0.40111820  1  -0.042272  0  -0.008891  -0.03485  0  3.957432  0
C  C119  1  0.86612024  0.43889996  0.40366128  1  -0.021286  0  -0.010804  -0.045628  0  3.96645  0
C  C120  1  0.55422538  0.41126047  0.44338708  1  1.560355  0  0.266833  0.628068  0  4.100224  0
C  C121  1  0.10668990  0.57053976  0.05331716  1  1.55928  0  0.266478  0.634369  0  4.097191  0
C  C122  1  0.56117024  0.12699769  0.44335498  1  1.546183  0  0.268893  0.63715  0  4.091818  0
C  C123  1  0.83294989  0.41997875  0.44485963  1  1.534703  0  0.276098  0.643497  0  4.082438  0
C  C124  1  0.40566191  0.54266537  0.94859529  1  1.572633  0  0.270525  0.633413  0  4.095611  0
C  C125  1  0.12728728  0.56400442  0.94333859  1  1.544847  0  0.272155  0.631615  0  4.094001  0
C  C126  1  0.41977201  0.82922148  0.94496941  1  1.528837  0  0.277262  0.646488  0  4.08014  0
C  C127  1  0.88674069  0.45405522  0.59214387  1  -0.020617  0  -0.010981  -0.126872  0  3.891401  0
C  C128  1  0.51805649  0.44149181  0.59278131  1  -0.019974  0  -0.030165  -0.167758  0  3.93747  0
C  C129  1  0.54412250  0.05985119  0.59124429  1  -0.023896  0  -0.025301  -0.158675  0  3.923207  0
C  C130  1  0.45058511  0.89179861  0.09173887  1  -0.061153  0  -0.010921  -0.126627  0  3.888994  0
C  C131  1  0.42931631  0.52344180  0.09863318  1  -0.012558  0  -0.015984  -0.133208  0  3.881282  0
C  C132  1  0.42301449  0.84272158  0.05265062  1  1.553576  0  0.278384  0.660928  0  4.062173  0
C  C133  1  0.04642675  0.54997846  0.09025495  1  -0.013118  0  -0.020241  -0.14701  0  3.900952  0
C  C134  1  0.86656060  0.36292892  0.61434435  1  -0.035995  0  -0.077737  -0.069939  0  3.975497  0
C  C135  1  0.60582701  0.52352927  0.61430555  1  -0.036638  0  -0.088545  -0.068682  0  4.020635  0
C  C136  1  0.45558082  0.05254079  0.61175948  1  -0.076826  0  -0.077089  -0.060366  0  3.982037  0
C  C137  1  0.36150002  0.87234542  0.11475469  1  -0.00536  0  -0.081226  -0.070538  0  3.980678  0
C  C138  1  0.52669107  0.60591783  0.11558045  1  0.013064  0  -0.083236  -0.071426  0  4.001415  0
C  C139  1  0.00561150  0.44533107  0.10641020  1  -0.024681  0  -0.076231  -0.063729  0  3.989195  0
C  C140  1  0.90660197  0.37365930  0.65146945  1  0.008942  0  -0.090331  -0.129329  0  3.981255  0
C  C141  1  0.59859021  0.53945614  0.65322197  1  -0.011562  0  -0.110198  -0.164132  0  4.02345  0
C  C142  1  0.43389006  0.01929858  0.64974298  1  0.035596  0  -0.100955  -0.151223  0  4.007673  0
C  C143  1  0.01446614  0.49371594  0.70660610  1  0.968115  0  0.242908  0.248491  0  3.978293  0
C  C144  1  0.37468690  0.91318177  0.15188013  1  -0.050987  0  -0.093406  -0.132658  0  3.989897  0
C  C145  1  0.56615882  0.59202012  0.15010338  1  -0.009707  0  -0.096998  -0.140347  0  3.997195  0
C  C146  1  0.96875744  0.42041850  0.14400080  1  -0.033668  0  -0.098284  -0.146977  0  4.001271  0
C  C147  1  0.97174575  0.47884143  0.66715987  1  -0.036045  0  -0.000963  0.045578  0  4.018456  0
C  C148  1  0.49932676  0.46957507  0.67230115  1  -0.019676  0  -0.008108  0.043211  0  4.038272  0
C  C149  1  0.50331608  0.99223120  0.66892589  1  -0.037746  0  -0.004479  0.045877  0  4.033209  0
C  C150  1  0.48025303  0.97827908  0.16680327  1  -0.016839  0  -0.001447  0.045883  0  4.023114  0
C  C151  1  0.50873521  0.48971004  0.16849767  1  -0.029214  0  -0.00393  0.045487  0  4.037028  0
C  C152  1  0.97264049  0.50318813  0.16728440  1  0.006257  0  -0.003895  0.046948  0  4.030442  0
C  C153  1  0.99291436  0.57000089  0.64534259  1  -0.038041  0  -0.088095  -0.216702  0  3.930478  0
C  C154  1  0.48899239  0.47942680  0.71406345  1  0.965492  0  0.243734  0.2531  0  3.964616  0
C  C155  1  0.40987601  0.39164863  0.65148833  1  -0.041545  0  -0.095089  -0.229534  0  3.935241  0
C  C156  1  0.59005436  0.99701283  0.64922121  1  -0.000438  0  -0.094456  -0.229246  0  3.940651  0
C  C157  1  0.56946180  0.99883732  0.14420226  1  -0.034017  0  -0.089735  -0.218578  0  3.932966  0
C  C158  1  0.41227301  0.40670408  0.15228640  1  -0.035619  0  -0.090828  -0.221252  0  3.934018  0
C  C159  1  0.00820006  0.60587370  0.15149660  1  -0.111741  0  -0.093694  -0.227391  0  3.942755  0
C  C160  1  0.95051790  0.56084415  0.60813518  1  0.455126  0  0.10485  0.226377  0  3.997935  0
C  C161  1  0.41441906  0.37868423  0.61114747  1  0.462695  0  0.119934  0.241165  0  4.047483  0
C  C162  1  0.61121242  0.02718440  0.60994679  1  0.413818  0  0.111725  0.230225  0  4.041307  0
C  C163  1  0.55787421  0.95557394  0.10691171  1  0.430031  0  0.107081  0.228122  0  3.996351  0
C  C164  1  0.36776416  0.42152807  0.11835560  1  0.406207  0  0.11068  0.235429  0  3.997676  0
C  C165  1  0.48253222  0.95545409  0.70921999  1  0.944393  0  0.244382  0.253401  0  3.966088  0
C  C166  1  0.04235826  0.63148665  0.11279670  1  0.441518  0  0.111402  0.227846  0  4.019923  0
C  C167  1  0.06091507  0.51583742  0.77924966  1  0.976337  0  0.243163  0.247239  0  3.984502  0
C  C168  1  0.46900279  0.49715695  0.78747336  1  0.990396  0  0.241083  0.247608  0  3.979073  0
C  C169  1  0.45922140  0.91138763  0.78205308  1  0.942841  0  0.243029  0.246599  0  3.981471  0
C  C170  1  0.51904363  0.06267949  0.27927704  1  0.978805  0  0.24239  0.245198  0  3.989066  0
C  C171  1  0.56525882  0.44962895  0.27845145  1  0.944516  0  0.238626  0.240446  0  4.003409  0
C  C172  1  0.90181986  0.46043592  0.28113133  1  0.930124  0  0.241338  0.241758  0  3.983709  0
C  C173  1  0.90038485  0.69220922  0.58437128  1  0.262356  0  -0.146703  -0.226953  0  3.969073  0
C  C174  1  0.29335691  0.31200355  0.55241352  1  0.214425  0  -0.137587  -0.223263  0  3.941166  0
C  C175  1  0.69553096  0.98451741  0.55406572  1  0.278347  0  -0.133431  -0.205062  0  3.980973  0
N  N176  1  0.02562067  0.41704389  0.76286695  1  -0.56203  0  -0.15232  -0.143515  0  3.211284  0
N  N177  1  0.41018773  0.01042083  0.22579822  1  -0.542604  0  -0.154415  -0.146937  0  3.210345  0
N  N178  1  0.62663897  0.55727929  0.22470698  1  -0.552325  0  -0.153075  -0.143409  0  3.20711  0
N  N179  1  0.92001737  0.38925966  0.22449980  1  -0.569033  0  -0.151359  -0.141288  0  3.203052  0
N  N180  1  0.07208084  0.59623378  0.72114207  1  -0.562182  0  -0.153766  -0.14285  0  3.216874  0
N  N181  1  0.39233802  0.40837184  0.73081146  1  -0.559383  0  -0.155138  -0.14474  0  3.223803  0
N  N182  1  0.54426126  0.91951175  0.72529340  1  -0.541416  0  -0.155911  -0.147832  0  3.215337  0
N  N183  1  0.59865334  0.07422301  0.22104405  1  -0.549627  0  -0.153169  -0.141427  0  3.210989  0
N  N184  1  0.49635739  0.36882498  0.22013699  1  -0.539218  0  -0.160361  -0.151619  0  3.213275  0
N  N185  1  0.91784218  0.55470669  0.22579783  1  -0.544086  0  -0.154837  -0.14529  0  3.206268  0
N  N186  1  0.09681848  0.60793359  0.75804959  1  -0.54039  0  -0.154451  -0.14738  0  3.204647  0
N  N187  1  0.56635845  0.56635483  0.77101006  1  -0.555121  0  -0.158072  -0.153951  0  3.214389  0
N  N188  1  0.38216089  0.41742277  0.76804154  1  -0.573237  0  -0.155161  -0.149045  0  3.225011  0
N  N189  1  0.53254067  0.89737264  0.76240629  1  -0.57164  0  -0.154924  -0.147838  0  3.219645  0
N  N190  1  0.61039824  0.09662584  0.25818362  1  -0.549154  0  -0.153375  -0.145777  0  3.206826  0
N  N191  1  0.50770571  0.35750352  0.25723051  1  -0.585551  0  -0.158484  -0.150713  0  3.216669  0
N  N192  1  0.90063068  0.54381679  0.26320388  1  -0.545935  0  -0.151598  -0.141588  0  3.224113  0
N  N193  1  0.98016190  0.65775316  0.58795752  1  -1.097023  0  -0.461275  -0.324863  0  3.450347  0
N  N194  1  0.31938950  0.30935735  0.59279170  1  -1.19098  0  -0.422805  -0.247724  0  3.588607  0
N  N195  1  0.69552145  0.02241754  0.59309631  1  -1.168819  0  -0.435824  -0.275676  0  3.552015  0
N  N196  1  0.65278326  0.98419063  0.08600427  1  -1.105801  0  -0.458726  -0.317622  0  3.453093  0
N  N197  1  0.26765666  0.33450925  0.10620197  1  -1.119194  0  -0.451102  -0.300906  0  3.478959  0
N  N198  1  0.38511783  0.92852393  0.76459427  1  -0.554995  0  -0.151578  -0.145943  0  3.214443  0
N  N199  1  0.07514044  0.73632519  0.10041574  1  -1.148862  0  -0.438619  -0.279544  0  3.51958  0
N  N200  1  0.42163892  0.03142648  0.26299314  1  -0.563024  0  -0.152653  -0.146003  0  3.223593  0
N  N201  1  0.63779999  0.54596999  0.26176115  1  -0.545417  0  -0.153108  -0.14538  0  3.217804  0
N  N202  1  0.90093371  0.37749509  0.26187647  1  -0.522943  0  -0.152867  -0.1468  0  3.211091  0
N  N203  1  0.00269255  0.40572822  0.72578110  1  -0.56484  0  -0.156596  -0.151114  0  3.206622  0
N  N204  1  0.57656454  0.55746740  0.73360289  1  -0.572244  0  -0.15546  -0.145074  0  3.205596  0
N  N205  1  0.39708715  0.95112099  0.72751163  1  -0.529372  0  -0.150484  -0.140702  0  3.204942  0
O  O206  1  0.49609158  0.13314645  0.53957683  1  -1.25293  0  -0.221064  -0.579136  0  2.380769  0
O  O207  1  0.31049361  0.48154265  0.04478601  1  -1.251814  0  -0.217644  -0.571571  0  2.391559  0
O  O208  1  0.13955843  0.66173863  0.03546857  1  -1.276159  0  -0.242037  -0.607845  0  2.35673  0
O  O209  1  0.48741599  0.81966420  0.03540662  1  -1.268736  0  -0.228329  -0.591074  0  2.350203  0
O  O210  1  0.48707407  0.13655771  0.45903857  1  -1.249292  0  -0.222565  -0.582721  0  2.365758  0
O  O211  1  0.82075271  0.33339059  0.46081421  1  -1.268068  0  -0.238331  -0.599472  0  2.296913  0
O  O212  1  0.63725270  0.48968336  0.46127933  1  -1.280536  0  -0.254613  -0.618239  0  2.274833  0
O  O213  1  0.13094466  0.48844053  0.96072706  1  -1.236835  0  -0.209667  -0.543194  0  2.331873  0
O  O214  1  0.33856877  0.82419370  0.96239275  1  -1.274127  0  -0.23865  -0.60399  0  2.300665  0
O  O215  1  0.48259361  0.62517022  0.96721100  1  -1.28468  0  -0.254222  -0.618926  0  2.270608  0
O  O216  1  0.48408399  0.32230327  0.45863730  1  -1.240629  0  -0.219428  -0.563066  0  2.333283  0
O  O217  1  0.82152195  0.34102525  0.53705572  1  -1.269104  0  -0.236828  -0.605225  0  2.316294  0
O  O218  1  0.65007546  0.14793194  0.46007245  1  -1.268269  0  -0.25061  -0.614164  0  2.280239  0
O  O219  1  0.81087084  0.48634073  0.46117155  1  -1.259853  0  -0.234529  -0.596771  0  2.310087  0
O  O220  1  0.31213927  0.47823288  0.96198090  1  -1.23908  0  -0.215467  -0.569109  0  2.3613  0
O  O221  1  0.15123295  0.65630313  0.95863607  1  -1.274786  0  -0.252067  -0.620008  0  2.287539  0
O  O222  1  0.48176354  0.79953356  0.95984465  1  -1.259763  0  -0.233514  -0.596658  0  2.31341  0
O  O223  1  0.63517311  0.31200894  0.49907389  1  -1.616086  0  -0.390647  -1.258953  0  2.297533  0
O  O224  1  0.30528883  0.63404277  0.00116387  1  -1.610926  0  -0.390582  -1.26339  0  2.301372  0
O  O225  1  0.63209047  0.48623776  0.53784721  1  -1.290848  0  -0.258433  -0.63584  0  2.309094  0
O  O226  1  0.12796893  0.49908961  0.04237026  1  -1.244041  0  -0.218235  -0.569469  0  2.370028  0
O  O227  1  0.33149602  0.82102565  0.03861853  1  -1.266  0  -0.235683  -0.600938  0  2.313162  0
O  O228  1  0.47419812  0.63805088  0.04405058  1  -1.28483  0  -0.253033  -0.627802  0  2.313071  0
O  O229  1  0.48396421  0.31603227  0.54270641  1  -1.256331  0  -0.214408  -0.559232  0  2.38494  0
O  O230  1  0.66114366  0.14992828  0.53770761  1  -1.279071  0  -0.246627  -0.618798  0  2.362304  0
O  O231  1  0.81213323  0.49357679  0.53737700  1  -1.269754  0  -0.228063  -0.591008  0  2.349073  0
O  O232  1  0.33793588  0.14929450  0.50290463  1  -1.342647  0  -0.563086  -0.983549  0  1.871876  0
O  O233  1  0.13298642  0.33634825  0.00409376  1  -1.352462  0  -0.583235  -0.998949  0  1.797615  0
