# generated using pymatgen
data_MnH16C19(NO4)2
_symmetry_space_group_name_H-M   'P 1'
_cell_length_a   7.49624646
_cell_length_b   9.63941071
_cell_length_c   14.54990700
_cell_angle_alpha   103.45896641
_cell_angle_beta   97.49007823
_cell_angle_gamma   112.61704486
_symmetry_Int_Tables_number   1
_chemical_formula_structural   MnH16C19(NO4)2
_chemical_formula_sum   'Mn2 H32 C38 N4 O16'
_cell_volume   915.11623190
_cell_formula_units_Z   2
loop_
 _symmetry_equiv_pos_site_id
 _symmetry_equiv_pos_as_xyz
  1  'x, y, z'
loop_
 _atom_site_type_symbol
 _atom_site_label
 _atom_site_symmetry_multiplicity
 _atom_site_fract_x
 _atom_site_fract_y
 _atom_site_fract_z
 _atom_site_occupancy
 _atom_site_hle17_ddec_charge
 _atom_site_hle17_ddec_spin_density
 _atom_site_hle17_ddec_sum_bond_order
 _atom_site_hle17_magmom
 _atom_site_hse06_10hf_ddec_charge
 _atom_site_hse06_10hf_ddec_spin_density
 _atom_site_hse06_10hf_ddec_sum_bond_order
 _atom_site_hse06_10hf_magmom
 _atom_site_hse06_ddec_charge
 _atom_site_hse06_ddec_spin_density
 _atom_site_hse06_ddec_sum_bond_order
 _atom_site_hse06_magmom
 _atom_site_pbe_cm5_charge
 _atom_site_pbe_ddec_charge
 _atom_site_pbe_ddec_spin_density
 _atom_site_pbe_ddec_sum_bond_order
 _atom_site_pbe_magmom
Mn  Mn0  1  0.75661225  0.27601346  0.79952835  1  1.173843  4.80582  1.740611  4.679  0.999284  4.730819  2.241385  4.533  1.056491  4.77524  2.1724  4.596  0.602851  0.954883  4.684291  2.293301  4.47
Mn  Mn1  1  0.45709578  0.47706514  0.20069901  1  1.173199  -4.806318  1.741243  -4.679  0.998139  -4.731464  2.242495  -4.533  1.055401  -4.775814  2.173536  -4.596  0.601958  0.953747  -4.685072  2.294223  -4.47
H  H2  1  0.25678275  0.96611811  0.82215751  1  0.104874  -0.000105  0.952658  0.0  0.111367  -9.7e-05  1.023022  0.0  0.11502  -0.000107  1.020376  0.0  0.107775  0.108098  -8.2e-05  1.026136  0.0
H  H3  1  0.93534065  0.14514936  0.17782625  1  0.105028  0.000111  0.953209  0.0  0.112289  9.8e-05  1.022592  0.0  0.115909  0.000107  1.019915  0.0  0.107803  0.109059  8.4e-05  1.025692  0.0
H  H4  1  0.81839301  0.80229756  0.55188124  1  0.106017  1.6e-05  0.933987  0.0  0.116376  2.7e-05  0.993577  0.0  0.120176  2.6e-05  0.990649  0.0  0.108094  0.113374  2.5e-05  0.996161  0.0
H  H5  1  0.76763472  0.25182634  0.44811938  1  0.104865  -1.8e-05  0.934686  0.0  0.115454  -2.8e-05  0.993919  0.0  0.119275  -2.7e-05  0.991009  0.0  0.10778  0.112435  -2.6e-05  0.996484  0.0
H  H6  1  0.05221342  0.56146988  0.73983413  1  0.405254  -0.000511  0.877085  0.0  0.372061  -0.000426  0.956745  0.0  0.385663  -0.000479  0.942299  0.0  0.306036  0.361646  -0.000383  0.967686  0.0
H  H7  1  0.81195146  0.82248146  0.25978528  1  0.403247  0.000511  0.878057  0.0  0.370429  0.000422  0.956943  0.0  0.384032  0.000478  0.942556  0.0  0.305961  0.36001  0.000378  0.967823  0.0
H  H8  1  0.88883479  0.07971038  0.56154865  1  0.109008  -0.000103  0.948425  0.0  0.11709  -0.000113  1.011671  0.0  0.120534  -0.000118  1.010005  0.0  0.10545  0.114191  -9.2e-05  1.013619  0.0
H  H9  1  0.82763129  0.51934578  0.43840800  1  0.109122  0.000103  0.948385  0.0  0.117352  0.000111  1.011392  0.0  0.120765  0.000118  1.00978  0.0  0.105766  0.114476  8.9e-05  1.013298  0.0
H  H10  1  0.01638982  0.21891585  0.98043475  1  0.083609  0.000372  0.991962  0.0  0.087739  0.000631  1.061285  0.0  0.09091  0.000534  1.058905  0.0  0.115869  0.085318  0.000732  1.063106  0.001
H  H11  1  0.53669671  0.23844973  0.01982818  1  0.082699  -0.000385  0.990627  0.0  0.087338  -0.000628  1.059737  0.0  0.090533  -0.000532  1.057368  0.0  0.115047  0.084885  -0.00073  1.061585  -0.001
H  H12  1  0.51946682  0.15458117  0.58397151  1  0.075061  -9.4e-05  0.967095  0.0  0.081757  0.00027  1.034239  0.001  0.084618  0.000106  1.031583  0.0  0.115181  0.07957  0.000439  1.036425  0.001
H  H13  1  0.43650806  0.57139207  0.41621567  1  0.073992  9.8e-05  0.967598  0.0  0.081277  -0.000273  1.03416  -0.001  0.084102  -0.000109  1.031529  0.0  0.115526  0.079084  -0.000442  1.036355  -0.001
H  H14  1  0.28476943  0.89709545  0.45496187  1  0.109425  0.000236  0.982557  0.0  0.118022  0.000163  1.042177  0.0  0.121214  0.000137  1.041457  0.0  0.106762  0.11562  0.000183  1.043032  0.0
H  H15  1  0.33033040  0.44290507  0.54508440  1  0.108749  -0.000242  0.982591  0.0  0.117276  -0.000166  1.042452  0.0  0.120451  -0.000139  1.041749  0.0  0.106629  0.114848  -0.000186  1.043381  0.0
H  H16  1  0.53601059  0.67843626  0.78734333  1  0.124927  0.000141  0.978548  0.0  0.131813  0.000209  1.040053  0.0  0.135958  0.00014  1.037865  0.0  0.110769  0.128971  0.000293  1.041512  0.0
H  H17  1  0.24745627  0.89125514  0.21241977  1  0.124646  -0.000133  0.979197  0.0  0.131789  -0.000206  1.040354  0.0  0.135938  -0.000137  1.038191  0.0  0.110963  0.12894  -0.00029  1.041815  0.0
H  H18  1  0.00430665  0.99655859  0.04277994  1  0.101953  0.000323  0.962378  0.0  0.111343  0.000406  1.022838  0.0  0.11365  0.000344  1.023749  0.0  0.105679  0.10969  0.000466  1.022425  0.0
H  H19  1  0.46145267  0.95355236  0.95738266  1  0.102741  -0.00032  0.961302  0.0  0.112445  -0.000409  1.021256  0.0  0.114753  -0.000346  1.022132  0.0  0.106783  0.110797  -0.000465  1.02085  0.0
H  H20  1  0.75378067  0.71952229  0.94476138  1  0.110258  -0.000148  0.917468  0.0  0.124813  -0.000235  0.965495  0.0  0.128049  -0.00018  0.96299  0.0  0.117913  0.122236  -0.000278  0.967665  0.0
H  H21  1  0.30798576  0.77456040  0.05512644  1  0.11052  0.000136  0.916813  0.0  0.124514  0.000235  0.965405  0.0  0.127855  0.00018  0.962744  0.0  0.118081  0.121866  0.000281  0.967664  0.0
H  H22  1  0.50861205  0.40421262  0.70917548  1  0.418753  0.000356  0.890969  0.001  0.385113  0.000959  0.959277  0.002  0.39621  0.000669  0.943415  0.002  0.287965  0.377368  0.001232  0.97025  0.002
H  H23  1  0.29974585  0.69606460  0.29119014  1  0.417588  -0.000349  0.892425  -0.001  0.38488  -0.00095  0.959201  -0.002  0.395982  -0.000662  0.943317  -0.002  0.287951  0.37715  -0.001222  0.970168  -0.002
H  H24  1  0.71021720  0.45184184  0.67279864  1  0.418171  0.000202  0.888446  0.001  0.389068  0.00076  0.949906  0.002  0.399874  0.000496  0.934183  0.002  0.292157  0.38128  0.001034  0.961251  0.002
H  H25  1  0.53784099  0.78014005  0.32753009  1  0.418704  -0.000196  0.887457  -0.001  0.389059  -0.000751  0.949729  -0.002  0.399916  -0.000488  0.933921  -0.002  0.291982  0.381237  -0.001023  0.961126  -0.002
H  H26  1  0.21790557  0.64556444  0.49408341  1  0.08831  -8.5e-05  0.961353  0.0  0.099022  6.5e-05  1.024146  0.0  0.100782  4.7e-05  1.024032  0.0  0.105546  0.097642  8.2e-05  1.024491  0.0
H  H27  1  0.22352257  0.15210567  0.50571200  1  0.087537  9.6e-05  0.961097  0.0  0.09839  -6.5e-05  1.023746  0.0  0.100162  -4.6e-05  1.023623  0.0  0.105688  0.097044  -8.3e-05  1.024072  0.0
H  H28  1  0.39403421  0.65696377  0.65551010  1  0.116444  0.000229  0.991416  0.0  0.121187  0.000222  1.057541  0.0  0.125645  0.000176  1.054664  0.0  0.107868  0.118229  0.000293  1.059275  0.0
H  H29  1  0.23791774  0.00185192  0.34430240  1  0.116383  -0.000237  0.990312  0.0  0.12162  -0.000225  1.05594  0.0  0.126155  -0.000176  1.052915  0.0  0.107885  0.118654  -0.000295  1.057665  0.0
H  H30  1  0.98021908  0.46626124  0.98514328  1  0.422226  0.000169  0.88312  0.001  0.38761  0.000737  0.952503  0.002  0.399785  0.000519  0.934848  0.001  0.289896  0.379048  0.000922  0.964847  0.002
H  H31  1  0.49458111  0.48072910  0.01488319  1  0.423104  -0.000171  0.88184  -0.001  0.388251  -0.000734  0.951625  -0.002  0.400398  -0.000516  0.933981  -0.002  0.290051  0.379706  -0.00092  0.96396  -0.002
H  H32  1  0.12206065  0.43268257  0.91699339  1  0.427887  0.00031  0.869628  0.001  0.395644  0.001222  0.935431  0.002  0.406492  0.000912  0.919577  0.002  0.296352  0.388007  0.001502  0.946537  0.002
H  H33  1  0.70463383  0.51567019  0.08313128  1  0.427352  -0.00031  0.870332  -0.001  0.395528  -0.00122  0.935576  -0.002  0.406334  -0.000909  0.919764  -0.002  0.297231  0.387912  -0.0015  0.946669  -0.002
C  C34  1  0.66520076  0.92789281  0.79929220  1  0.168294  0.001161  3.769506  0.001  0.166521  0.003373  4.011704  0.003  0.172095  0.002576  4.033389  0.002  0.123132  0.162805  0.004442  3.996931  0.004
C  C35  1  0.36541368  0.12882669  0.20060879  1  0.166207  -0.00112  3.770462  -0.001  0.16385  -0.003355  4.013499  -0.003  0.169383  -0.002556  4.035178  -0.002  0.121586  0.160139  -0.00441  3.998752  -0.004
C  C36  1  0.14386480  0.34643344  0.70728156  1  0.677953  0.001608  3.875543  0.002  0.615447  0.003695  4.186407  0.003  0.65021  0.002581  4.176948  0.003  0.227434  0.591271  0.004946  4.192419  0.004
C  C37  1  0.93641038  0.64016413  0.29264202  1  0.676026  -0.00162  3.876105  -0.002  0.61415  -0.003704  4.186478  -0.003  0.649036  -0.00259  4.176932  -0.003  0.226929  0.589908  -0.004965  4.192542  -0.004
C  C38  1  0.10818179  0.17957969  0.69987374  1  -0.062645  0.001262  3.729053  0.0  -0.055395  0.002315  3.97938  0.001  -0.057202  0.001746  3.996716  0.0  -0.002901  -0.054344  0.003207  3.968334  0.001
C  C39  1  0.90844592  0.48081737  0.30011984  1  -0.059374  -0.001228  3.72544  0.0  -0.051162  -0.002296  3.975094  -0.001  -0.052981  -0.001726  3.992271  0.0  -0.001208  -0.050164  -0.003177  3.964239  -0.001
C  C40  1  0.17618402  0.99177192  0.76558474  1  -0.057068  -1e-05  3.68848  0.0  -0.096828  0.000169  3.945678  0.0  -0.093935  -9.1e-05  3.964185  0.0  -0.074913  -0.098617  0.000599  3.934416  0.001
C  C41  1  0.91132260  0.22738148  0.23440717  1  -0.058421  -8e-06  3.687661  0.0  -0.098236  -0.000178  3.945247  0.0  -0.09534  8.8e-05  3.963777  0.0  -0.075385  -0.100013  -0.000613  3.933934  -0.001
C  C42  1  0.92909966  0.89990904  0.61330379  1  -0.047104  0.000148  3.71264  0.0  -0.076632  0.000314  3.968809  0.0  -0.074339  5.5e-05  3.986845  0.0  -0.077918  -0.078072  0.000886  3.95704  0.001
C  C43  1  0.81663771  0.28785501  0.38666006  1  -0.046383  -0.000124  3.714075  0.0  -0.076051  -0.000325  3.970265  0.0  -0.073773  -5.8e-05  3.988229  0.0  -0.077885  -0.077451  -0.000897  3.958492  -0.001
C  C44  1  0.21649158  0.14827092  0.77228605  1  -0.081059  -8.6e-05  3.734729  0.0  -0.06715  0.000772  3.979433  0.001  -0.073895  0.000407  3.999723  0.0  -0.009775  -0.062955  0.001138  3.966216  0.001
C  C45  1  0.94459711  0.37715309  0.22775164  1  -0.082837  6.2e-05  3.734271  0.0  -0.071122  -0.000787  3.982006  -0.001  -0.077761  -0.000429  4.002102  0.0  -0.011706  -0.066982  -0.001154  3.968914  -0.001
C  C46  1  0.02959744  0.86727953  0.68772752  1  -0.085514  0.000101  3.78497  0.0  -0.062073  0.000557  4.023272  0.0  -0.071373  0.000397  4.047588  0.0  -0.020357  -0.055997  0.000734  4.007334  0.001
C  C47  1  0.84270898  0.18075643  0.31221682  1  -0.083893  -0.000117  3.785213  0.0  -0.06051  -0.000569  4.023062  0.0  -0.06972  -0.000414  4.047211  0.0  -0.019052  -0.054495  -0.00074  4.007235  -0.001
C  C48  1  0.96866217  0.05534105  0.61930862  1  -0.088185  -7e-06  3.732593  0.0  -0.111272  0.000546  3.994137  0.0  -0.114076  0.000335  4.012888  0.0  -0.086024  -0.109499  0.000715  3.982425  0.0
C  C49  1  0.84979541  0.43720755  0.38066697  1  -0.090519  -2e-05  3.733199  0.0  -0.113885  -0.000558  3.994949  0.0  -0.116688  -0.000349  4.013716  0.0  -0.086729  -0.112078  -0.000729  3.983228  0.0
C  C50  1  0.91195389  0.09784140  0.93887778  1  0.129918  0.001882  3.700917  0.002  0.099385  0.003922  3.958133  0.003  0.105245  0.003146  3.976865  0.003  0.046991  0.095517  0.004614  3.945441  0.004
C  C51  1  0.47320430  0.15896127  0.06126119  1  0.130466  -0.001752  3.699957  -0.002  0.099565  -0.00387  3.957  -0.003  0.10539  -0.003096  3.975751  -0.003  0.048059  0.095729  -0.004559  3.94431  -0.004
C  C52  1  0.97614145  0.69999104  0.68266032  1  0.645428  0.000166  3.83226  0.0  0.594716  0.000402  4.129503  0.0  0.628038  0.000233  4.12158  0.0  0.229799  0.571745  0.000862  4.135042  0.001
C  C53  1  0.79399472  0.01845297  0.31721146  1  0.644329  -0.000161  3.830683  0.0  0.593453  -0.000394  4.128212  0.0  0.626753  -0.000223  4.120308  0.0  0.227882  0.570494  -0.000854  4.133751  -0.001
C  C54  1  0.48757324  0.04072859  0.59565214  1  0.137218  0.004712  3.712475  0.004  0.107009  0.007105  3.966301  0.006  0.113119  0.006168  3.984905  0.005  0.054422  0.102958  0.008402  3.953612  0.007
C  C55  1  0.39251592  0.44578459  0.40447792  1  0.135922  -0.004867  3.715593  -0.004  0.105026  -0.007175  3.970066  -0.006  0.111174  -0.006232  3.988662  -0.005  0.05122  0.100966  -0.008488  3.95741  -0.007
C  C56  1  0.35742083  0.89897882  0.52521458  1  -0.110905  -0.002469  3.713415  -0.002  -0.123775  -0.001645  3.962479  -0.001  -0.130287  -0.002319  3.983705  -0.002  -0.083028  -0.119407  -0.001186  3.948427  -0.001
C  C57  1  0.33270285  0.37448300  0.47482105  1  -0.10864  0.002618  3.712872  0.002  -0.12141  0.001667  3.961973  0.001  -0.127901  0.00235  3.983216  0.002  -0.081345  -0.117092  0.001219  3.948003  0.001
C  C58  1  0.55024921  0.91192506  0.70365185  1  0.179361  0.003994  3.762996  0.004  0.17591  0.006373  4.001888  0.006  0.182459  0.005498  4.022838  0.005  0.124947  0.171321  0.007703  3.987798  0.007
C  C59  1  0.34641918  0.20874538  0.29625186  1  0.180949  -0.004081  3.763745  -0.004  0.177933  -0.006402  4.002087  -0.006  0.184561  -0.005525  4.022943  -0.005  0.126236  0.173305  -0.007727  3.988038  -0.007
C  C60  1  0.64544678  0.79692202  0.83077162  1  -0.139717  -0.000617  3.669867  0.0  -0.159039  -0.000289  3.917515  0.0  -0.165795  -0.000648  3.93699  -0.001  -0.077484  -0.15486  7.4e-05  3.90462  0.0
C  C61  1  0.31368929  0.96624336  0.16907927  1  -0.138475  0.000534  3.6671  0.0  -0.157538  0.00028  3.914406  0.0  -0.164293  0.000633  3.933909  0.001  -0.077844  -0.153361  -9.7e-05  3.901501  0.0
C  C62  1  0.90449016  0.97314075  0.97382140  1  -0.115366  -0.000228  3.714897  0.0  -0.127725  0.000115  3.966767  0.0  -0.134529  -0.000281  3.988914  0.0  -0.079008  -0.123406  0.000574  3.952003  0.0
C  C63  1  0.43042405  0.99916266  0.02628600  1  -0.116393  0.000132  3.716757  0.0  -0.128961  -0.000132  3.96852  0.0  -0.135761  0.00026  3.990717  0.0  -0.080979  -0.124694  -0.000575  3.953782  0.0
C  C64  1  0.76692814  0.81999806  0.91923610  1  0.012188  0.001637  3.697529  0.001  -0.005071  0.003054  3.942715  0.002  -0.001051  0.002588  3.959102  0.002  -0.058125  -0.007574  0.003645  3.931865  0.003
C  C65  1  0.34698788  0.90065519  0.08073927  1  0.011501  -0.001527  3.696545  -0.001  -0.005417  -0.003012  3.941745  -0.002  -0.00145  -0.002546  3.958064  -0.002  -0.05818  -0.007876  -0.003602  3.930969  -0.003
C  C66  1  0.37132145  0.27963067  0.85810977  1  0.670581  0.007177  3.875018  0.007  0.61269  0.011134  4.176955  0.01  0.647613  0.008435  4.169415  0.008  0.224379  0.588623  0.014251  4.181094  0.013
C  C67  1  0.01325295  0.42248360  0.14189006  1  0.671619  -0.007103  3.877413  -0.007  0.614002  -0.011033  4.179855  -0.01  0.64891  -0.00836  4.172274  -0.008  0.223907  0.589942  -0.014112  4.184024  -0.013
C  C68  1  0.32222609  0.75871963  0.54678067  1  -0.003464  0.00432  3.716835  0.004  -0.020936  0.006029  3.964903  0.005  -0.017846  0.005362  3.983951  0.004  -0.066853  -0.023  0.007358  3.952254  0.006
C  C69  1  0.27550603  0.21254101  0.45309862  1  -0.001395  -0.004469  3.715975  -0.004  -0.018973  -0.006066  3.96407  -0.005  -0.015891  -0.005399  3.983121  -0.004  -0.066593  -0.021115  -0.007398  3.951469  -0.006
C  C70  1  0.42053770  0.76475031  0.63657207  1  -0.137918  -0.002572  3.683724  -0.002  -0.158061  -0.001582  3.934809  -0.002  -0.164978  -0.002246  3.954379  -0.002  -0.079171  -0.153379  -0.001189  3.921382  -0.001
C  C71  1  0.28372236  0.12867536  0.36323909  1  -0.140252  0.002707  3.685344  0.002  -0.160921  0.001597  3.936161  0.002  -0.167861  0.002269  3.95572  0.002  -0.080316  -0.156206  0.001205  3.922735  0.001
N  N72  1  0.79461005  0.07688283  0.85404518  1  -0.375701  0.027119  3.219127  0.017  -0.314823  0.032806  3.492634  0.019  -0.333776  0.029111  3.509552  0.016  -0.307309  -0.301094  0.036727  3.480824  0.022
N  N73  1  0.44058610  0.22303251  0.14601237  1  -0.374114  -0.02705  3.219802  -0.017  -0.313083  -0.032694  3.492889  -0.019  -0.332044  -0.029021  3.509939  -0.016  -0.305954  -0.299343  -0.036617  3.48098  -0.022
N  N74  1  0.58078694  0.04779986  0.68299962  1  -0.381943  0.027434  3.278839  0.014  -0.314793  0.030886  3.551077  0.012  -0.334723  0.026879  3.567644  0.009  -0.318988  -0.300537  0.034986  3.539647  0.016
N  N75  1  0.39803234  0.36538452  0.31705273  1  -0.381733  -0.027222  3.279611  -0.013  -0.314297  -0.030732  3.551446  -0.012  -0.334333  -0.026741  3.568113  -0.009  -0.317865  -0.300037  -0.034816  3.540027  -0.015
O  O76  1  0.30929665  0.44045666  0.69970152  1  -0.612715  0.001805  2.00769  0.002  -0.548973  0.003359  2.224484  0.004  -0.574263  0.002443  2.214629  0.003  -0.297028  -0.531877  0.004263  2.230699  0.005
O  O77  1  0.10943269  0.74176049  0.30018875  1  -0.610301  -0.001803  2.007155  -0.002  -0.548485  -0.003355  2.224952  -0.004  -0.574015  -0.00244  2.215298  -0.003  -0.296841  -0.531333  -0.004257  2.2311  -0.005
O  O78  1  0.83484861  0.58841711  0.61819579  1  -0.579513  3.5e-05  1.946371  0.0  -0.531953  0.000304  2.159203  0.0  -0.553174  0.000171  2.15043  0.0  -0.295762  -0.516702  0.000332  2.165605  0.0
O  O79  1  0.71760306  0.97156557  0.38177306  1  -0.577647  -2.5e-05  1.944929  0.0  -0.530032  -0.000308  2.15781  0.0  -0.551267  -0.000162  2.149055  0.0  -0.293903  -0.51475  -0.000328  2.164153  0.0
O  O80  1  0.99875597  0.38222425  0.71928991  1  -0.634201  0.022026  2.062287  0.012  -0.557278  0.029806  2.307589  0.018  -0.587451  0.027031  2.295075  0.015  -0.290833  -0.533366  0.031919  2.316009  0.019
O  O81  1  0.77926179  0.66389105  0.28061114  1  -0.633253  -0.02207  2.063954  -0.012  -0.556104  -0.029814  2.308481  -0.018  -0.586446  -0.027037  2.296105  -0.015  -0.29009  -0.532005  -0.031921  2.316713  -0.019
O  O82  1  0.08815688  0.68049488  0.75225631  1  -0.537358  -0.000225  2.092967  0.0  -0.48603  -0.000178  2.311802  0.0  -0.508006  -0.000282  2.297516  0.0  -0.32304  -0.470525  9.4e-05  2.322193  0.0
O  O83  1  0.83552127  0.92901351  0.24734224  1  -0.536077  0.000213  2.092131  0.0  -0.484468  0.000175  2.310079  0.0  -0.506487  0.000269  2.295991  0.0  -0.322675  -0.468994  -9.5e-05  2.320473  0.0
O  O84  1  0.63547125  0.39136459  0.71299058  1  -0.855803  0.030204  1.920446  0.019  -0.791951  0.0397  2.130519  0.025  -0.816266  0.035623  2.094997  0.022  -0.579776  -0.773351  0.043293  2.155096  0.028
O  O85  1  0.42273089  0.67927745  0.28759432  1  -0.855124  -0.030032  1.920261  -0.019  -0.791291  -0.03954  2.129587  -0.025  -0.815602  -0.035474  2.094153  -0.022  -0.579483  -0.772745  -0.043132  2.154122  -0.028
O  O86  1  0.32690096  0.38360894  0.90714037  1  -0.617568  0.005844  1.977751  0.007  -0.553378  0.008869  2.192131  0.01  -0.579568  0.007039  2.181614  0.008  -0.292618  -0.535343  0.010802  2.199127  0.012
O  O87  1  0.91931838  0.47682080  0.09266315  1  -0.617987  -0.0058  1.982455  -0.007  -0.553641  -0.008798  2.196439  -0.01  -0.579862  -0.006986  2.185912  -0.008  -0.291914  -0.535575  -0.010705  2.203432  -0.011
O  O88  1  0.00093074  0.45140063  0.91730179  1  -0.841199  0.032486  1.889619  0.02  -0.777862  0.0403  2.09768  0.024  -0.802309  0.035905  2.059357  0.02  -0.576522  -0.758916  0.044483  2.124107  0.028
O  O89  1  0.58300480  0.53385022  0.08278236  1  -0.841989  -0.032568  1.890128  -0.02  -0.779087  -0.040354  2.098502  -0.024  -0.803439  -0.035947  2.060314  -0.02  -0.578377  -0.760203  -0.044557  2.124819  -0.028
O  O90  1  0.54080912  0.27720949  0.87906900  1  -0.652218  0.033578  2.047863  0.02  -0.580274  0.040614  2.316142  0.024  -0.611296  0.03584  2.301848  0.019  -0.31588  -0.556771  0.045186  2.324692  0.028
O  O91  1  0.16194890  0.39929496  0.12099489  1  -0.651486  -0.033483  2.044942  -0.02  -0.579054  -0.040457  2.312606  -0.024  -0.609966  -0.035702  2.298071  -0.019  -0.314533  -0.555636  -0.044995  2.321345  -0.028
