# generated using pymatgen
data_ZnH9C11N7O2
_symmetry_space_group_name_H-M   'P 1'
_cell_length_a   9.23214452
_cell_length_b   9.97554654
_cell_length_c   18.56156952
_cell_angle_alpha   90.00022390
_cell_angle_beta   89.99963660
_cell_angle_gamma   90.00036086
_symmetry_Int_Tables_number   1
_chemical_formula_structural   ZnH9C11N7O2
_chemical_formula_sum   'Zn4 H36 C44 N28 O8'
_cell_volume   1709.44050274
_cell_formula_units_Z   4
loop_
 _symmetry_equiv_pos_site_id
 _symmetry_equiv_pos_as_xyz
  1  'x, y, z'
loop_
 _atom_site_type_symbol
 _atom_site_label
 _atom_site_symmetry_multiplicity
 _atom_site_fract_x
 _atom_site_fract_y
 _atom_site_fract_z
 _atom_site_occupancy
 _atom_site_pbe_bader_charge
 _atom_site_pbe_bader_spin_density
 _atom_site_pbe_cm5_charge
 _atom_site_pbe_ddec_charge
 _atom_site_pbe_ddec_spin_density
 _atom_site_pbe_ddec_sum_bond_order
 _atom_site_pbe_magmom
Zn  Zn0  1  0.11614105  0.46904651  0.90485807  1  1.215672  0  0.725029  0.720852  0  2.458056  0
Zn  Zn1  1  0.61613862  0.53095753  0.09514135  1  1.215711  0  0.725001  0.720954  0  2.457772  0
Zn  Zn2  1  0.11614170  0.03095948  0.40485839  1  1.215731  0  0.724964  0.720829  0  2.457833  0
Zn  Zn3  1  0.61614230  0.96904356  0.59514210  1  1.215672  0  0.725039  0.720873  0  2.457998  0
H  H4  1  0.52026864  0.87665935  0.87492776  1  0.059202  0  0.112496  0.056859  0  0.973877  0
H  H5  1  0.02027117  0.12332207  0.12507358  1  0.071654  0  0.11248  0.056816  0  0.973891  0
H  H6  1  0.52026775  0.62333012  0.37492289  1  0.071205  0  0.112483  0.056784  0  0.973865  0
H  H7  1  0.02027965  0.37667436  0.62507413  1  0.071718  0  0.112462  0.056789  0  0.973925  0
H  H8  1  0.92195281  0.43988752  0.03406781  1  0.153608  0  0.126258  0.087787  0  1.038284  0
H  H9  1  0.42194423  0.56011432  0.96593281  1  0.153545  0  0.126243  0.087823  0  1.038265  0
H  H10  1  0.92195267  0.06011360  0.53406768  1  0.153492  0  0.126262  0.087802  0  1.038245  0
H  H11  1  0.42195196  0.93989626  0.46593240  1  0.153668  0  0.126282  0.087875  0  1.038268  0
H  H12  1  0.09668565  0.02539406  0.75851924  1  0.07645  0  0.110264  0.124701  0  1.008014  0
H  H13  1  0.59668757  0.97461488  0.24147539  1  0.076359  0  0.110215  0.124597  0  1.008071  0
H  H14  1  0.09667628  0.47460677  0.25851783  1  0.07636  0  0.11026  0.124624  0  1.008009  0
H  H15  1  0.59669044  0.52538412  0.74147357  1  0.076295  0  0.110237  0.124614  0  1.00803  0
H  H16  1  0.72537152  0.28552598  0.74558914  1  0.096697  0  0.105429  0.116041  0  1.035045  0
H  H17  1  0.22538826  0.71446768  0.25442233  1  0.096887  0  0.105438  0.11598  0  1.035192  0
H  H18  1  0.72536690  0.21446846  0.24558986  1  0.096671  0  0.105452  0.116071  0  1.035092  0
H  H19  1  0.22538746  0.78552821  0.75441515  1  0.096826  0  0.105427  0.115984  0  1.035239  0
H  H20  1  0.84938926  0.43926058  0.83157914  1  0.098625  0  0.112283  0.076897  0  1.033568  0
H  H21  1  0.34940282  0.56073582  0.16843193  1  0.098691  0  0.112273  0.076778  0  1.033502  0
H  H22  1  0.84938578  0.06073921  0.33158007  1  0.098602  0  0.112262  0.07687  0  1.033566  0
H  H23  1  0.34940847  0.93926221  0.66842778  1  0.098707  0  0.112291  0.076813  0  1.033449  0
H  H24  1  0.93973834  0.81426461  0.76066245  1  0.503707  0  0.296602  0.309279  0  0.993621  0
H  H25  1  0.43974090  0.18573834  0.23933703  1  0.503577  0  0.296622  0.309275  0  0.993726  0
H  H26  1  0.93974111  0.68575059  0.26066149  1  0.503536  0  0.296604  0.309286  0  0.993713  0
H  H27  1  0.43974679  0.31426138  0.73933961  1  0.50363  0  0.296585  0.309231  0  0.993673  0
H  H28  1  0.04477005  0.69743445  0.81001031  1  0.488848  0  0.293043  0.303938  0  1.007805  0
H  H29  1  0.54476271  0.30256616  0.18998987  1  0.488791  0  0.293098  0.303996  0  1.007795  0
H  H30  1  0.04476170  0.80257079  0.31000691  1  0.488764  0  0.293063  0.303906  0  1.007888  0
H  H31  1  0.54477107  0.19743083  0.68999112  1  0.488794  0  0.293016  0.303867  0  1.007898  0
H  H32  1  0.30073565  0.11759936  0.82188813  1  0.446437  0  0.313518  0.310443  0  0.928097  0
H  H33  1  0.80073885  0.88240478  0.17810533  1  0.446423  0  0.313552  0.310412  0  0.928129  0
H  H34  1  0.30072891  0.38240614  0.32188759  1  0.446421  0  0.313506  0.310405  0  0.928145  0
H  H35  1  0.80074233  0.61758697  0.67810640  1  0.446327  0  0.313569  0.310548  0  0.927965  0
H  H36  1  0.30239323  0.27741227  0.85468779  1  0.507457  0  0.297737  0.309782  0  0.989852  0
H  H37  1  0.80238819  0.72259989  0.14530835  1  0.507527  0  0.297727  0.309763  0  0.989912  0
H  H38  1  0.30238650  0.22259446  0.35468583  1  0.507471  0  0.297715  0.309778  0  0.989869  0
H  H39  1  0.80240033  0.77739865  0.64530870  1  0.507516  0  0.297724  0.309768  0  0.989873  0
C  C40  1  0.72008337  0.66147103  0.95745579  1  0.940525  0  0.200682  0.301225  0  4.127053  0
C  C41  1  0.22008190  0.33852260  0.04254653  1  0.940552  0  0.200704  0.30096  0  4.127138  0
C  C42  1  0.72008609  0.83852623  0.45745463  1  0.940426  0  0.200733  0.30125  0  4.126876  0
C  C43  1  0.22008894  0.16148344  0.54254554  1  0.94052  0  0.200681  0.301072  0  4.126729  0
C  C44  1  0.84178560  0.65628755  0.91187163  1  0.39588  0  0.066421  -0.053695  0  4.020729  0
C  C45  1  0.34178575  0.34370580  0.08813247  1  0.396271  0  0.066412  -0.053637  0  4.020805  0
C  C46  1  0.84178618  0.84370810  0.41186670  1  0.395919  0  0.066389  -0.05366  0  4.020664  0
C  C47  1  0.34179599  0.15629327  0.58813093  1  0.395977  0  0.066421  -0.053685  0  4.020501  0
C  C48  1  0.84080059  0.74035290  0.85040440  1  1.073997  0  0.227094  0.401897  0  4.148853  0
C  C49  1  0.34080697  0.25964145  0.14959916  1  1.073955  0  0.227171  0.402019  0  4.148777  0
C  C50  1  0.84081144  0.75964832  0.35039875  1  1.073942  0  0.227157  0.401947  0  4.148993  0
C  C51  1  0.34081020  0.24035705  0.64959943  1  1.073912  0  0.227228  0.402061  0  4.14864  0
C  C52  1  0.61302795  0.81234741  0.88714526  1  1.100839  0  0.150717  0.238995  0  4.110662  0
C  C53  1  0.11303431  0.18763757  0.11285632  1  1.088162  0  0.150727  0.239005  0  4.110326  0
C  C54  1  0.61303507  0.68764871  0.38714215  1  1.088595  0  0.150717  0.239061  0  4.110244  0
C  C55  1  0.11304236  0.31236433  0.61285728  1  1.087793  0  0.150679  0.238908  0  4.110306  0
C  C56  1  0.87394277  0.51736672  0.00036284  1  0.98648  0  0.143327  0.190935  0  3.960861  0
C  C57  1  0.37393433  0.48263383  0.99963954  1  0.986237  0  0.143319  0.190893  0  3.960774  0
C  C58  1  0.87394112  0.98263222  0.50036255  1  0.986669  0  0.14335  0.190983  0  3.960885  0
C  C59  1  0.37394681  0.01737235  0.49963822  1  0.986225  0  0.143315  0.190903  0  3.961169  0
C  C60  1  0.10669872  0.21043178  0.82012036  1  0.979621  0  0.237671  0.460763  0  4.05097  0
C  C61  1  0.60670127  0.78957621  0.17987801  1  0.979817  0  0.237791  0.460951  0  4.051059  0
C  C62  1  0.10669352  0.28957054  0.32011801  1  0.9797  0  0.237662  0.460589  0  4.051394  0
C  C63  1  0.60670213  0.71042041  0.67987497  1  0.979764  0  0.237804  0.460713  0  4.051165  0
C  C64  1  0.03898961  0.11588723  0.77444481  1  0.076025  0  -0.081571  -0.232602  0  3.878323  0
C  C65  1  0.53899654  0.88411736  0.22555431  1  0.075985  0  -0.081643  -0.232611  0  3.878364  0
C  C66  1  0.03898289  0.38411137  0.27444374  1  0.07621  0  -0.081598  -0.232464  0  3.878369  0
C  C67  1  0.53899136  0.61587818  0.72555107  1  0.076106  0  -0.08166  -0.232516  0  3.878374  0
C  C68  1  0.90292566  0.14204665  0.74687362  1  -0.005756  0  0.002512  0.034499  0  3.987946  0
C  C69  1  0.40293038  0.85795909  0.25312490  1  -0.005705  0  0.00264  0.034654  0  3.987614  0
C  C70  1  0.90292309  0.35795085  0.24687249  1  -0.006024  0  0.002488  0.034462  0  3.987725  0
C  C71  1  0.40292862  0.64203685  0.75312118  1  -0.005606  0  0.002609  0.034575  0  3.987955  0
C  C72  1  0.83182869  0.26129411  0.76667283  1  -0.071277  0  -0.103163  -0.190059  0  4.006592  0
C  C73  1  0.33183829  0.73870118  0.23333561  1  -0.070801  0  -0.103159  -0.189929  0  4.006621  0
C  C74  1  0.83182424  0.23869910  0.26667145  1  -0.071107  0  -0.103171  -0.190068  0  4.006532  0
C  C75  1  0.33183949  0.76129319  0.73332837  1  -0.071089  0  -0.103112  -0.190015  0  4.006863  0
C  C76  1  0.90098487  0.34686674  0.81352284  1  0.448289  0  0.036579  0.097157  0  4.005209  0
C  C77  1  0.40099558  0.65313298  0.18648646  1  0.447627  0  0.036536  0.097199  0  4.005354  0
C  C78  1  0.90098202  0.15313223  0.31352181  1  0.44816  0  0.036606  0.097194  0  4.005236  0
C  C79  1  0.40100169  0.84686348  0.68648049  1  0.447885  0  0.036423  0.097107  0  4.005433  0
C  C80  1  0.83477359  0.04722339  0.69385386  1  1.596077  0  0.218278  0.579905  0  4.183432  0
C  C81  1  0.33477068  0.95278496  0.30614703  1  1.59646  0  0.218304  0.579775  0  4.183333  0
C  C82  1  0.83476732  0.45277534  0.19385294  1  1.596271  0  0.218426  0.580051  0  4.183352  0
C  C83  1  0.33476829  0.54722198  0.80614095  1  1.595545  0  0.218343  0.579865  0  4.183633  0
N  N84  1  0.74339033  0.57321796  0.01354411  1  -1.249927  0  -0.375312  -0.381515  0  3.543358  0
N  N85  1  0.24338601  0.42677681  0.98645653  1  -1.2494  0  -0.375331  -0.381411  0  3.54328  0
N  N86  1  0.74339155  0.92678030  0.51354531  1  -1.249956  0  -0.375321  -0.381526  0  3.543307  0
N  N87  1  0.24339886  0.07322850  0.48645533  1  -1.249467  0  -0.375275  -0.381484  0  3.543372  0
N  N88  1  0.93858060  0.56328351  0.94025529  1  -1.248688  0  -0.373958  -0.338251  0  3.551838  0
N  N89  1  0.43857307  0.43671843  0.05974689  1  -1.248591  0  -0.374011  -0.338354  0  3.55184  0
N  N90  1  0.93857531  0.93671592  0.44025487  1  -1.248573  0  -0.374015  -0.338411  0  3.551897  0
N  N91  1  0.43858703  0.06327901  0.55974515  1  -1.248401  0  -0.374074  -0.338371  0  3.552  0
N  N92  1  0.60159660  0.73753865  0.94677539  1  -1.229562  0  -0.353008  -0.418446  0  3.291308  0
N  N93  1  0.10159773  0.26245027  0.05322407  1  -1.229983  0  -0.352875  -0.418163  0  3.290895  0
N  N94  1  0.60159556  0.76245883  0.44677621  1  -1.229429  0  -0.352967  -0.418388  0  3.290973  0
N  N95  1  0.10159878  0.23755315  0.55322217  1  -1.229512  0  -0.352852  -0.418152  0  3.290667  0
N  N96  1  0.72297347  0.81876827  0.83981936  1  -1.226135  0  -0.354503  -0.434145  0  3.274919  0
N  N97  1  0.22298027  0.18122137  0.16018188  1  -1.225971  0  -0.354619  -0.434282  0  3.274815  0
N  N98  1  0.72298705  0.68122717  0.33981569  1  -1.225871  0  -0.354517  -0.434197  0  3.27477  0
N  N99  1  0.22298403  0.31878352  0.66018555  1  -1.226083  0  -0.354582  -0.434177  0  3.274673  0
N  N100  1  0.94823425  0.74429969  0.80081198  1  -1.337121  0  -0.581096  -0.629762  0  3.351573  0
N  N101  1  0.44823563  0.25569830  0.19918909  1  -1.337074  0  -0.581168  -0.629827  0  3.351754  0
N  N102  1  0.94823749  0.75570682  0.30080848  1  -1.337065  0  -0.581146  -0.629737  0  3.351772  0
N  N103  1  0.44823997  0.24429818  0.69919043  1  -1.337143  0  -0.581107  -0.62972  0  3.351655  0
N  N104  1  0.03503198  0.32327458  0.84020241  1  -1.269665  0  -0.343317  -0.32899  0  3.50097  0
N  N105  1  0.53503511  0.67673700  0.15980534  1  -1.269905  0  -0.34336  -0.32915  0  3.501213  0
N  N106  1  0.03502711  0.17673047  0.34019874  1  -1.269786  0  -0.343353  -0.328973  0  3.500932  0
N  N107  1  0.53504106  0.82326307  0.65979932  1  -1.26972  0  -0.343237  -0.32877  0  3.501134  0
N  N108  1  0.24305576  0.19173656  0.84581623  1  -1.240581  0  -0.580015  -0.623044  0  3.278454  0
N  N109  1  0.74305659  0.80826924  0.15418117  1  -1.240743  0  -0.580086  -0.62305  0  3.278574  0
N  N110  1  0.24304960  0.30826776  0.34581392  1  -1.240526  0  -0.579961  -0.622927  0  3.27858  0
N  N111  1  0.74306166  0.69172400  0.65417917  1  -1.24065  0  -0.580131  -0.623189  0  3.27841  0
O  O112  1  0.89505518  0.93756571  0.67982897  1  -1.182697  0  -0.306985  -0.548955  0  2.177883  0
O  O113  1  0.39504938  0.06244499  0.32017388  1  -1.182874  0  -0.306971  -0.548898  0  2.177989  0
O  O114  1  0.89505063  0.56243262  0.17982829  1  -1.182645  0  -0.307053  -0.54904  0  2.177952  0
O  O115  1  0.39504202  0.43756505  0.82017457  1  -1.182672  0  -0.307071  -0.548972  0  2.178153  0
O  O116  1  0.71613193  0.09000355  0.66457532  1  -1.183074  0  -0.323004  -0.542514  0  2.34315  0
O  O117  1  0.21612511  0.91000008  0.33542540  1  -1.18309  0  -0.323013  -0.542439  0  2.343125  0
O  O118  1  0.71611996  0.40999527  0.16457592  1  -1.183156  0  -0.323057  -0.54261  0  2.34311  0
O  O119  1  0.21612517  0.59000234  0.83541780  1  -1.182585  0  -0.323003  -0.542484  0  2.343132  0
