# generated using pymatgen
data_CoH28C30(N5O4)2
_symmetry_space_group_name_H-M   'P 1'
_cell_length_a   8.37654602
_cell_length_b   8.70712597
_cell_length_c   10.96862832
_cell_angle_alpha   78.04206903
_cell_angle_beta   75.06063341
_cell_angle_gamma   68.13738083
_symmetry_Int_Tables_number   1
_chemical_formula_structural   CoH28C30(N5O4)2
_chemical_formula_sum   'Co1 H28 C30 N10 O8'
_cell_volume   711.83441468
_cell_formula_units_Z   1
loop_
 _symmetry_equiv_pos_site_id
 _symmetry_equiv_pos_as_xyz
  1  'x, y, z'
loop_
 _atom_site_type_symbol
 _atom_site_label
 _atom_site_symmetry_multiplicity
 _atom_site_fract_x
 _atom_site_fract_y
 _atom_site_fract_z
 _atom_site_occupancy
 _atom_site_hle17_ddec_charge
 _atom_site_hle17_ddec_spin_density
 _atom_site_hle17_ddec_sum_bond_order
 _atom_site_hle17_magmom
 _atom_site_hse06_10hf_bader_charge
 _atom_site_hse06_10hf_bader_spin_density
 _atom_site_hse06_10hf_ddec_charge
 _atom_site_hse06_10hf_ddec_spin_density
 _atom_site_hse06_10hf_ddec_sum_bond_order
 _atom_site_hse06_10hf_magmom
 _atom_site_hse06_ddec_charge
 _atom_site_hse06_ddec_spin_density
 _atom_site_hse06_ddec_sum_bond_order
 _atom_site_hse06_magmom
 _atom_site_pbe_cm5_charge
 _atom_site_pbe_ddec_charge
 _atom_site_pbe_ddec_spin_density
 _atom_site_pbe_ddec_sum_bond_order
 _atom_site_pbe_magmom
Co  Co0  1  0.49999982  0.00000045  0.00000037  1  0.589479  1.086506  2.583591  1.004  1.123465  0.984861  0.553122  1.030729  3.038185  0.967  0.616213  1.032921  2.968492  0.978  0.702884  0.515145  1.021195  3.083343  0.948
H  H1  1  0.91519034  0.85310717  0.95116080  1  0.114477  -6.1e-05  0.954325  0.0  0.152389  -4e-06  0.120331  -0.000149  1.023161  0.0  0.122374  -0.000107  1.021187  0.0  0.122127  0.118878  -0.000187  1.02448  0.0
H  H2  1  0.08480772  0.14689774  0.04884103  1  0.11442  -6.2e-05  0.954363  0.0  0.152408  -4e-06  0.120291  -0.000149  1.023184  0.0  0.122324  -0.000107  1.021221  0.0  0.122116  0.118837  -0.000187  1.024505  0.0
H  H3  1  0.25488712  0.80814672  0.17976613  1  0.108493  -4.9e-05  0.988831  0.0  0.155421  3e-06  0.116612  -0.000138  1.053277  0.0  0.119096  -0.000115  1.050149  0.0  0.118491  0.114706  -0.000147  1.055525  0.0
H  H4  1  0.74510975  0.19185449  0.82023379  1  0.108527  -4.8e-05  0.988783  0.0  0.155392  3e-06  0.11663  -0.000138  1.053241  0.0  0.119115  -0.000115  1.050113  0.0  0.118498  0.114723  -0.000147  1.055488  0.0
H  H5  1  0.56262245  0.22977299  0.51477798  1  0.111773  -0.0  0.946479  0.0  0.07582  -3e-06  0.12146  -3e-06  1.008996  0.0  0.125599  -2e-06  1.006412  0.0  0.105249  0.118556  -2e-06  1.010485  0.0
H  H6  1  0.43737821  0.77022454  0.48522080  1  0.111746  1e-06  0.946523  0.0  0.075801  -3e-06  0.121433  -3e-06  1.009034  0.0  0.125588  -2e-06  1.006429  0.0  0.105234  0.118525  -2e-06  1.010522  0.0
H  H7  1  0.16780522  0.44565113  0.06293079  1  0.091993  -5.5e-05  0.942271  0.0  0.055081  -3.7e-05  0.10628  -6.9e-05  1.004057  0.0  0.106373  -4.6e-05  1.005592  0.0  0.097647  0.106206  -8.2e-05  1.003078  0.0
H  H8  1  0.83219236  0.55435139  0.93706695  1  0.092003  -5.3e-05  0.942327  0.0  0.05475  -3.7e-05  0.106317  -6.9e-05  1.004076  0.0  0.106412  -4.6e-05  1.005612  0.0  0.09767  0.106246  -8.2e-05  1.003087  0.0
H  H9  1  0.51738458  0.78639914  0.80736201  1  0.287658  -0.000115  0.962939  0.0  0.576065  3.9e-05  0.258799  -8.9e-05  1.037289  0.0  0.268449  -8.1e-05  1.029163  0.0  0.313493  0.251812  -9.2e-05  1.043312  0.0
H  H10  1  0.48261387  0.21360457  0.19263810  1  0.287628  -0.000116  0.963001  0.0  0.575879  3.9e-05  0.258815  -8.9e-05  1.037271  0.0  0.268464  -8.1e-05  1.029145  0.0  0.313495  0.251829  -9.2e-05  1.043305  0.0
H  H11  1  0.03164744  0.35101184  0.45737651  1  0.107299  -1.8e-05  1.000258  0.0  0.120457  0.0  0.113189  -1.1e-05  1.070641  0.0  0.117302  -9e-06  1.067307  0.0  0.102902  0.110019  -1.3e-05  1.073702  0.0
H  H12  1  0.96835215  0.64898556  0.54262708  1  0.107319  -1.5e-05  1.000239  0.0  0.120449  0.0  0.113178  -1.1e-05  1.070654  0.0  0.117291  -9e-06  1.067318  0.0  0.102917  0.110002  -1.3e-05  1.073716  0.0
H  H13  1  0.03177003  0.97033280  0.26165028  1  0.097263  -1.3e-05  0.973708  0.0  0.059072  0.0  0.108598  -3.7e-05  1.036114  0.0  0.112151  -3.6e-05  1.033723  0.0  0.10168  0.10611  -3.2e-05  1.038079  0.0
H  H14  1  0.96823393  0.02966597  0.73834944  1  0.097287  -1.2e-05  0.973721  0.0  0.059084  0.0  0.108615  -3.7e-05  1.036135  0.0  0.112168  -3.5e-05  1.033743  0.0  0.101677  0.106126  -3.2e-05  1.038106  0.0
H  H15  1  0.56926938  0.04020896  0.37109181  1  0.314866  1.9e-05  0.921158  0.0  0.451599  4.3e-05  0.300801  2.3e-05  0.9833  0.0  0.307418  1.1e-05  0.977972  0.0  0.293314  0.29576  3.3e-05  0.987509  0.0
H  H16  1  0.43073079  0.95979350  0.62890905  1  0.314876  2e-05  0.921147  0.0  0.451573  4.3e-05  0.300819  2.3e-05  0.983281  0.0  0.307436  1.2e-05  0.977949  0.0  0.293325  0.295781  3.3e-05  0.987488  0.0
H  H17  1  0.16445806  0.50884115  0.20551789  1  0.094417  1.6e-05  0.928895  0.0  0.050556  -0.0  0.110224  -2e-06  0.987176  0.0  0.110676  2e-06  0.987685  0.0  0.099566  0.109614  2e-06  0.987119  0.0
H  H18  1  0.83554293  0.49115889  0.79448043  1  0.094403  1.5e-05  0.928884  0.0  0.050522  -1e-06  0.110227  -2e-06  0.987147  0.0  0.110679  2e-06  0.987655  0.0  0.099555  0.109604  2e-06  0.987105  0.0
H  H19  1  0.35346508  0.58356129  0.83751099  1  0.117216  -6.1e-05  0.967572  0.0  0.167039  -7.9e-05  0.123126  -7.8e-05  1.038595  0.0  0.125588  -6.6e-05  1.036549  0.0  0.120551  0.120998  -0.000148  1.040858  0.0
H  H20  1  0.64653500  0.41644124  0.16248714  1  0.117281  -5.4e-05  0.967501  0.0  0.167037  -8e-05  0.123177  -7.9e-05  1.038535  0.0  0.125639  -6.6e-05  1.036488  0.0  0.120564  0.121048  -0.000148  1.040802  0.0
H  H21  1  0.76256933  0.92115798  0.28914193  1  0.299651  -2.6e-05  0.918449  0.0  0.422818  -1.3e-05  0.288818  -3.8e-05  0.979931  0.0  0.293287  -3.1e-05  0.978129  0.0  0.295413  0.285901  -3.9e-05  0.980618  0.0
H  H22  1  0.23743140  0.07883950  0.71085867  1  0.299658  -2.5e-05  0.918459  0.0  0.422828  -1.3e-05  0.288829  -3.8e-05  0.979936  0.0  0.293298  -3.1e-05  0.978134  0.0  0.295419  0.285915  -3.9e-05  0.980625  0.0
H  H23  1  0.53095327  0.73484401  0.23081787  1  0.305834  -0.000104  0.893777  0.0  0.550973  2.8e-05  0.282705  -0.000102  0.962684  0.0  0.290335  -8.1e-05  0.956206  0.0  0.332975  0.276993  -0.000124  0.967847  0.0
H  H24  1  0.46904740  0.26515352  0.76918091  1  0.305803  -0.000104  0.893758  0.0  0.550981  2.8e-05  0.282665  -0.000102  0.962691  0.0  0.290304  -8.1e-05  0.956207  0.0  0.332955  0.276954  -0.000124  0.967852  0.0
H  H25  1  0.80705759  0.53095684  0.29789572  1  0.116652  -8.2e-05  0.98001  0.0  0.16226  -0.00011  0.124955  -0.000116  1.046011  0.0  0.126702  -8.7e-05  1.045064  0.0  0.122272  0.123567  -0.000139  1.046829  0.0
H  H26  1  0.19294379  0.46904199  0.70210088  1  0.116633  -8.2e-05  0.980019  0.0  0.162247  -0.00011  0.124943  -0.000116  1.046014  0.0  0.126691  -8.7e-05  1.045066  0.0  0.122274  0.123561  -0.000139  1.046833  0.0
H  H27  1  0.71129746  0.65310640  0.60172778  1  0.411028  -2.8e-05  0.882537  0.0  0.680206  -1.5e-05  0.375157  -1.3e-05  0.968353  0.0  0.388714  -1.1e-05  0.94973  0.0  0.303007  0.365783  -1.6e-05  0.978588  0.0
H  H28  1  0.28869656  0.34689233  0.39827130  1  0.411002  -2.8e-05  0.882604  0.0  0.680225  -1.5e-05  0.37511  -1.4e-05  0.968447  0.0  0.388665  -1.1e-05  0.949809  0.0  0.302973  0.365741  -1.6e-05  0.97868  0.0
C  C29  1  0.78870626  0.30328463  0.49191159  1  -0.072042  0.000184  3.828932  0.0  -0.034146  0.000142  -0.048775  6.5e-05  4.070699  0.0  -0.055633  4.2e-05  4.093745  0.0  -0.02763  -0.043606  9.3e-05  4.053711  0.0
C  C30  1  0.21129449  0.69671283  0.50808992  1  -0.072149  0.000204  3.829085  0.0  -0.034229  0.00014  -0.048894  6.3e-05  4.070883  0.0  -0.055755  4.3e-05  4.093933  0.0  -0.027669  -0.043727  9.3e-05  4.053888  0.0
C  C31  1  0.85927700  0.78874614  0.03731109  1  -0.026474  -0.010426  3.676059  -0.007  0.395686  -0.004095  -0.070861  -0.004383  3.95288  -0.003  -0.060848  -0.003554  3.965658  -0.002  0.013298  -0.077528  -0.005048  3.944333  -0.003
C  C32  1  0.14072028  0.21125752  0.96269109  1  -0.026279  -0.01045  3.675958  -0.007  0.395667  -0.004092  -0.070666  -0.00438  3.952727  -0.003  -0.060653  -0.003555  3.965504  -0.002  0.013342  -0.077332  -0.005047  3.94418  -0.003
C  C33  1  0.25216880  0.65430978  0.03816807  1  -0.010577  0.000327  3.807265  0.001  0.052673  -8.3e-05  0.013628  -0.000263  4.057606  0.0  0.005839  -0.000135  4.083466  0.0  -0.033222  0.018467  -0.000277  4.040335  0.0
C  C34  1  0.74783007  0.34569271  0.96183123  1  -0.010542  0.000302  3.807326  0.001  0.053058  -8.1e-05  0.013641  -0.000262  4.057688  0.0  0.005854  -0.000135  4.083549  0.0  -0.033221  0.018485  -0.000277  4.040407  0.0
C  C35  1  0.05427581  0.15442326  0.35384597  1  -0.055598  0.001534  3.797834  0.002  0.010423  0.002141  -0.032695  0.001089  4.035294  0.002  -0.039152  0.00075  4.05898  0.001  -0.023031  -0.028061  0.001597  4.019887  0.002
C  C36  1  0.94572664  0.84557297  0.64615537  1  -0.055632  0.001556  3.797888  0.002  0.010592  0.002139  -0.032682  0.001088  4.035294  0.002  -0.039141  0.000751  4.05898  0.001  -0.023023  -0.028046  0.001597  4.019885  0.002
C  C37  1  0.13591199  0.55657917  0.10975666  1  -0.142919  -0.000645  3.756205  -0.001  0.032199  -0.000273  -0.18759  -0.000271  3.994605  0.0  -0.18703  -0.000239  4.009734  0.0  -0.150294  -0.187749  -0.000286  3.984521  0.0
C  C38  1  0.86408689  0.44342332  0.89024264  1  -0.142919  -0.000644  3.756255  -0.001  0.032378  -0.000272  -0.187624  -0.00027  3.994653  0.0  -0.187066  -0.000238  4.009785  0.0  -0.150296  -0.187769  -0.000286  3.984564  0.0
C  C39  1  0.94321453  0.65370938  0.12107880  1  -0.016842  0.001146  3.792321  0.002  0.062517  0.000322  0.007934  -7.1e-05  4.039877  0.0  0.000102  3.7e-05  4.064725  0.0  -0.028891  0.012834  -7.7e-05  4.023317  0.0
C  C40  1  0.05678315  0.34629308  0.87892166  1  -0.016865  0.001157  3.792248  0.002  0.06243  0.000322  0.007926  -7e-05  4.039785  0.0  9.3e-05  3.8e-05  4.064633  0.0  -0.028864  0.012824  -7.7e-05  4.02323  0.0
C  C41  1  0.69253747  0.43886006  0.57423636  1  0.660506  1.8e-05  3.811063  0.0  1.549236  3.9e-05  0.610499  1.2e-05  4.107647  0.0  0.643678  8e-06  4.098256  0.0  0.232783  0.588065  1.5e-05  4.11324  0.0
C  C42  1  0.30746080  0.56113739  0.42576476  1  0.660621  1.5e-05  3.810907  0.0  1.549264  4e-05  0.610599  1.3e-05  4.107495  0.0  0.64378  8e-06  4.0981  0.0  0.23284  0.58817  1.5e-05  4.113083  0.0
C  C43  1  0.29430737  0.76919358  0.08592615  1  -0.02593  -0.007236  3.682334  -0.005  0.389894  -0.003152  -0.0746  -0.003368  3.961004  -0.002  -0.065481  -0.00278  3.974694  -0.002  0.008697  -0.08008  -0.003536  3.951988  -0.002
C  C44  1  0.70569151  0.23080892  0.91407315  1  -0.025984  -0.007191  3.682272  -0.005  0.389736  -0.003154  -0.07465  -0.00337  3.960916  -0.002  -0.065537  -0.002779  3.974604  -0.002  0.008718  -0.080125  -0.003535  3.95189  -0.002
C  C45  1  0.24314760  0.12541290  0.28898194  1  0.652229  0.000626  3.856983  0.002  1.57285  0.003707  0.602207  0.002206  4.155029  0.004  0.636494  0.001612  4.146649  0.003  0.217413  0.578948  0.002826  4.159674  0.004
C  C46  1  0.75685420  0.87458837  0.71101693  1  0.652124  0.000623  3.857127  0.002  1.572674  0.003708  0.602075  0.002207  4.155184  0.004  0.636364  0.001612  4.146804  0.003  0.217348  0.578803  0.002826  4.159845  0.004
C  C47  1  0.70014361  0.20724696  0.46955470  1  -0.167417  -0.000152  3.660573  0.0  0.058366  0.000181  -0.201949  9e-05  3.913797  0.0  -0.204028  5.2e-05  3.931306  0.0  -0.093049  -0.198534  0.000125  3.9002  0.0
C  C48  1  0.29986081  0.79275056  0.53044511  1  -0.167328  -0.000199  3.660634  0.0  0.058421  0.000184  -0.20188  9.2e-05  3.913857  0.0  -0.203975  5e-05  3.931372  0.0  -0.093007  -0.198459  0.000125  3.900247  0.0
C  C49  1  0.78675543  0.08526128  0.38592501  1  0.309645  3.8e-05  3.852648  0.0  0.34582  -5.6e-05  0.310168  -6.5e-05  4.102536  0.0  0.318578  -4.1e-05  4.122995  0.0  0.097225  0.304261  -6.6e-05  4.088555  0.0
C  C50  1  0.21324730  0.91473747  0.61407496  1  0.309617  5.7e-05  3.852707  0.0  0.345904  -5.8e-05  0.310205  -6.6e-05  4.102529  0.0  0.318613  -4.1e-05  4.122992  0.0  0.097224  0.304296  -6.6e-05  4.088545  0.0
C  C51  1  0.96379195  0.06220346  0.32823139  1  -0.175644  -0.000631  3.681925  0.0  0.009776  0.000118  -0.202734  -1.6e-05  3.924174  0.0  -0.205709  -3.9e-05  3.943933  0.0  -0.091624  -0.202294  2e-06  3.912322  0.0
C  C52  1  0.03621253  0.93779401  0.67177024  1  -0.175639  -0.000679  3.682026  0.0  0.00971  0.000119  -0.202764  -1.5e-05  3.924262  0.0  -0.205738  -4e-05  3.944021  0.0  -0.091611  -0.202328  2e-06  3.912422  0.0
C  C53  1  0.34173168  0.65384357  0.91212194  1  -0.005386  -0.004484  3.647017  -0.003  0.33253  -0.00181  -0.061113  -0.001956  3.912127  -0.001  -0.053028  -0.001651  3.9269  -0.001  0.01674  -0.066797  -0.002509  3.902986  -0.001
C  C54  1  0.65826765  0.34615767  0.08787745  1  -0.005487  -0.004455  3.647078  -0.003  0.33251  -0.001813  -0.061209  -0.001958  3.91221  -0.001  -0.053126  -0.001652  3.926986  -0.001  0.016704  -0.066892  -0.002509  3.90307  -0.001
C  C55  1  0.80664965  0.62169731  0.21375412  1  -0.007303  -0.007909  3.647652  -0.005  0.318647  -0.003039  -0.060949  -0.003186  3.909681  -0.002  -0.051812  -0.002612  3.922572  -0.001  0.018955  -0.066706  -0.00374  3.900709  -0.002
C  C56  1  0.19335013  0.37830268  0.78624537  1  -0.007306  -0.007932  3.647607  -0.005  0.318656  -0.003038  -0.060952  -0.003185  3.909644  -0.002  -0.051814  -0.002611  3.922536  -0.001  0.018944  -0.066715  -0.00374  3.900682  -0.002
C  C57  1  0.96581099  0.27644843  0.43614197  1  -0.11552  -0.000156  3.729362  0.0  -0.05455  0.000518  -0.154801  0.00022  3.98311  0.0  -0.15489  0.000144  4.002803  0.0  -0.100562  -0.156054  0.000312  3.97101  0.001
C  C58  1  0.03419229  0.72354900  0.56386083  1  -0.115453  -0.000198  3.729378  0.0  -0.054532  0.000519  -0.154717  0.000221  3.983124  0.0  -0.154804  0.000142  4.002817  0.0  -0.100549  -0.155969  0.000312  3.971016  0.001
N  N59  1  0.68351911  0.83406024  0.07616941  1  -0.155556  -0.011226  3.341122  -0.007  -0.734239  -0.007036  -0.137679  -0.007857  3.66096  -0.006  -0.156784  -0.008043  3.675574  -0.006  -0.266238  -0.126187  -0.006889  3.651727  -0.005
N  N60  1  0.31647905  0.16594094  0.92383206  1  -0.155687  -0.011214  3.341152  -0.007  -0.73417  -0.007037  -0.137807  -0.007858  3.661019  -0.006  -0.156892  -0.008044  3.675614  -0.006  -0.266262  -0.126311  -0.00689  3.651778  -0.005
N  N61  1  0.42950655  0.76244703  0.89015879  1  -0.153846  -0.002639  3.461693  -0.002  -0.858213  -0.001926  -0.091612  -0.001841  3.707631  -0.002  -0.10269  -0.001384  3.725719  -0.001  -0.280627  -0.084247  -0.002246  3.695977  -0.002
N  N62  1  0.57049236  0.23755544  0.10984142  1  -0.153839  -0.002658  3.461796  -0.002  -0.858044  -0.001926  -0.091649  -0.001841  3.707688  -0.002  -0.102732  -0.001384  3.725778  -0.001  -0.280628  -0.084291  -0.002246  3.696049  -0.002
N  N63  1  0.40254298  0.83365661  0.99526216  1  -0.156711  -0.013746  3.327323  -0.009  -0.741904  -0.008128  -0.133384  -0.008886  3.639726  -0.007  -0.154114  -0.009047  3.657088  -0.007  -0.265818  -0.120808  -0.007921  3.628778  -0.006
N  N64  1  0.59745551  0.16634708  0.00473886  1  -0.156716  -0.013768  3.32735  -0.009  -0.741876  -0.008126  -0.133318  -0.008884  3.63968  -0.007  -0.154036  -0.009048  3.657034  -0.007  -0.265835  -0.120736  -0.007921  3.628723  -0.006
N  N65  1  0.65452625  0.73159214  0.18360714  1  -0.15215  -0.003272  3.488734  -0.003  -0.857708  -0.002259  -0.090135  -0.002193  3.731773  -0.002  -0.100138  -0.001489  3.748963  -0.001  -0.28091  -0.083777  -0.00268  3.720935  -0.002
N  N66  1  0.34547111  0.26840780  0.81639378  1  -0.152096  -0.003259  3.488737  -0.003  -0.857714  -0.002261  -0.090107  -0.002196  3.731839  -0.002  -0.100128  -0.001489  3.749019  -0.001  -0.2809  -0.083754  -0.00268  3.720994  -0.002
N  N67  1  0.70192763  0.98810616  0.36370346  1  -0.648794  -2e-05  3.085517  0.0  -1.232531  1.7e-05  -0.621975  -2.3e-05  3.314596  0.0  -0.640381  -1.6e-05  3.316597  0.0  -0.599499  -0.608339  2.3e-05  3.312011  0.0
N  N68  1  0.29807511  0.01189259  0.63629652  1  -0.648813  -1.8e-05  3.085512  0.0  -1.232539  1.6e-05  -0.622023  -2.3e-05  3.314571  0.0  -0.640425  -1.5e-05  3.316568  0.0  -0.599543  -0.608395  2.2e-05  3.311989  0.0
O  O69  1  0.32943719  0.20264610  0.32018287  1  -0.650619  0.000381  2.058026  0.001  -1.230759  0.001862  -0.584684  0.000725  2.281848  0.001  -0.610252  0.000428  2.270836  0.001  -0.315527  -0.566527  0.001107  2.288201  0.002
O  O70  1  0.67056195  0.79735894  0.67981416  1  -0.650617  0.000382  2.058039  0.001  -1.230714  0.001862  -0.584676  0.000726  2.281885  0.001  -0.610249  0.000428  2.270881  0.001  -0.315512  -0.566511  0.001107  2.288235  0.002
O  O71  1  0.31069213  0.02812132  0.20441512  1  -0.611681  0.015626  2.021799  0.026  -1.202418  0.030519  -0.570191  0.015436  2.281749  0.024  -0.596103  0.012164  2.269388  0.019  -0.304764  -0.551241  0.019585  2.289476  0.031
O  O72  1  0.68930883  0.97187874  0.79558230  1  -0.611655  0.015628  2.021851  0.026  -1.202397  0.030516  -0.570125  0.015434  2.281777  0.024  -0.596036  0.012163  2.269418  0.019  -0.304764  -0.551169  0.019583  2.289503  0.031
O  O73  1  0.75856261  0.56246939  0.54182486  1  -0.566564  -5e-05  2.146656  0.0  -1.226386  -5.1e-05  -0.511706  -5.3e-05  2.378075  0.0  -0.533791  -3.8e-05  2.359344  0.0  -0.329688  -0.495713  -6.1e-05  2.387866  0.0
O  O74  1  0.24143514  0.43752936  0.45817435  1  -0.566587  -4.5e-05  2.146658  0.0  -1.226478  -5e-05  -0.511703  -5.3e-05  2.37809  0.0  -0.533787  -3.7e-05  2.359347  0.0  -0.329677  -0.495715  -6.1e-05  2.387877  0.0
O  O75  1  0.56522450  0.43749194  0.66155317  1  -0.578088  6.5e-05  1.954548  0.0  -1.199241  6e-05  -0.53458  4.5e-05  2.182465  0.0  -0.55496  3e-05  2.174684  0.0  -0.293844  -0.520766  4.1e-05  2.188073  0.0
O  O76  1  0.43477283  0.56250437  0.33844377  1  -0.578174  6.7e-05  1.954452  0.0  -1.199225  5.9e-05  -0.534647  4.4e-05  2.182344  0.0  -0.555027  2.9e-05  2.174556  0.0  -0.293894  -0.520834  4.1e-05  2.187953  0.0
