# generated using pymatgen
data_CsH10C7NO2
_symmetry_space_group_name_H-M   'P 1'
_cell_length_a   7.15239782
_cell_length_b   10.74715173
_cell_length_c   12.14407650
_cell_angle_alpha   90.00009660
_cell_angle_beta   90.00014540
_cell_angle_gamma   92.35713981
_symmetry_Int_Tables_number   1
_chemical_formula_structural   CsH10C7NO2
_chemical_formula_sum   'Cs4 H40 C28 N4 O8'
_cell_volume   932.69986549
_cell_formula_units_Z   4
loop_
 _symmetry_equiv_pos_site_id
 _symmetry_equiv_pos_as_xyz
  1  'x, y, z'
loop_
 _atom_site_type_symbol
 _atom_site_label
 _atom_site_symmetry_multiplicity
 _atom_site_fract_x
 _atom_site_fract_y
 _atom_site_fract_z
 _atom_site_occupancy
 _atom_site_hle17_bader_spin_density
 _atom_site_hle17_ddec_charge
 _atom_site_hle17_ddec_spin_density
 _atom_site_hle17_ddec_sum_bond_order
 _atom_site_hle17_magmom
 _atom_site_hse06_10hf_bader_spin_density
 _atom_site_hse06_10hf_ddec_charge
 _atom_site_hse06_10hf_ddec_spin_density
 _atom_site_hse06_10hf_ddec_sum_bond_order
 _atom_site_hse06_10hf_magmom
 _atom_site_hse06_bader_spin_density
 _atom_site_hse06_ddec_charge
 _atom_site_hse06_ddec_spin_density
 _atom_site_hse06_ddec_sum_bond_order
 _atom_site_hse06_magmom
 _atom_site_pbe_bader_spin_density
 _atom_site_pbe_cm5_charge
 _atom_site_pbe_ddec_charge
 _atom_site_pbe_ddec_spin_density
 _atom_site_pbe_ddec_sum_bond_order
 _atom_site_pbe_magmom
Cs  Cs0  1  0.22877079  0.06402733  0.85644492  1  0  0.932797  0  0.654575  0  0  0.859077  0  0.912749  0  0  0.876243  0  0.89101  0  0  0.921942  0.846593  0  0.928001  0
Cs  Cs1  1  0.27122833  0.93597525  0.35644547  1  0  0.932805  0  0.654571  0  0  0.859087  0  0.912734  0  0  0.876256  0  0.890997  0  0  0.921936  0.846602  0  0.927985  0
Cs  Cs2  1  0.77122799  0.93597470  0.14355275  1  0  0.93278  0  0.654594  0  0  0.859065  0  0.912763  0  0  0.876234  0  0.891022  0  0  0.921935  0.846581  0  0.928014  0
Cs  Cs3  1  0.72876900  0.06402584  0.64355467  1  0  0.932799  0  0.65457  0  0  0.859079  0  0.912743  0  0  0.876249  0  0.891006  0  0  0.921931  0.846595  0  0.927997  0
H  H4  1  0.48824971  0.19079310  0.44222022  1  0  0.101075  0  0.982497  0  0  0.110345  0  1.04805  0  0  0.114301  0  1.046999  0  0  0.10171  0.107523  0  1.048965  0
H  H5  1  0.01174788  0.80920127  0.94222130  1  0  0.101098  0  0.982466  0  0  0.110359  0  1.048047  0  0  0.114316  0  1.04699  0  0  0.101705  0.107536  0  1.048957  0
H  H6  1  0.51175153  0.80920334  0.55777827  1  0  0.1011  0  0.982506  0  0  0.110348  0  1.048097  0  0  0.114304  0  1.04704  0  0  0.101715  0.107525  0  1.049008  0
H  H7  1  0.98825038  0.19079237  0.05777967  1  0  0.101057  0  0.982493  0  0  0.110331  0  1.04804  0  0  0.114286  0  1.046994  0  0  0.101704  0.107509  0  1.048957  0
H  H8  1  0.43481736  0.41746143  0.41785291  1  0  0.078968  0  0.948691  0  0  0.095114  0  1.00339  0  0  0.097305  0  1.001681  0  0  0.099622  0.093443  0  1.004653  0
H  H9  1  0.06517995  0.58253009  0.91786443  1  0  0.078856  0  0.948834  0  0  0.095057  0  1.003472  0  0  0.097251  0  1.001761  0  0  0.09961  0.093384  0  1.004741  0
H  H10  1  0.56518074  0.58252942  0.58213734  1  0  0.078839  0  0.948843  0  0  0.095033  0  1.003495  0  0  0.097225  0  1.001783  0  0  0.099608  0.09336  0  1.00476  0
H  H11  1  0.93481814  0.41746075  0.08214723  1  0  0.078996  0  0.94868  0  0  0.095135  0  1.003382  0  0  0.097326  0  1.001673  0  0  0.099632  0.093463  0  1.004645  0
H  H12  1  0.19109217  0.51741042  0.53434170  1  0  0.094615  0  0.97978  0  0  0.106591  0  1.042725  0  0  0.109268  0  1.043608  0  0  0.09449  0.1048  0  1.041982  0
H  H13  1  0.30890792  0.48258499  0.03435644  1  0  0.094655  0  0.979826  0  0  0.10663  0  1.042754  0  0  0.10931  0  1.043638  0  0  0.094508  0.104843  0  1.042006  0
H  H14  1  0.80890918  0.48258788  0.46564280  1  0  0.09466  0  0.97983  0  0  0.106637  0  1.042752  0  0  0.109316  0  1.043632  0  0  0.094509  0.104852  0  1.042005  0
H  H15  1  0.69109315  0.51740865  0.96565770  1  0  0.09465  0  0.979773  0  0  0.106612  0  1.042725  0  0  0.10929  0  1.043603  0  0  0.094509  0.104823  0  1.041986  0
H  H16  1  0.82648109  0.36861807  0.66089018  1  0  0.102039  0  0.952285  0  0  0.124715  0  1.015081  0  0  0.126189  0  1.014766  0  0  0.093246  0.123642  0  1.015285  0
H  H17  1  0.67352168  0.63138437  0.16090000  1  0  0.102044  0  0.952278  0  0  0.124721  0  1.015092  0  0  0.126199  0  1.01477  0  0  0.093287  0.123646  0  1.015295  0
H  H18  1  0.17351909  0.63138395  0.33910008  1  0  0.10201  0  0.952159  0  0  0.124674  0  1.01499  0  0  0.126148  0  1.014673  0  0  0.093241  0.1236  0  1.015192  0
H  H19  1  0.32647996  0.36861859  0.83911002  1  0  0.102026  0  0.952274  0  0  0.124709  0  1.015069  0  0  0.126185  0  1.014752  0  0  0.093249  0.123636  0  1.015272  0
H  H20  1  0.97495813  0.50092996  0.68711058  1  0  0.106774  0  0.963544  0  0  0.129396  0  1.023891  0  0  0.130654  0  1.023795  0  0  0.089818  0.128126  0  1.024405  0
H  H21  1  0.52504347  0.49907439  0.18712162  1  0  0.106504  0  0.96368  0  0  0.129215  0  1.023971  0  0  0.13048  0  1.023867  0  0  0.089706  0.127939  0  1.02449  0
H  H22  1  0.02504217  0.49907393  0.31287721  1  0  0.106609  0  0.963671  0  0  0.129284  0  1.023988  0  0  0.130549  0  1.023886  0  0  0.089764  0.128013  0  1.024504  0
H  H23  1  0.47495822  0.50092949  0.81289004  1  0  0.10676  0  0.96355  0  0  0.129379  0  1.023904  0  0  0.130639  0  1.023808  0  0  0.089815  0.128111  0  1.024417  0
H  H24  1  0.97981390  0.36718394  0.77446253  1  0  0.112398  0  0.962514  0  0  0.131331  0  1.028562  0  0  0.132519  0  1.029497  0  0  0.095913  0.130337  0  1.028075  0
H  H25  1  0.52018675  0.63282152  0.27446883  1  0  0.112368  0  0.962542  0  0  0.131301  0  1.028606  0  0  0.132461  0  1.029571  0  0  0.095908  0.130302  0  1.028124  0
H  H26  1  0.02018645  0.63282088  0.22552855  1  0  0.112383  0  0.962567  0  0  0.131314  0  1.02862  0  0  0.132484  0  1.029574  0  0  0.095914  0.130315  0  1.02814  0
H  H27  1  0.47981366  0.36718423  0.72553790  1  0  0.112352  0  0.962567  0  0  0.131291  0  1.028612  0  0  0.132473  0  1.029553  0  0  0.095907  0.130295  0  1.028126  0
H  H28  1  0.00467268  0.70798162  0.69503980  1  0  0.060903  0  0.958633  0  0  0.080455  0  1.024758  0  0  0.080524  0  1.024789  0  0  0.092366  0.080003  0  1.025252  0
H  H29  1  0.49532696  0.29201783  0.19504218  1  0  0.060921  0  0.958659  0  0  0.080476  0  1.024782  0  0  0.080544  0  1.024819  0  0  0.092364  0.080028  0  1.025268  0
H  H30  1  0.99532605  0.29201947  0.30495869  1  0  0.060894  0  0.958642  0  0  0.080438  0  1.024783  0  0  0.080506  0  1.024819  0  0  0.092354  0.079989  0  1.02527  0
H  H31  1  0.50467305  0.70798139  0.80495961  1  0  0.060905  0  0.958641  0  0  0.080459  0  1.024762  0  0  0.080528  0  1.024794  0  0  0.092357  0.080007  0  1.025255  0
H  H32  1  0.24622780  0.75641648  0.70057934  1  0  0.057707  0  0.94886  0  0  0.076682  0  1.013674  0  0  0.077324  0  1.013332  0  0  0.091782  0.076187  0  1.013822  0
H  H33  1  0.25377047  0.24358299  0.20058047  1  0  0.057761  0  0.948796  0  0  0.076775  0  1.013582  0  0  0.077421  0  1.013235  0  0  0.091813  0.076278  0  1.013734  0
H  H34  1  0.75377227  0.24358368  0.29942080  1  0  0.057722  0  0.948841  0  0  0.076729  0  1.013625  0  0  0.077373  0  1.013281  0  0  0.091786  0.076231  0  1.013776  0
H  H35  1  0.74622960  0.75641717  0.79942050  1  0  0.057743  0  0.948791  0  0  0.076727  0  1.013602  0  0  0.077372  0  1.013257  0  0  0.091812  0.076232  0  1.013751  0
H  H36  1  0.12707268  0.74149201  0.57078675  1  0  0.045868  0  0.962307  0  0  0.061354  0  1.03585  0  0  0.061643  0  1.036537  0  0  0.084939  0.061065  0  1.03534  0
H  H37  1  0.37292378  0.25850999  0.07078725  1  0  0.045908  0  0.962295  0  0  0.061386  0  1.035855  0  0  0.061672  0  1.036547  0  0  0.084944  0.061098  0  1.035346  0
H  H38  1  0.87292616  0.25851094  0.42921422  1  0  0.045867  0  0.962281  0  0  0.061339  0  1.035859  0  0  0.061625  0  1.036546  0  0  0.084932  0.06105  0  1.035349  0
H  H39  1  0.62707483  0.74148924  0.92921454  1  0  0.045881  0  0.962249  0  0  0.061357  0  1.035823  0  0  0.061643  0  1.036512  0  0  0.084934  0.061069  0  1.035313  0
H  H40  1  0.15215939  0.95436825  0.63373860  1  0  0.354819  0  0.966353  0  0  0.329478  0  1.039961  0  0  0.341114  0  1.023164  0  0  0.277163  0.321171  0  1.050268  0
H  H41  1  0.34783723  0.04563201  0.13373710  1  0  0.354811  0  0.966338  0  0  0.329469  0  1.03996  0  0  0.341108  0  1.023159  0  0  0.277169  0.321164  0  1.050247  0
H  H42  1  0.84783933  0.04563284  0.36626236  1  0  0.354785  0  0.966388  0  0  0.329442  0  1.04001  0  0  0.341081  0  1.02321  0  0  0.277148  0.321136  0  1.050304  0
H  H43  1  0.65216138  0.95436722  0.86626304  1  0  0.354793  0  0.966418  0  0  0.329463  0  1.039983  0  0  0.341098  0  1.023189  0  0  0.277171  0.321158  0  1.050294  0
C  C44  1  0.27553379  0.16613108  0.56987405  1  0  0.511498  0  3.977749  0  0  0.486948  0  4.246623  0  0  0.510809  0  4.25285  0  0  0.149552  0.470996  0  4.241932  0
C  C45  1  0.22446669  0.83386812  0.06987354  1  0  0.511467  0  3.977931  0  0  0.486903  0  4.246819  0  0  0.510768  0  4.253041  0  0  0.149539  0.47095  0  4.242126  0
C  C46  1  0.72446616  0.83386722  0.43012527  1  0  0.511419  0  3.977891  0  0  0.486866  0  4.24677  0  0  0.510735  0  4.25298  0  0  0.1495  0.470912  0  4.242077  0
C  C47  1  0.77553612  0.16613110  0.93012577  1  0  0.511472  0  3.97779  0  0  0.486904  0  4.246695  0  0  0.510779  0  4.252902  0  0  0.149534  0.470951  0  4.242002  0
C  C48  1  0.38392440  0.23718223  0.49131489  1  0  -0.308824  0  3.774317  0  0  -0.32359  0  4.027217  0  0  -0.336675  0  4.04768  0  0  -0.140403  -0.315093  0  4.013467  0
C  C49  1  0.11608051  0.76281410  0.99131935  1  0  -0.308855  0  3.774485  0  0  -0.323606  0  4.027374  0  0  -0.336703  0  4.047862  0  0  -0.140381  -0.315104  0  4.013625  0
C  C50  1  0.61608237  0.76281327  0.50868278  1  0  -0.308904  0  3.774603  0  0  -0.32365  0  4.027506  0  0  -0.336752  0  4.047999  0  0  -0.140423  -0.315152  0  4.013757  0
C  C51  1  0.88392626  0.23718140  0.00868491  1  0  -0.308788  0  3.774259  0  0  -0.323552  0  4.027173  0  0  -0.336637  0  4.047621  0  0  -0.140394  -0.315055  0  4.013424  0
C  C52  1  0.35301005  0.36249168  0.47776185  1  0  0.010335  0  3.834279  0  0  -0.005286  0  4.082562  0  0  0.001842  0  4.101315  0  0  -0.083583  -0.009466  0  4.069447  0
C  C53  1  0.14699061  0.63750462  0.97776699  1  0  0.010535  0  3.834268  0  0  -0.005119  0  4.082525  0  0  0.002008  0  4.101277  0  0  -0.083582  -0.009301  0  4.069416  0
C  C54  1  0.64699275  0.63750755  0.52223252  1  0  0.010636  0  3.834333  0  0  -0.005013  0  4.082588  0  0  0.002119  0  4.101331  0  0  -0.08353  -0.009194  0  4.069478  0
C  C55  1  0.85301203  0.36249181  0.02223891  1  0  0.010287  0  3.834187  0  0  -0.005326  0  4.082474  0  0  0.001803  0  4.101227  0  0  -0.083618  -0.009505  0  4.06936  0
C  C56  1  0.21770298  0.41877167  0.54231837  1  0  -0.2515  0  3.773526  0  0  -0.269484  0  4.019741  0  0  -0.282051  0  4.043955  0  0  -0.124862  -0.261208  0  4.003021  0
C  C57  1  0.28229738  0.58122748  0.04232993  1  0  -0.251605  0  3.773543  0  0  -0.269585  0  4.01977  0  0  -0.282153  0  4.04398  0  0  -0.124834  -0.261311  0  4.00305  0
C  C58  1  0.78230123  0.58122756  0.45767106  1  0  -0.251672  0  3.773559  0  0  -0.269642  0  4.019801  0  0  -0.28221  0  4.044009  0  0  -0.124838  -0.261369  0  4.003082  0
C  C59  1  0.71770531  0.41876988  0.95768010  1  0  -0.251559  0  3.773546  0  0  -0.269536  0  4.019747  0  0  -0.282106  0  4.043966  0  0  -0.124868  -0.261264  0  4.003025  0
C  C60  1  0.11560715  0.34481108  0.61741246  1  0  0.314801  0  3.818381  0  0  0.330194  0  4.057519  0  0  0.34132  0  4.076927  0  0  0.104108  0.322861  0  4.044163  0
C  C61  1  0.38439237  0.65519195  0.11741687  1  0  0.31477  0  3.81828  0  0  0.330135  0  4.057482  0  0  0.341263  0  4.076885  0  0  0.104023  0.322803  0  4.044123  0
C  C62  1  0.88439035  0.65519281  0.38257944  1  0  0.314792  0  3.818188  0  0  0.330122  0  4.05744  0  0  0.341249  0  4.076845  0  0  0.103994  0.322789  0  4.044085  0
C  C63  1  0.61561061  0.34481007  0.88258739  1  0  0.314773  0  3.818365  0  0  0.330208  0  4.05744  0  0  0.341335  0  4.07685  0  0  0.104054  0.322875  0  4.044086  0
C  C64  1  0.96761964  0.39888081  0.68888091  1  0  -0.366938  0  3.721901  0  0  -0.449671  0  3.953672  0  0  -0.452611  0  3.960981  0  0  -0.240279  -0.4471  0  3.948669  0
C  C65  1  0.53237918  0.60112354  0.18888800  1  0  -0.366621  0  3.721833  0  0  -0.449436  0  3.953614  0  0  -0.452357  0  3.960942  0  0  -0.240198  -0.446858  0  3.948615  0
C  C66  1  0.03237646  0.60112308  0.31111100  1  0  -0.366685  0  3.721778  0  0  -0.449432  0  3.953568  0  0  -0.45236  0  3.960894  0  0  -0.240189  -0.446858  0  3.948565  0
C  C67  1  0.46761838  0.39888127  0.81111873  1  0  -0.366845  0  3.72184  0  0  -0.449598  0  3.953602  0  0  -0.452534  0  3.960916  0  0  -0.240246  -0.447028  0  3.948599  0
C  C68  1  0.11251172  0.77034037  0.65762169  1  0  -0.001258  0  3.734958  0  0  -0.08727  0  4.001243  0  0  -0.081432  0  4.007046  0  0  -0.15192  -0.090848  0  3.99696  0
C  C69  1  0.38748652  0.22966181  0.15762299  1  0  -0.001395  0  3.734967  0  0  -0.087453  0  4.001255  0  0  -0.081617  0  4.007064  0  0  -0.151951  -0.091032  0  3.996973  0
C  C70  1  0.88748718  0.22966352  0.34237846  1  0  -0.001247  0  3.734959  0  0  -0.087283  0  4.001234  0  0  -0.081445  0  4.007039  0  0  -0.15189  -0.090865  0  3.996961  0
C  C71  1  0.61251081  0.77033928  0.84237880  1  0  -0.001317  0  3.734882  0  0  -0.08735  0  4.00119  0  0  -0.081509  0  4.00699  0  0  -0.151923  -0.090927  0  3.996905  0
N  N72  1  0.14191731  0.22196308  0.63064271  1  0  -0.588875  0  3.068211  0  0  -0.54554  0  3.32898  0  0  -0.564739  0  3.340889  0  0  -0.46774  -0.532758  0  3.321043  0
N  N73  1  0.35808501  0.77803904  0.13064479  1  0  -0.588873  0  3.068306  0  0  -0.545527  0  3.329086  0  0  -0.564725  0  3.34099  0  0  -0.467704  -0.532744  0  3.321144  0
N  N74  1  0.85808567  0.77803894  0.36935249  1  0  -0.588862  0  3.068211  0  0  -0.545503  0  3.329005  0  0  -0.564703  0  3.340907  0  0  -0.467672  -0.53272  0  3.321067  0
N  N75  1  0.64191645  0.22196112  0.86935700  1  0  -0.588859  0  3.068205  0  0  -0.545535  0  3.328971  0  0  -0.56474  0  3.340877  0  0  -0.467723  -0.532753  0  3.321033  0
O  O76  1  0.30516921  0.04855771  0.58546594  1  0  -0.756011  0  2.0526  0  0  -0.69308  0  2.282027  0  0  -0.717885  0  2.274273  0  0  -0.524052  -0.675349  0  2.286307  0
O  O77  1  0.19482860  0.95144246  0.08546310  1  0  -0.755968  0  2.052579  0  0  -0.693032  0  2.282024  0  0  -0.717837  0  2.27426  0  0  -0.524039  -0.675304  0  2.286299  0
O  O78  1  0.69483226  0.95144245  0.41453584  1  0  -0.755969  0  2.052625  0  0  -0.693032  0  2.282056  0  0  -0.717844  0  2.274305  0  0  -0.524044  -0.675301  0  2.286332  0
O  O79  1  0.80517147  0.04855770  0.91453374  1  0  -0.755959  0  2.052622  0  0  -0.693025  0  2.282053  0  0  -0.717833  0  2.27429  0  0  -0.52402  -0.675296  0  2.286333  0
O  O80  1  0.05391852  0.89440542  0.66759450  1  0  -0.611188  0  2.142227  0  0  -0.54776  0  2.37795  0  0  -0.565664  0  2.365552  0  0  -0.563798  -0.534922  0  2.384892  0
O  O81  1  0.44607686  0.10559491  0.16759488  1  0  -0.611162  0  2.142238  0  0  -0.547732  0  2.377996  0  0  -0.565639  0  2.3656  0  0  -0.563824  -0.534895  0  2.384918  0
O  O82  1  0.94607887  0.10559660  0.33240482  1  0  -0.611183  0  2.142278  0  0  -0.547753  0  2.378024  0  0  -0.565661  0  2.365625  0  0  -0.563811  -0.534915  0  2.384953  0
O  O83  1  0.55391762  0.89440525  0.83240856  1  0  -0.611167  0  2.142259  0  0  -0.547736  0  2.377979  0  0  -0.565642  0  2.365576  0  0  -0.563834  -0.5349  0  2.384925  0
