# generated using pymatgen
data_CdH28C20(N5O4)2
_symmetry_space_group_name_H-M   'P 1'
_cell_length_a   8.65440419
_cell_length_b   8.81065040
_cell_length_c   10.47986014
_cell_angle_alpha   84.61811708
_cell_angle_beta   68.26259658
_cell_angle_gamma   62.48685038
_symmetry_Int_Tables_number   1
_chemical_formula_structural   CdH28C20(N5O4)2
_chemical_formula_sum   'Cd1 H28 C20 N10 O8'
_cell_volume   655.42439087
_cell_formula_units_Z   1
loop_
 _symmetry_equiv_pos_site_id
 _symmetry_equiv_pos_as_xyz
  1  'x, y, z'
loop_
 _atom_site_type_symbol
 _atom_site_label
 _atom_site_symmetry_multiplicity
 _atom_site_fract_x
 _atom_site_fract_y
 _atom_site_fract_z
 _atom_site_occupancy
 _atom_site_hle17_bader_spin_density
 _atom_site_hle17_ddec_charge
 _atom_site_hle17_ddec_spin_density
 _atom_site_hle17_ddec_sum_bond_order
 _atom_site_hle17_magmom
 _atom_site_hse06_10hf_bader_spin_density
 _atom_site_hse06_10hf_ddec_charge
 _atom_site_hse06_10hf_ddec_spin_density
 _atom_site_hse06_10hf_ddec_sum_bond_order
 _atom_site_hse06_10hf_magmom
 _atom_site_hse06_bader_spin_density
 _atom_site_hse06_ddec_charge
 _atom_site_hse06_ddec_spin_density
 _atom_site_hse06_ddec_sum_bond_order
 _atom_site_hse06_magmom
 _atom_site_pbe_bader_spin_density
 _atom_site_pbe_cm5_charge
 _atom_site_pbe_ddec_charge
 _atom_site_pbe_ddec_spin_density
 _atom_site_pbe_ddec_sum_bond_order
 _atom_site_pbe_magmom
Cd  Cd0  1  0.00000000  0.00000000  0.00000000  1  0  1.053066  0  1.790885  0  0  0.852671  0  2.237945  0  0  0.901721  0  2.196256  0  0  0.794756  0.817425  0  2.267229  0
H  H1  1  0.49691936  0.18146475  0.48579187  1  0  0.049661  0  0.926954  0  0  0.062667  0  0.994089  0  0  0.063143  0  0.994104  0  0  0.097229  0.062374  0  0.993873  0
H  H2  1  0.50308073  0.81853418  0.51420816  1  0  0.049657  0  0.92695  0  0  0.062668  0  0.994096  0  0  0.063143  0  0.994111  0  0  0.097238  0.062375  0  0.99388  0
H  H3  1  0.47724371  0.39029628  0.45018417  1  0  0.056168  0  0.932414  0  0  0.069236  0  0.998702  0  0  0.069958  0  0.998354  0  0  0.098103  0.068619  0  0.999115  0
H  H4  1  0.52275573  0.60970393  0.54981691  1  0  0.056167  0  0.932455  0  0  0.069258  0  0.99873  0  0  0.06998  0  0.998381  0  0  0.098121  0.068641  0  0.999143  0
H  H5  1  0.12567930  0.51464713  0.60084840  1  0  0.095382  0  0.931121  0  0  0.106317  0  0.99961  0  0  0.108103  0  0.997529  0  0  0.112193  0.104825  0  1.001351  0
H  H6  1  0.87432079  0.48535179  0.39915163  1  0  0.095387  0  0.931082  0  0  0.106327  0  0.99958  0  0  0.108112  0  0.997501  0  0  0.112201  0.104835  0  1.001322  0
H  H7  1  0.19771216  0.39198145  0.44410489  1  0  0.087771  0  0.939194  0  0  0.102889  0  1.004532  0  0  0.103112  0  1.00519  0  0  0.115683  0.102658  0  1.00413  0
H  H8  1  0.80228852  0.60801876  0.55589390  1  0  0.087743  0  0.939181  0  0  0.10287  0  1.004525  0  0  0.103093  0  1.005183  0  0  0.115676  0.102639  0  1.004122  0
H  H9  1  0.10929217  0.32391031  0.82926649  1  0  0.109763  0  0.958362  0  0  0.108939  0  1.039221  0  0  0.113039  0  1.032967  0  0  0.132873  0.105355  0  1.0447  0
H  H10  1  0.89070726  0.67608989  0.17073268  1  0  0.109785  0  0.958379  0  0  0.108965  0  1.039226  0  0  0.113064  0  1.032973  0  0  0.132887  0.105381  0  1.044705  0
H  H11  1  0.13289433  0.14806657  0.45640818  1  0  0.123026  0  1.000538  0  0  0.130573  0  1.067433  0  0  0.134338  0  1.063813  0  0  0.117226  0.127355  0  1.070858  0
H  H12  1  0.86710575  0.85193234  0.54359090  1  0  0.123025  0  1.000542  0  0  0.130593  0  1.067406  0  0  0.134359  0  1.063784  0  0  0.117237  0.127375  0  1.070833  0
H  H13  1  0.03135701  0.95375862  0.66850429  1  0  0.103908  0  0.96514  0  0  0.110432  0  1.030186  0  0  0.113234  0  1.028661  0  0  0.112955  0.108318  0  1.031504  0
H  H14  1  0.96864307  0.04624030  0.33149575  1  0  0.103862  0  0.965179  0  0  0.110403  0  1.030208  0  0  0.113215  0  1.028671  0  0  0.112945  0.108289  0  1.031525  0
H  H15  1  0.19131409  0.55587564  0.92929469  1  0  0.107685  0  0.96886  0  0  0.113286  0  1.040915  0  0  0.115721  0  1.037345  0  0  0.133355  0.111361  0  1.043722  0
H  H16  1  0.80868783  0.44412457  0.07070467  1  0  0.107642  0  0.968902  0  0  0.113282  0  1.040908  0  0  0.115716  0  1.037337  0  0  0.133337  0.111356  0  1.043716  0
H  H17  1  0.73787103  0.51280779  0.78074393  1  0  0.114908  0  0.969651  0  0  0.119804  0  1.041247  0  0  0.122772  0  1.039249  0  0  0.118572  0.117593  0  1.042835  0
H  H18  1  0.26212776  0.48719371  0.21925820  1  0  0.114889  0  0.969662  0  0  0.119782  0  1.041264  0  0  0.12275  0  1.039266  0  0  0.118571  0.117571  0  1.042851  0
H  H19  1  0.47505814  0.85747151  0.84397168  1  0  0.108385  0  0.944732  0  0  0.118552  0  1.002267  0  0  0.121114  0  1.001026  0  0  0.116293  0.116639  0  1.003261  0
H  H20  1  0.52494130  0.14252870  0.15602940  1  0  0.108366  0  0.944731  0  0  0.118531  0  1.002277  0  0  0.121092  0  1.001035  0  0  0.116276  0.116617  0  1.003272  0
H  H21  1  0.46342814  0.25637681  0.89009375  1  0  0.097757  0  0.912298  0  0  0.111679  0  0.973053  0  0  0.11227  0  0.973135  0  0  0.118383  0.11112  0  0.973199  0
H  H22  1  0.53657254  0.74362340  0.10990695  1  0  0.097762  0  0.912327  0  0  0.111669  0  0.973075  0  0  0.112262  0  0.973155  0  0  0.118359  0.111111  0  0.973222  0
H  H23  1  0.69566677  0.22879395  0.83431426  1  0  0.097311  0  0.948535  0  0  0.108872  0  1.015881  0  0  0.109288  0  1.016619  0  0  0.114099  0.108473  0  1.015406  0
H  H24  1  0.30433515  0.77120626  0.16568415  1  0  0.097318  0  0.948558  0  0  0.108865  0  1.015891  0  0  0.109282  0  1.016628  0  0  0.1141  0.108467  0  1.015416  0
H  H25  1  0.69434523  0.29360838  0.59514238  1  0  0.041086  0  0.927259  0  0  0.055728  0  0.994557  0  0  0.056  0  0.99475  0  0  0.092933  0.055141  0  0.994883  0
H  H26  1  0.30565231  0.70639311  0.40485632  1  0  0.041107  0  0.927232  0  0  0.055725  0  0.994554  0  0  0.056001  0  0.994746  0  0  0.092916  0.055139  0  0.994877  0
H  H27  1  0.65192274  0.11354532  0.65168704  1  0  0.051787  0  0.941217  0  0  0.067635  0  1.006295  0  0  0.067927  0  1.00569  0  0  0.099762  0.067186  0  1.007024  0
H  H28  1  0.34807923  0.88645232  0.34831251  1  0  0.051759  0  0.941236  0  0  0.067644  0  1.006273  0  0  0.067937  0  1.005665  0  0  0.099762  0.06718  0  1.007014  0
C  C29  1  0.41483907  0.31864526  0.52581706  1  0  0.069341  0  3.668673  0  0  0.009257  0  3.945476  0  0  0.015411  0  3.951953  0  0  -0.069452  0.005339  0  3.940635  0
C  C30  1  0.58516101  0.68135367  0.47418297  1  0  0.069351  0  3.668679  0  0  0.009208  0  3.945562  0  0  0.015364  0  3.952038  0  0  -0.069494  0.005295  0  3.940723  0
C  C31  1  0.21064378  0.38570774  0.54474426  1  0  -0.039754  0  3.632624  0  0  -0.106594  0  3.893941  0  0  -0.103035  0  3.904284  0  0  -0.056141  -0.108669  0  3.886655  0
C  C32  1  0.78935441  0.61429247  0.45525625  1  0  -0.039731  0  3.632526  0  0  -0.106594  0  3.893896  0  0  -0.103035  0  3.904238  0  0  -0.056136  -0.108668  0  3.886609  0
C  C33  1  0.10174103  0.24772555  0.75831235  1  0  0.167023  0  3.631947  0  0  0.104538  0  3.90174  0  0  0.119252  0  3.911871  0  0  0.139047  0.094907  0  3.895329  0
C  C34  1  0.89825781  0.75227337  0.24168806  1  0  0.16697  0  3.631965  0  0  0.104487  0  3.901752  0  0  0.1192  0  3.911882  0  0  0.139014  0.094857  0  3.89534  0
C  C35  1  0.11401512  0.15190729  0.56454621  1  0  -0.099767  0  3.69579  0  0  -0.138952  0  3.9508  0  0  -0.138051  0  3.969373  0  0  -0.012024  -0.139048  0  3.938427  0
C  C36  1  0.88598496  0.84809163  0.43545287  1  0  -0.099784  0  3.695816  0  0  -0.138993  0  3.950827  0  0  -0.138092  0  3.969402  0  0  -0.012045  -0.13909  0  3.938457  0
C  C37  1  0.06518712  0.05774090  0.66966802  1  0  -0.008854  0  3.781949  0  0  -0.040311  0  4.048572  0  0  -0.038544  0  4.069096  0  0  -0.012801  -0.041333  0  4.034245  0
C  C38  1  0.93481297  0.94225802  0.33033201  1  0  -0.008828  0  3.781984  0  0  -0.040296  0  4.048615  0  0  -0.03854  0  4.069135  0  0  -0.01279  -0.041319  0  4.034289  0
C  C39  1  0.30141629  0.59442447  0.89713980  1  0  0.167363  0  3.648712  0  0  0.100412  0  3.922375  0  0  0.115201  0  3.934469  0  0  0.137218  0.090873  0  3.913957  0
C  C40  1  0.69858250  0.40557702  0.10286042  1  0  0.167313  0  3.648745  0  0  0.100336  0  3.922407  0  0  0.115125  0  3.934502  0  0  0.137201  0.090798  0  3.913987  0
C  C41  1  0.58624540  0.57420528  0.81681608  1  0  -0.075684  0  3.682252  0  0  -0.116855  0  3.949715  0  0  -0.11542  0  3.968644  0  0  -0.005572  -0.117747  0  3.937138  0
C  C42  1  0.41375463  0.42579621  0.18318376  1  0  -0.075627  0  3.682218  0  0  -0.116791  0  3.949673  0  0  -0.115356  0  3.968601  0  0  -0.005542  -0.117684  0  3.937095  0
C  C43  1  0.45463826  0.74421059  0.84989397  1  0  0.002907  0  3.756201  0  0  -0.031532  0  4.024834  0  0  -0.029474  0  4.04543  0  0  -0.008258  -0.032785  0  4.010566  0
C  C44  1  0.54536242  0.25578962  0.15010673  1  0  0.002931  0  3.756139  0  0  -0.031506  0  4.024766  0  0  -0.029448  0  4.045364  0  0  -0.008225  -0.032759  0  4.0105  0
C  C45  1  0.56347323  0.29683772  0.81736355  1  0  -0.039499  0  3.634733  0  0  -0.10321  0  3.891832  0  0  -0.099844  0  3.902815  0  0  -0.055674  -0.105282  0  3.884365  0
C  C46  1  0.43652620  0.70316249  0.18263657  1  0  -0.039542  0  3.63482  0  0  -0.103192  0  3.891827  0  0  -0.099827  0  3.902814  0  0  -0.055664  -0.105266  0  3.884361  0
C  C47  1  0.59362340  0.25383839  0.67037805  1  0  0.075336  0  3.669093  0  0  0.013194  0  3.943083  0  0  0.019733  0  3.949792  0  0  -0.069956  0.008863  0  3.938682  0
C  C48  1  0.40637669  0.74616054  0.32962293  1  0  0.07537  0  3.669048  0  0  0.01321  0  3.942963  0  0  0.019743  0  3.949679  0  0  -0.069934  0.008897  0  3.938562  0
N  N49  1  0.13657715  0.27177532  0.62222243  1  0  -0.056344  0  3.556956  0  0  0.040403  0  3.7719  0  0  0.025716  0  3.798182  0  0  -0.246039  0.049985  0  3.753884  0
N  N50  1  0.86342228  0.72822489  0.37777770  1  0  -0.05633  0  3.556925  0  0  0.040428  0  3.771886  0  0  0.025742  0  3.798166  0  0  -0.246041  0.050009  0  3.753871  0
N  N51  1  0.05767901  0.11906341  0.78965558  1  0  -0.391753  0  3.257719  0  0  -0.317254  0  3.539294  0  0  -0.337839  0  3.557157  0  0  -0.360855  -0.302864  0  3.526666  0
N  N52  1  0.94231918  0.88093680  0.21034493  1  0  -0.391704  0  3.257702  0  0  -0.317203  0  3.539269  0  0  -0.33779  0  3.557139  0  0  -0.360817  -0.302813  0  3.52664  0
N  N53  1  0.85396736  0.77658305  0.86386898  1  0  0.692836  0  4.164768  0  0  0.727375  0  4.455475  0  0  0.755347  0  4.460954  0  0  0.098727  0.708545  0  4.45103  0
N  N54  1  0.14603267  0.22341845  0.13613086  1  0  0.692899  0  4.164677  0  0  0.727447  0  4.455366  0  0  0.755418  0  4.46085  0  0  0.098764  0.708616  0  4.450921  0
N  N55  1  0.48669430  0.48130983  0.84742634  1  0  -0.057604  0  3.579191  0  0  0.036412  0  3.796471  0  0  0.021801  0  3.822812  0  0  -0.24583  0.046021  0  3.778648  0
N  N56  1  0.51330514  0.51869038  0.15257474  1  0  -0.057573  0  3.57928  0  0  0.036416  0  3.796556  0  0  0.021806  0  3.822897  0  0  -0.245841  0.046027  0  3.778733  0
N  N57  1  0.27762098  0.75485672  0.90017430  1  0  -0.396548  0  3.26136  0  0  -0.317655  0  3.543813  0  0  -0.339368  0  3.56242  0  0  -0.36567  -0.302796  0  3.53054  0
N  N58  1  0.72238035  0.24514221  0.09982630  1  0  -0.39651  0  3.261332  0  0  -0.317614  0  3.543788  0  0  -0.339327  0  3.562395  0  0  -0.365648  -0.302755  0  3.530515  0
O  O59  1  0.41533977  0.34209837  0.65804750  1  0  -0.316141  0  2.292882  0  0  -0.24332  0  2.549539  0  0  -0.259568  0  2.551872  0  0  -0.23063  -0.232039  0  2.547599  0
O  O60  1  0.58466037  0.65789798  0.34195368  1  0  -0.316168  0  2.292825  0  0  -0.243313  0  2.549478  0  0  -0.25956  0  2.551813  0  0  -0.23063  -0.232044  0  2.547541  0
O  O61  1  0.80800069  0.92487788  0.91476942  1  0  -0.512267  0  1.790042  0  0  -0.490549  0  2.027944  0  0  -0.506628  0  2.01798  0  0  -0.218173  -0.478821  0  2.034413  0
O  O62  1  0.19199875  0.07512232  0.08523071  1  0  -0.512276  0  1.789956  0  0  -0.490557  0  2.027851  0  0  -0.506637  0  2.017889  0  0  -0.218179  -0.478828  0  2.034321  0
O  O63  1  0.85657390  0.76152102  0.74380920  1  0  -0.489485  0  1.740018  0  0  -0.483055  0  1.957119  0  0  -0.496298  0  1.949289  0  0  -0.206837  -0.4737  0  1.962738  0
O  O64  1  0.14342365  0.23848047  0.25619140  1  0  -0.489488  0  1.740013  0  0  -0.483081  0  1.957131  0  0  -0.49632  0  1.949293  0  0  -0.20684  -0.473725  0  1.962751  0
O  O65  1  0.89447110  0.64861718  0.93289815  1  0  -0.46223  0  1.758621  0  0  -0.455258  0  1.977818  0  0  -0.469284  0  1.971212  0  0  -0.188125  -0.445186  0  1.982789  0
O  O66  1  0.10552958  0.35138303  0.06710064  1  0  -0.462278  0  1.758613  0  0  -0.455298  0  1.97781  0  0  -0.469321  0  1.971198  0  0  -0.18815  -0.445227  0  1.982784  0
