# generated using pymatgen
data_Cd3H18C12S4(N6O)2
_symmetry_space_group_name_H-M   'P 1'
_cell_length_a   6.82242711
_cell_length_b   9.58414324
_cell_length_c   9.71661638
_cell_angle_alpha   89.54766052
_cell_angle_beta   109.78730231
_cell_angle_gamma   94.85388321
_symmetry_Int_Tables_number   1
_chemical_formula_structural   Cd3H18C12S4(N6O)2
_chemical_formula_sum   'Cd3 H18 C12 S4 N12 O2'
_cell_volume   595.53844835
_cell_formula_units_Z   1
loop_
 _symmetry_equiv_pos_site_id
 _symmetry_equiv_pos_as_xyz
  1  'x, y, z'
loop_
 _atom_site_type_symbol
 _atom_site_label
 _atom_site_symmetry_multiplicity
 _atom_site_fract_x
 _atom_site_fract_y
 _atom_site_fract_z
 _atom_site_occupancy
 _atom_site_hle17_bader_spin_density
 _atom_site_hle17_ddec_charge
 _atom_site_hle17_ddec_spin_density
 _atom_site_hle17_ddec_sum_bond_order
 _atom_site_hle17_magmom
 _atom_site_hse06_10hf_bader_spin_density
 _atom_site_hse06_10hf_ddec_charge
 _atom_site_hse06_10hf_ddec_spin_density
 _atom_site_hse06_10hf_ddec_sum_bond_order
 _atom_site_hse06_10hf_magmom
 _atom_site_hse06_bader_spin_density
 _atom_site_hse06_ddec_charge
 _atom_site_hse06_ddec_spin_density
 _atom_site_hse06_ddec_sum_bond_order
 _atom_site_hse06_magmom
 _atom_site_pbe_bader_spin_density
 _atom_site_pbe_cm5_charge
 _atom_site_pbe_ddec_charge
 _atom_site_pbe_ddec_spin_density
 _atom_site_pbe_ddec_sum_bond_order
 _atom_site_pbe_magmom
Cd  Cd0  1  0.99999907  0.00000303  0.50000364  1  0  1.083489  0  1.818844  0  0  0.879156  0  2.285526  0  0  0.931824  0  2.237515  0  0  0.741197  0.842128  0  2.318085  0
Cd  Cd1  1  0.50627758  0.81564523  0.50942812  1  0  0.967358  0  1.93606  0  0  0.80465  0  2.399602  0  0  0.851003  0  2.357303  0  0  0.612346  0.771143  0  2.429553  0
Cd  Cd2  1  0.49371653  0.18436178  0.49056796  1  0  0.967366  0  1.936001  0  0  0.804677  0  2.3995  0  0  0.851033  0  2.357203  0  0  0.612366  0.771172  0  2.42945  0
H  H3  1  0.37792110  0.00062964  0.68137190  1  0  0.371348  0  0.945172  0  0  0.333985  0  1.029504  0  0  0.344459  0  1.014662  0  0  0.260865  0.326362  0  1.040286  0
H  H4  1  0.62207839  0.99937108  0.31862338  1  0  0.371255  0  0.945197  0  0  0.333894  0  1.029603  0  0  0.344366  0  1.014763  0  0  0.260837  0.326269  0  1.040389  0
H  H5  1  0.39599230  0.94172098  0.06629375  1  0  0.101084  0  0.965633  0  0  0.105678  0  1.039972  0  0  0.109173  0  1.035606  0  0  0.132148  0.103021  0  1.043355  0
H  H6  1  0.60402362  0.05825141  0.93370641  1  0  0.101063  0  0.965632  0  0  0.105535  0  1.040069  0  0  0.109055  0  1.035718  0  0  0.132113  0.102887  0  1.043429  0
H  H7  1  0.87729981  0.74836309  0.06021623  1  0  0.115096  0  0.943641  0  0  0.133015  0  1.008423  0  0  0.13454  0  1.007878  0  0  0.103203  0.130623  0  1.011374  0
H  H8  1  0.12270251  0.25162402  0.93977765  1  0  0.115138  0  0.943572  0  0  0.13304  0  1.008346  0  0  0.134563  0  1.007802  0  0  0.103233  0.130648  0  1.011289  0
H  H9  1  0.11435800  0.83064709  0.18538112  1  0  0.111286  0  0.941656  0  0  0.129934  0  1.007017  0  0  0.130237  0  1.007955  0  0  0.107837  0.12955  0  1.006691  0
H  H10  1  0.88563797  0.16933891  0.81461949  1  0  0.111279  0  0.941805  0  0  0.12989  0  1.007184  0  0  0.130197  0  1.008116  0  0  0.107809  0.129509  0  1.006856  0
H  H11  1  0.11793475  0.66839563  0.09635613  1  0  0.100303  0  0.933947  0  0  0.123119  0  0.99426  0  0  0.123807  0  0.993792  0  0  0.099479  0.122693  0  0.99429  0
H  H12  1  0.88206291  0.33159145  0.90364179  1  0  0.100327  0  0.933988  0  0  0.123204  0  0.994209  0  0  0.123892  0  0.993741  0  0  0.099488  0.12278  0  0.994237  0
H  H13  1  0.77599526  0.49880195  0.64396758  1  0  0.091624  0  0.988148  0  0  0.093752  0  1.070252  0  0  0.096779  0  1.066768  0  0  0.118903  0.091631  0  1.072488  0
H  H14  1  0.22400921  0.50121232  0.35603610  1  0  0.091568  0  0.988125  0  0  0.093718  0  1.070174  0  0  0.096744  0  1.06669  0  0  0.118871  0.091592  0  1.072406  0
H  H15  1  0.10214863  0.64904728  0.77794242  1  0  0.108096  0  0.980072  0  0  0.125504  0  1.044844  0  0  0.125973  0  1.046109  0  0  0.105399  0.125185  0  1.043681  0
H  H16  1  0.89785823  0.35096178  0.22205770  1  0  0.10815  0  0.980096  0  0  0.125567  0  1.044844  0  0  0.126035  0  1.04611  0  0  0.105424  0.12525  0  1.043672  0
H  H17  1  0.31985628  0.62584182  0.72058565  1  0  0.108738  0  0.967457  0  0  0.125939  0  1.038912  0  0  0.126734  0  1.038494  0  0  0.096564  0.125612  0  1.038669  0
H  H18  1  0.68014448  0.37415682  0.27940890  1  0  0.108758  0  0.967422  0  0  0.125982  0  1.038866  0  0  0.126779  0  1.038443  0  0  0.096588  0.125653  0  1.038628  0
H  H19  1  0.30585967  0.54434892  0.88294872  1  0  0.107416  0  0.915566  0  0  0.129389  0  0.973984  0  0  0.130732  0  0.972726  0  0  0.104616  0.127315  0  0.977282  0
H  H20  1  0.69414365  0.45565702  0.11704953  1  0  0.107428  0  0.915561  0  0  0.129406  0  0.973983  0  0  0.130749  0  0.972723  0  0  0.104645  0.127333  0  0.977283  0
C  C21  1  0.94467969  0.84779040  0.82184195  1  0  0.294738  0  3.829507  0  0  0.257183  0  4.12544  0  0  0.276332  0  4.138214  0  0  0.198963  0.243926  0  4.115285  0
C  C22  1  0.05532619  0.15221129  0.17816308  1  0  0.294662  0  3.829466  0  0  0.257164  0  4.125336  0  0  0.276311  0  4.138114  0  0  0.19893  0.24391  0  4.115179  0
C  C23  1  0.25806312  0.92615930  0.96870117  1  0  0.143347  0  3.677454  0  0  0.084208  0  3.949152  0  0  0.096312  0  3.96068  0  0  0.143505  0.076413  0  3.941233  0
C  C24  1  0.74195069  0.07382036  0.03130674  1  0  0.143481  0  3.677395  0  0  0.084426  0  3.949204  0  0  0.096481  0  3.960704  0  0  0.143633  0.076629  0  3.941279  0
C  C25  1  0.04614958  0.76814089  0.08405312  1  0  -0.155795  0  3.629945  0  0  -0.26093  0  3.878628  0  0  -0.257316  0  3.887723  0  0  -0.135887  -0.263283  0  3.872337  0
C  C26  1  0.95385260  0.23184514  0.91594484  1  0  -0.155954  0  3.630312  0  0  -0.261069  0  3.878944  0  0  -0.257442  0  3.888016  0  0  -0.135894  -0.263424  0  3.872658  0
C  C27  1  0.18088258  0.34021639  0.64782680  1  0  0.308252  0  3.808268  0  0  0.27231  0  4.10191  0  0  0.291812  0  4.11449  0  0  0.204145  0.259015  0  4.093231  0
C  C28  1  0.81910659  0.65978848  0.35217326  1  0  0.308432  0  3.808225  0  0  0.272381  0  4.102028  0  0  0.291884  0  4.114606  0  0  0.204172  0.259075  0  4.093365  0
C  C29  1  0.88532751  0.42805661  0.63081697  1  0  0.153116  0  3.680616  0  0  0.090238  0  3.948178  0  0  0.104498  0  3.959846  0  0  0.144651  0.081154  0  3.939063  0
C  C30  1  0.11465756  0.57195243  0.36918522  1  0  0.15321  0  3.680633  0  0  0.090368  0  3.94817  0  0  0.104627  0  3.959839  0  0  0.144705  0.081296  0  3.939035  0
C  C31  1  0.21363190  0.57579331  0.77266298  1  0  -0.151153  0  3.618083  0  0  -0.252929  0  3.859884  0  0  -0.2488  0  3.867871  0  0  -0.133856  -0.255647  0  3.854351  0
C  C32  1  0.78636830  0.42421264  0.22733454  1  0  -0.151316  0  3.618059  0  0  -0.253122  0  3.859844  0  0  -0.248991  0  3.867825  0  0  -0.133952  -0.255838  0  3.854313  0
S  S33  1  0.71034346  0.74640704  0.76853236  1  0  -0.481011  0  2.095427  0  0  -0.45076  0  2.457001  0  0  -0.469098  0  2.446838  0  0  -0.210095  -0.436631  0  2.465889  0
S  S34  1  0.28964883  0.25360935  0.23146844  1  0  -0.480988  0  2.095399  0  0  -0.450762  0  2.456926  0  0  -0.469099  0  2.446762  0  0  -0.210122  -0.436636  0  2.465814  0
S  S35  1  0.44542345  0.33446768  0.69768342  1  0  -0.498434  0  2.070003  0  0  -0.474503  0  2.429657  0  0  -0.495064  0  2.422349  0  0  -0.222997  -0.459512  0  2.43691  0
S  S36  1  0.55456516  0.66553300  0.30231753  1  0  -0.498501  0  2.069998  0  0  -0.474528  0  2.429689  0  0  -0.495093  0  2.42238  0  0  -0.222989  -0.459525  0  2.436945  0
N  N37  1  0.23682242  0.97812678  0.83921178  1  0  -0.256123  0  3.038017  0  0  -0.223252  0  3.320324  0  0  -0.231976  0  3.335184  0  0  -0.240848  -0.216679  0  3.309421  0
N  N38  1  0.76319618  0.02186551  0.16078801  1  0  -0.256124  0  3.038354  0  0  -0.223276  0  3.320684  0  0  -0.231997  0  3.335547  0  0  -0.240958  -0.21671  0  3.309791  0
N  N39  1  0.03897542  0.92998187  0.74611764  1  0  -0.357914  0  3.106237  0  0  -0.296866  0  3.394669  0  0  -0.315075  0  3.409964  0  0  -0.260307  -0.284032  0  3.383074  0
N  N40  1  0.96103343  0.07001876  0.25388706  1  0  -0.357948  0  3.106367  0  0  -0.296927  0  3.3948  0  0  -0.315136  0  3.410093  0  0  -0.260275  -0.284094  0  3.383207  0
N  N41  1  0.08118638  0.84583941  0.96460059  1  0  -0.099083  0  3.528357  0  0  0.002479  0  3.748199  0  0  -0.014562  0  3.771302  0  0  -0.247365  0.014305  0  3.731797  0
N  N42  1  0.91882274  0.15415185  0.03539799  1  0  -0.09904  0  3.528073  0  0  0.002499  0  3.747881  0  0  -0.014545  0  3.771  0  0  -0.247372  0.014323  0  3.731481  0
N  N43  1  0.83705930  0.30476919  0.56271395  1  0  -0.270468  0  3.185096  0  0  -0.208047  0  3.469143  0  0  -0.222973  0  3.48602  0  0  -0.253709  -0.197891  0  3.456903  0
N  N44  1  0.16293088  0.69524296  0.43729150  1  0  -0.27044  0  3.185109  0  0  -0.208012  0  3.469145  0  0  -0.222937  0  3.486017  0  0  -0.253613  -0.197855  0  3.456898  0
N  N45  1  0.02133956  0.24815372  0.57264870  1  0  -0.328105  0  3.042683  0  0  -0.276487  0  3.329647  0  0  -0.293052  0  3.345284  0  0  -0.248786  -0.26571  0  3.319347  0
N  N46  1  0.97864353  0.75185218  0.42735301  1  0  -0.328256  0  3.042777  0  0  -0.276573  0  3.32972  0  0  -0.293134  0  3.345348  0  0  -0.248803  -0.265792  0  3.319427  0
N  N47  1  0.09640260  0.45438219  0.68609087  1  0  -0.094177  0  3.524358  0  0  0.008285  0  3.742295  0  0  -0.009039  0  3.765042  0  0  -0.242926  0.020214  0  3.726218  0
N  N48  1  0.90359308  0.54562476  0.31391072  1  0  -0.094184  0  3.524578  0  0  0.008302  0  3.742554  0  0  -0.009023  0  3.7653  0  0  -0.242995  0.020227  0  3.72648  0
O  O49  1  0.35080953  0.99416689  0.57552082  1  0  -0.931289  0  1.931305  0  0  -0.815514  0  2.199472  0  0  -0.851385  0  2.168856  0  0  -0.606466  -0.789891  0  2.220404  0
O  O50  1  0.64918742  0.00583803  0.42447387  1  0  -0.931106  0  1.931156  0  0  -0.815321  0  2.199353  0  0  -0.851193  0  2.168745  0  0  -0.606423  -0.789695  0  2.220285  0
