# generated using pymatgen
data_Ni3P4H22C10(N2O9)2
_symmetry_space_group_name_H-M   'P 1'
_cell_length_a   6.80297115
_cell_length_b   9.84891557
_cell_length_c   9.26500045
_cell_angle_alpha   79.15182700
_cell_angle_beta   80.01625815
_cell_angle_gamma   90.50135036
_symmetry_Int_Tables_number   1
_chemical_formula_structural   Ni3P4H22C10(N2O9)2
_chemical_formula_sum   'Ni3 P4 H22 C10 N4 O18'
_cell_volume   599.89684667
_cell_formula_units_Z   1
loop_
 _symmetry_equiv_pos_site_id
 _symmetry_equiv_pos_as_xyz
  1  'x, y, z'
loop_
 _atom_site_type_symbol
 _atom_site_label
 _atom_site_symmetry_multiplicity
 _atom_site_fract_x
 _atom_site_fract_y
 _atom_site_fract_z
 _atom_site_occupancy
 _atom_site_hle17_ddec_charge
 _atom_site_hle17_ddec_spin_density
 _atom_site_hle17_ddec_sum_bond_order
 _atom_site_hle17_magmom
 _atom_site_hse06_10hf_ddec_charge
 _atom_site_hse06_10hf_ddec_spin_density
 _atom_site_hse06_10hf_ddec_sum_bond_order
 _atom_site_hse06_10hf_magmom
 _atom_site_hse06_ddec_charge
 _atom_site_hse06_ddec_spin_density
 _atom_site_hse06_ddec_sum_bond_order
 _atom_site_hse06_magmom
 _atom_site_pbe_cm5_charge
 _atom_site_pbe_ddec_charge
 _atom_site_pbe_ddec_spin_density
 _atom_site_pbe_ddec_sum_bond_order
 _atom_site_pbe_magmom
Ni  Ni0  1  0.00000974  0.00000504  0.50000453  1  0.802778  -0.000188  2.249454  0.0  0.804089  -0.000132  2.69672  0.0  0.904134  -6.4e-05  2.587228  0.0  0.569769  0.740579  -5e-06  2.771051  0.0
Ni  Ni1  1  0.80884410  0.05965556  0.04738820  1  1.045314  -1.786997  1.839686  -1.541  1.064999  -1.84465  2.210377  -1.667  1.142504  -1.900074  2.150597  -1.745  0.647663  0.990492  -1.786575  2.275171  -1.594
Ni  Ni2  1  0.19114725  0.94035005  0.95260844  1  1.045341  1.787105  1.839545  1.541  1.064995  1.844745  2.210263  1.667  1.142506  1.900124  2.15048  1.745  0.647659  0.990491  1.786577  2.275032  1.594
P  P3  1  0.97057649  0.20338869  0.72700810  1  1.409191  0.001577  4.85446  0.004  1.264748  0.001029  5.362117  0.004  1.322566  0.001059  5.324387  0.004  0.334076  1.223336  0.000999  5.38567  0.004
P  P4  1  0.02945083  0.79662066  0.27298621  1  1.409446  -0.001594  4.854898  -0.004  1.265032  -0.001036  5.36254  -0.004  1.322856  -0.001063  5.324788  -0.004  0.334155  1.223617  -0.000997  5.386099  -0.004
P  P5  1  0.63719594  0.99163691  0.77284106  1  1.38167  0.000909  4.835647  0.001  1.23663  0.001187  5.329307  0.001  1.290794  0.001059  5.293919  0.001  0.340133  1.197758  0.001266  5.351776  0.002
P  P6  1  0.36282813  0.00836104  0.22715932  1  1.381765  -0.000915  4.835669  -0.001  1.236684  -0.001211  5.329413  -0.001  1.290875  -0.001077  5.294005  -0.001  0.340071  1.197816  -0.00127  5.351871  -0.002
H  H7  1  0.33714636  0.85933681  0.66155319  1  0.426414  -0.000126  0.866734  0.0  0.396336  -0.000121  0.93488  0.0  0.406825  -0.000123  0.919332  0.0  0.295376  0.388727  -0.000117  0.94617  0.0
H  H8  1  0.66281338  0.14065895  0.33844864  1  0.426517  0.000124  0.866447  0.0  0.39643  0.000121  0.934712  0.0  0.406919  0.000123  0.919166  0.0  0.295414  0.388822  0.000116  0.945999  0.0
H  H9  1  0.17671615  0.82448859  0.56876737  1  0.375649  4.2e-05  0.929933  0.0  0.333855  4.4e-05  1.03347  0.0  0.345004  2.8e-05  1.015562  0.0  0.276593  0.325179  5.4e-05  1.047381  0.0
H  H10  1  0.82323706  0.17547728  0.43126320  1  0.375639  -3.5e-05  0.929886  0.0  0.333893  -4.4e-05  1.033367  0.0  0.345027  -2.8e-05  1.015475  0.0  0.276676  0.325219  -5.4e-05  1.047275  0.0
H  H11  1  0.89295747  0.23344584  0.20168826  1  0.414554  0.000137  0.891474  0.002  0.389413  -0.0003  0.9466  0.0  0.400678  -0.000115  0.93043  0.0  0.288967  0.380788  -0.000494  0.959033  0.0
H  H12  1  0.10702975  0.76656201  0.79833436  1  0.414628  -0.000135  0.891389  -0.002  0.389525  0.000299  0.946475  0.0  0.400796  0.000114  0.93029  0.0  0.288972  0.380898  0.000493  0.95891  0.0
H  H13  1  0.09095672  0.18474444  0.10277680  1  0.423261  0.000126  0.868669  0.002  0.394743  -0.000418  0.936844  0.0  0.405328  -0.000242  0.921637  0.0  0.295376  0.386689  -0.000601  0.948433  0.0
H  H14  1  0.90902746  0.81526736  0.89723028  1  0.423275  -0.000122  0.868617  -0.002  0.394731  0.000418  0.936849  0.0  0.405311  0.000242  0.921648  0.0  0.295423  0.386681  0.000602  0.948427  0.0
H  H15  1  0.50022745  0.15963320  0.97530307  1  0.382756  4.5e-05  0.909872  0.001  0.354919  -0.000238  0.986393  0.0  0.366411  -0.00012  0.974757  0.0  0.300364  0.34673  -0.000348  0.994201  0.0
H  H16  1  0.49976045  0.84035982  0.02468373  1  0.382886  -4.6e-05  0.909721  -0.001  0.355055  0.000238  0.986215  0.0  0.366535  0.000119  0.974578  0.0  0.300454  0.346875  0.000348  0.994016  0.0
H  H17  1  0.80655624  0.71477610  0.55584644  1  0.332423  1e-05  0.900803  0.0  0.308513  5e-06  0.963064  0.0  0.317648  -2e-06  0.956392  0.0  0.320747  0.301862  2.2e-05  0.968236  0.0
H  H18  1  0.19349109  0.28521058  0.44412300  1  0.332463  -1.4e-05  0.900807  0.0  0.308563  -4e-06  0.963045  0.0  0.317692  2e-06  0.956377  0.0  0.320833  0.301915  -2.2e-05  0.968217  0.0
H  H19  1  0.80290101  0.48638826  0.46971791  1  0.136445  -8e-06  0.927156  0.0  0.145547  -1.7e-05  0.986457  0.0  0.148986  -1.1e-05  0.982485  0.0  0.153889  0.142749  -3.3e-05  0.98975  0.0
H  H20  1  0.19709041  0.51357065  0.53027020  1  0.136451  2.3e-05  0.92726  0.0  0.145529  1.7e-05  0.986593  0.0  0.148962  1.1e-05  0.982619  0.0  0.153907  0.142733  3.3e-05  0.989886  0.0
H  H21  1  0.57837681  0.70288560  0.81307943  1  0.122452  -0.00015  0.956875  0.0  0.132019  -0.000168  1.013693  0.0  0.134697  -0.000125  1.012332  0.0  0.131798  0.129624  -0.000208  1.01538  0.0
H  H22  1  0.42164740  0.29713774  0.18686702  1  0.122453  0.000145  0.95669  0.0  0.132011  0.000167  1.01355  0.0  0.134694  0.000124  1.012165  0.0  0.131774  0.12961  0.000207  1.015258  0.0
H  H23  1  0.41209083  0.43417751  0.89006590  1  0.137463  -7.6e-05  0.922302  0.0  0.149537  -0.000116  0.973611  0.0  0.152311  -7.9e-05  0.97249  0.0  0.140655  0.147303  -0.000159  0.974984  0.0
H  H24  1  0.58791753  0.56585010  0.10992385  1  0.137616  9.7e-05  0.922296  0.0  0.149605  0.000116  0.973683  0.0  0.152366  7.9e-05  0.972581  0.0  0.140679  0.147377  0.000159  0.975045  0.0
H  H25  1  0.59169653  0.25653721  0.56402691  1  0.111095  -0.000445  0.964329  -0.001  0.123262  -0.000348  1.026114  -0.001  0.124473  -0.000236  1.025516  0.0  0.121512  0.1224  -0.000461  1.026594  -0.001
H  H26  1  0.40827671  0.74345579  0.43598666  1  0.111005  0.000439  0.964333  0.001  0.123165  0.000348  1.02612  0.001  0.124376  0.000236  1.025518  0.0  0.121455  0.122299  0.000461  1.026599  0.001
H  H27  1  0.40459573  0.24471839  0.72635137  1  0.116205  0.000159  0.909112  0.0  0.126271  1e-06  0.974545  0.0  0.12851  -1.5e-05  0.972413  0.0  0.123406  0.124641  2.1e-05  0.976215  0.0
H  H28  1  0.59542964  0.75526931  0.27365855  1  0.116204  -0.000166  0.909052  0.0  0.126249  -1e-06  0.974491  0.0  0.128486  1.5e-05  0.972362  0.0  0.123406  0.124618  -2.2e-05  0.976154  0.0
C  C29  1  0.72183362  0.50575650  0.57496272  1  0.201756  -0.000275  3.534717  0.0  0.125147  -4.7e-05  3.808856  0.0  0.142035  -1.2e-05  3.816815  0.0  0.178211  0.114157  -0.000134  3.80373  0.0
C  C30  1  0.27815404  0.49422925  0.42502240  1  0.201689  0.000208  3.534461  0.0  0.125004  4.7e-05  3.808811  0.0  0.141894  1.3e-05  3.81677  0.0  0.178093  0.114012  0.000134  3.803683  0.0
C  C31  1  0.60170215  0.61642847  0.75661584  1  0.039446  -0.000478  3.633677  -0.001  -0.002147  -0.000244  3.897736  0.0  -0.000486  -0.000164  3.915818  0.0  0.025158  -0.003287  -0.000317  3.88643  -0.001
C  C32  1  0.39829515  0.38358023  0.24336856  1  0.039594  0.000541  3.634208  0.001  -0.001955  0.000243  3.898195  0.0  -0.000292  0.000164  3.916297  0.0  0.025291  -0.0031  0.000317  3.886889  0.001
C  C33  1  0.52117654  0.48433243  0.79538969  1  -0.019217  0.000106  3.602986  0.0  -0.062717  -2.9e-05  3.863387  0.0  -0.060241  -2e-06  3.880571  0.0  0.027267  -0.064641  -9.2e-05  3.852589  0.0
C  C34  1  0.47881326  0.51567714  0.20459121  1  -0.0196  -0.000198  3.603443  0.0  -0.063038  2.9e-05  3.863873  0.0  -0.060557  3e-06  3.88107  0.0  0.027205  -0.064964  9.2e-05  3.853072  0.0
C  C35  1  0.56335214  0.27086620  0.68034045  1  -0.032361  -0.001469  3.621034  -0.002  -0.102669  -0.000892  3.875737  -0.001  -0.097782  -0.000544  3.886126  0.0  -0.050649  -0.106194  -0.00121  3.869252  -0.001
C  C36  1  0.43664811  0.72913545  0.31965908  1  -0.032323  0.001511  3.62081  0.002  -0.102528  0.000892  3.875372  0.001  -0.09763  0.000542  3.885746  0.0  -0.05055  -0.106041  0.001211  3.868868  0.001
C  C37  1  0.69151771  0.17758943  0.77458980  1  -0.237221  0.004945  3.606528  0.007  -0.203505  0.002297  3.863112  0.004  -0.21264  0.00185  3.874553  0.003  0.046711  -0.197091  0.002767  3.854342  0.005
C  C38  1  0.30849167  0.82242263  0.22539662  1  -0.2373  -0.004966  3.607325  -0.008  -0.203678  -0.002287  3.86403  -0.004  -0.21282  -0.001843  3.87546  -0.003  0.046638  -0.197268  -0.002765  3.85526  -0.005
N  N39  1  0.59821599  0.41719228  0.68068468  1  -0.038523  6.9e-05  3.555207  0.0  0.052195  -4.5e-05  3.782483  0.0  0.037637  -4.1e-05  3.807192  0.0  -0.226793  0.061603  -5.1e-05  3.766159  0.0
N  N40  1  0.40176466  0.58280586  0.31930956  1  -0.038404  -5.1e-05  3.554989  0.0  0.052364  4.5e-05  3.782231  0.0  0.03781  4.1e-05  3.806928  0.0  -0.22673  0.061771  5.1e-05  3.765907  0.0
N  N41  1  0.72434849  0.62706721  0.61957568  1  -0.249596  0.000132  3.417078  0.0  -0.180174  5.7e-05  3.655461  0.0  -0.195913  4.2e-05  3.669161  0.0  -0.355304  -0.169865  0.000119  3.646727  0.0
N  N42  1  0.27566439  0.37291375  0.38040278  1  -0.249573  -0.000109  3.417271  0.0  -0.180138  -5.8e-05  3.655705  0.0  -0.195876  -4.2e-05  3.669405  0.0  -0.355465  -0.16983  -0.000119  3.646978  0.0
O  O43  1  0.03012390  0.16394968  0.56828896  1  -0.784035  -0.004176  2.170416  -0.006  -0.718708  -0.002388  2.459756  -0.004  -0.764256  -0.001571  2.436983  -0.002  -0.362535  -0.688547  -0.003311  2.476343  -0.005
O  O44  1  0.96990332  0.83605351  0.43171205  1  -0.784115  0.004229  2.170454  0.007  -0.718895  0.002431  2.459878  0.004  -0.764452  0.001602  2.437118  0.002  -0.36262  -0.688729  0.003311  2.476462  0.005
O  O45  1  0.26386210  0.78091333  0.63713041  1  -0.786654  -0.000244  1.87206  0.0  -0.73432  -0.000131  2.054176  0.0  -0.751687  -0.000183  2.024602  0.0  -0.572813  -0.721681  -2.6e-05  2.076377  0.0
O  O46  1  0.73608429  0.21906916  0.36291701  1  -0.78681  0.000241  1.871819  0.0  -0.73453  0.000134  2.054191  0.0  -0.751877  0.000186  2.024634  0.0  -0.573031  -0.721888  2.5e-05  2.076383  0.0
O  O47  1  0.02679308  0.09114202  0.85357175  1  -0.843589  -0.01723  2.183795  -0.027  -0.807548  -0.008663  2.507647  -0.015  -0.851075  -0.006094  2.487588  -0.011  -0.371543  -0.76904  -0.011043  2.519073  -0.018
O  O48  1  0.97321339  0.90886399  0.14643791  1  -0.84368  0.017261  2.183821  0.027  -0.807568  0.00868  2.50758  0.015  -0.851098  0.006099  2.487519  0.011  -0.371556  -0.769069  0.011058  2.519015  0.018
O  O49  1  0.95522744  0.21919573  0.09968037  1  -0.771458  -0.059508  1.925547  -0.094  -0.751064  -0.038912  2.120348  -0.062  -0.781325  -0.029512  2.087834  -0.048  -0.573261  -0.725721  -0.046585  2.144991  -0.072
O  O50  1  0.04473581  0.78080862  0.90034618  1  -0.771635  0.059512  1.925451  0.094  -0.751236  0.03892  2.120277  0.062  -0.781507  0.029517  2.087794  0.048  -0.573393  -0.725895  0.046593  2.144917  0.072
O  O51  1  0.04353099  0.34867318  0.71839339  1  -0.768282  0.002073  1.795895  0.003  -0.722884  0.000979  2.032593  0.001  -0.753794  0.000672  2.018028  0.001  -0.37442  -0.69907  0.001478  2.041288  0.002
O  O52  1  0.95650701  0.65134159  0.28160592  1  -0.768336  -0.002054  1.796318  -0.003  -0.722989  -0.000975  2.033081  -0.001  -0.7539  -0.000671  2.018507  -0.001  -0.37443  -0.699171  -0.001477  2.041774  -0.002
O  O53  1  0.76224220  0.94663258  0.63649556  1  -0.752247  0.003189  2.111727  0.005  -0.698103  0.001686  2.412269  0.003  -0.738749  0.001239  2.385126  0.002  -0.362808  -0.671326  0.002139  2.432542  0.003
O  O54  1  0.23779982  0.05336065  0.36351855  1  -0.752261  -0.003171  2.111559  -0.005  -0.698129  -0.001676  2.412028  -0.003  -0.738787  -0.001236  2.384889  -0.002  -0.362864  -0.671364  -0.002137  2.432299  -0.003
O  O55  1  0.68802491  0.91304152  0.92410374  1  -0.843128  -0.026775  2.073783  -0.04  -0.775623  -0.020131  2.327113  -0.029  -0.807734  -0.016331  2.307392  -0.024  -0.356586  -0.748333  -0.023142  2.338775  -0.033
O  O56  1  0.31194001  0.08696806  0.07592580  1  -0.843301  0.026761  2.07396  0.04  -0.775739  0.020096  2.327222  0.029  -0.80786  0.016312  2.307464  0.024  -0.35655  -0.748433  0.02314  2.338863  0.033
O  O57  1  0.41412702  0.97066421  0.76927243  1  -0.813088  0.033898  2.045583  0.054  -0.757062  0.022144  2.32455  0.034  -0.792764  0.017798  2.303275  0.028  -0.362145  -0.727828  0.025333  2.338816  0.039
O  O58  1  0.58589747  0.02935330  0.23071407  1  -0.813021  -0.033878  2.045594  -0.054  -0.756957  -0.022125  2.324582  -0.034  -0.792665  -0.01779  2.303294  -0.028  -0.362078  -0.727724  -0.02534  2.338838  -0.039
O  O59  1  0.64282324  0.19740662  0.92732906  1  -0.517987  -0.045935  2.246211  -0.074  -0.483588  -0.03146  2.491539  -0.052  -0.509952  -0.024691  2.48546  -0.041  -0.363819  -0.461635  -0.037099  2.494809  -0.06
O  O60  1  0.35718020  0.80259526  0.07268835  1  -0.518096  0.045918  2.246765  0.074  -0.483564  0.031452  2.491966  0.051  -0.509929  0.024685  2.485927  0.041  -0.363831  -0.461637  0.037087  2.495254  0.06
