# generated using pymatgen
data_MgH22C20(NO4)2
_symmetry_space_group_name_H-M   'P 1'
_cell_length_a   7.94574682
_cell_length_b   17.79551251
_cell_length_c   17.79544991
_cell_angle_alpha   119.99388185
_cell_angle_beta   90.00997696
_cell_angle_gamma   89.99016327
_symmetry_Int_Tables_number   1
_chemical_formula_structural   MgH22C20(NO4)2
_chemical_formula_sum   'Mg3 H66 C60 N6 O24'
_cell_volume   2179.27275629
_cell_formula_units_Z   3
loop_
 _symmetry_equiv_pos_site_id
 _symmetry_equiv_pos_as_xyz
  1  'x, y, z'
loop_
 _atom_site_type_symbol
 _atom_site_label
 _atom_site_symmetry_multiplicity
 _atom_site_fract_x
 _atom_site_fract_y
 _atom_site_fract_z
 _atom_site_occupancy
 _atom_site_pbe_bader_charge
 _atom_site_pbe_bader_spin_density
 _atom_site_pbe_cm5_charge
 _atom_site_pbe_ddec_charge
 _atom_site_pbe_ddec_spin_density
 _atom_site_pbe_ddec_sum_bond_order
 _atom_site_pbe_magmom
Mg  Mg0  1  0.66648397  0.54048087  0.99998589  1  1.694047  0  0.820155  1.344581  0  1.450473  0
Mg  Mg1  1  0.33353434  0.99998430  0.54048109  1  1.694032  0  0.820139  1.344539  0  1.450384  0
Mg  Mg2  1  0.99998903  0.45956364  0.45956226  1  1.693892  0  0.820386  1.34519  0  1.44961  0
H  H3  1  0.54853878  0.80779554  0.11578992  1  0.096156  0  0.107177  0.117356  0  0.996001  0
H  H4  1  0.66858621  0.97398953  0.42398325  1  0.086109  0  0.118488  0.034577  0  1.032369  0
H  H5  1  0.52627626  0.20493777  0.96504200  1  0.064606  0  0.100682  0.102094  0  0.999306  0
H  H6  1  0.33513920  0.57600471  0.55001217  1  0.085817  0  0.118465  0.034697  0  1.032135  0
H  H7  1  0.88207500  0.30802294  0.19222469  1  0.09925  0  0.107254  0.117396  0  0.996162  0
H  H8  1  0.85276154  0.57884714  0.44840121  1  0.635559  0  0.292623  0.33305  0  1.022182  0
H  H9  1  0.14058236  0.79501181  0.76011228  1  0.078337  0  0.100894  0.102298  0  0.999875  0
H  H10  1  0.81393096  0.25645953  0.64106178  1  0.101016  0  0.104153  0.120858  0  1.036075  0
H  H11  1  0.48074577  0.13039577  0.55159724  1  0.631442  0  0.292573  0.332669  0  1.022764  0
H  H12  1  0.14713175  0.38462075  0.74352571  1  0.0858  0  0.104096  0.120714  0  1.036143  0
H  H13  1  0.34662831  0.32986733  0.72077145  1  0.083298  0  0.102244  0.116942  0  1.016985  0
H  H14  1  0.99584011  0.66241212  0.21631803  1  0.067622  0  0.11156  0.1327  0  1.000833  0
H  H15  1  0.33711910  0.23666521  0.54745946  1  0.083806  0  0.107653  0.121611  0  1.034715  0
H  H16  1  0.15577711  0.31785691  0.90935355  1  0.049511  0  0.107121  0.114391  0  1.002479  0
H  H17  1  0.66255902  0.78363712  0.44597665  1  0.070895  0  0.111495  0.132829  0  1.001016  0
H  H18  1  0.81386471  0.42124545  0.86961486  1  0.633512  0  0.2927  0.333269  0  1.022117  0
H  H19  1  0.67080501  0.33761861  0.55394593  1  0.109712  0  0.111601  0.132677  0  1.000849  0
H  H20  1  0.45146783  0.11579269  0.80779867  1  0.09628  0  0.10716  0.117294  0  0.996147  0
H  H21  1  0.54009638  0.54795185  0.75019722  1  0.059861  0  0.107667  0.126098  0  0.991091  0
H  H22  1  0.84423660  0.90935448  0.31785372  1  0.049394  0  0.107104  0.114385  0  1.002474  0
H  H23  1  0.31987624  0.67005595  0.39085287  1  0.065792  0  0.102296  0.116895  0  1.017291  0
H  H24  1  0.00358068  0.45256733  0.68927849  1  0.092215  0  0.107822  0.122091  0  1.034403  0
H  H25  1  0.01356122  0.27916820  0.60914041  1  0.066894  0  0.102252  0.116956  0  1.017153  0
H  H26  1  0.66484026  0.55001062  0.57601243  1  0.084857  0  0.118442  0.03466  0  1.032089  0
H  H27  1  0.99640386  0.68927973  0.45256555  1  0.09231  0  0.107738  0.122029  0  1.034263  0
H  H28  1  0.19281417  0.03498228  0.23991472  1  0.074718  0  0.100611  0.101964  0  0.99952  0
H  H29  1  0.02557423  0.31858069  0.82784551  1  0.072747  0  0.106245  0.127193  0  1.010853  0
H  H30  1  0.98644405  0.60913040  0.27916237  1  0.066943  0  0.102238  0.116968  0  1.017117  0
H  H31  1  0.17748102  0.40855549  0.09056798  1  0.054962  0  0.106989  0.11423  0  1.002755  0
H  H32  1  0.00416387  0.21632892  0.66242911  1  0.067731  0  0.111514  0.132712  0  1.000749  0
H  H33  1  0.82253203  0.09056457  0.40856637  1  0.05517  0  0.10699  0.114221  0  1.00279  0
H  H34  1  0.78427948  0.69203533  0.88412852  1  0.122822  0  0.107388  0.11747  0  0.996264  0
H  H35  1  0.35895317  0.50921010  0.68135050  1  0.073387  0  0.10632  0.127109  0  1.011104  0
H  H36  1  0.48904714  0.59144864  0.68208701  1  0.048339  0  0.107046  0.114347  0  1.002653  0
H  H37  1  0.97442919  0.82784431  0.31857713  1  0.072701  0  0.106246  0.127141  0  1.010924  0
H  H38  1  0.12642199  0.45198326  0.20215305  1  0.063734  0  0.107758  0.126138  0  0.990702  0
H  H39  1  0.80717815  0.23992521  0.03498902  1  0.07496  0  0.100668  0.102052  0  0.999429  0
H  H40  1  0.20675033  0.24974433  0.79775389  1  0.06742  0  0.107759  0.126115  0  0.991129  0
H  H41  1  0.33142921  0.42398450  0.97399290  1  0.086122  0  0.118501  0.034655  0  1.032292  0
H  H42  1  0.51925140  0.55160572  0.13039561  1  0.631398  0  0.29266  0.332812  0  1.022479  0
H  H43  1  0.65337109  0.72077078  0.32985434  1  0.083106  0  0.102229  0.116924  0  1.016979  0
H  H44  1  0.66287582  0.54747136  0.23666611  1  0.083741  0  0.107701  0.121674  0  1.034577  0
H  H45  1  0.45989612  0.75019150  0.54794931  1  0.059699  0  0.107703  0.126132  0  0.991041  0
H  H46  1  0.64103527  0.68134342  0.50921179  1  0.073547  0  0.106378  0.127157  0  1.011085  0
H  H47  1  0.30758844  0.49076806  0.17211120  1  0.076592  0  0.106557  0.127357  0  1.011126  0
H  H48  1  0.47372471  0.96503465  0.20493070  1  0.064434  0  0.100702  0.102164  0  0.999308  0
H  H49  1  0.21573012  0.88412634  0.69203439  1  0.122807  0  0.107379  0.117432  0  0.996341  0
H  H50  1  0.32918390  0.55393830  0.33761646  1  0.109519  0  0.111564  0.132675  0  1.000902  0
H  H51  1  0.48056153  0.35890927  0.61537079  1  0.096183  0  0.104179  0.120845  0  1.035985  0
H  H52  1  0.68012445  0.39085426  0.67006256  1  0.065632  0  0.102317  0.116912  0  1.017158  0
H  H53  1  0.67045393  0.31079617  0.76333238  1  0.080337  0  0.107737  0.121772  0  1.034719  0
H  H54  1  0.79325409  0.79775739  0.24973875  1  0.067134  0  0.107765  0.126076  0  0.991129  0
H  H55  1  0.69242378  0.17210801  0.49077955  1  0.076734  0  0.106579  0.127409  0  1.011045  0
H  H56  1  0.14723024  0.44839381  0.57884229  1  0.635546  0  0.292654  0.333022  0  1.022238  0
H  H57  1  0.85942969  0.76011762  0.79501315  1  0.078333  0  0.100834  0.102227  0  0.999632  0
H  H58  1  0.33744211  0.44599024  0.78364465  1  0.070839  0  0.1115  0.132779  0  1.001077  0
H  H59  1  0.99833996  0.02597153  0.45006973  1  0.097679  0  0.118207  0.034481  0  1.032256  0
H  H60  1  0.11789652  0.19221286  0.30801112  1  0.10007  0  0.107266  0.117381  0  0.995979  0
H  H61  1  0.51943641  0.61536288  0.35891092  1  0.096005  0  0.104165  0.120862  0  1.035916  0
H  H62  1  0.87358139  0.20215211  0.45199243  1  0.063611  0  0.107779  0.126188  0  0.990582  0
H  H63  1  0.18613784  0.86961556  0.42124087  1  0.633624  0  0.29265  0.33318  0  1.022203  0
H  H64  1  0.85287162  0.74352183  0.38460603  1  0.085638  0  0.104071  0.120736  0  1.036115  0
H  H65  1  0.18607055  0.64105815  0.25645749  1  0.101318  0  0.104125  0.120803  0  1.036076  0
H  H66  1  0.32954176  0.76332943  0.31079328  1  0.080388  0  0.10769  0.121719  0  1.034678  0
H  H67  1  0.51093775  0.68208287  0.59145217  1  0.048656  0  0.107007  0.114338  0  1.002661  0
H  H68  1  0.00169442  0.45005773  0.02596144  1  0.096954  0  0.118237  0.034567  0  1.032002  0
C  C69  1  0.97620358  0.64589209  0.69234878  1  0.019286  0  -0.017288  -0.023078  0  3.962846  0
C  C70  1  0.02379657  0.69234446  0.64588715  1  -0.024143  0  -0.017425  -0.023169  0  3.962555  0
C  C71  1  0.27324552  0.38578508  0.76892094  1  0.246124  0  -0.135698  -0.274796  0  3.867996  0
C  C72  1  0.64292140  0.30767472  0.95353636  1  0.055049  0  -0.017352  -0.022733  0  3.962766  0
C  C73  1  0.05993232  0.61689301  0.23103807  1  0.243939  0  -0.135786  -0.274821  0  3.867886  0
C  C74  1  0.02646854  0.71318546  0.52048717  1  -0.022397  0  -0.102169  -0.232315  0  3.965581  0
C  C75  1  0.15006202  0.82248332  0.65539301  1  -0.067353  0  -0.097092  -0.121918  0  4.023144  0
C  C76  1  0.89240951  0.69263324  0.77255961  1  -0.047222  0  -0.095161  -0.12839  0  4.027033  0
C  C77  1  0.51121966  0.68657117  0.53219188  1  0.292405  0  -0.128251  -0.272366  0  3.897713  0
C  C78  1  0.49337816  0.68251340  0.15624316  1  1.531914  0  0.223847  0.595708  0  4.166333  0
C  C79  1  0.82685803  0.47375353  0.31750603  1  1.562135  0  0.224088  0.595965  0  4.165959  0
C  C80  1  0.16043038  0.84375947  0.52630680  1  1.565375  0  0.223838  0.595229  0  4.165738  0
C  C81  1  0.35962883  0.80729925  0.28685347  1  -0.060632  0  -0.102301  -0.231841  0  3.965281  0
C  C82  1  0.10760105  0.77256387  0.69263652  1  -0.047376  0  -0.095157  -0.128479  0  4.026902  0
C  C83  1  0.72675541  0.76891664  0.38577259  1  0.246508  0  -0.135683  -0.274922  0  3.868028  0
C  C84  1  0.30702645  0.19270507  0.47954638  1  -0.027944  0  -0.102086  -0.231462  0  3.965231  0
C  C85  1  0.35163728  0.10506761  0.44169864  1  0.459084  0  0.080942  0.277311  0  4.060758  0
C  C86  1  0.15541803  0.31335990  0.84559889  1  0.26742  0  -0.128253  -0.272358  0  3.898457  0
C  C87  1  0.65070152  0.91857430  0.43473531  1  1.393785  0  0.179185  0.315257  0  4.118716  0
C  C88  1  0.84994227  0.65539618  0.82248100  1  -0.067612  0  -0.097081  -0.121993  0  4.023133  0
C  C89  1  0.55705985  0.20766003  0.77583282  1  0.043284  0  -0.022523  -0.024562  0  4.020245  0
C  C90  1  0.77636415  0.43184580  0.22418833  1  -0.01004  0  -0.022823  -0.025484  0  4.02067  0
C  C91  1  0.68276376  0.48383727  0.56524886  1  1.393625  0  0.179179  0.314817  0  4.119019  0
C  C92  1  0.81648191  0.34464846  0.16716703  1  0.011031  0  -0.097038  -0.121381  0  4.022797  0
C  C93  1  0.98377638  0.51621885  0.08138730  1  1.378437  0  0.179244  0.31501  0  4.117768  0
C  C94  1  0.69296817  0.47955683  0.19270426  1  -0.027859  0  -0.102248  -0.231569  0  3.965373  0
C  C95  1  0.48876634  0.53219024  0.68657837  1  0.292722  0  -0.128191  -0.272302  0  3.897828  0
C  C96  1  0.17777279  0.46778610  0.15432802  1  0.262552  0  -0.12848  -0.27235  0  3.897587  0
C  C97  1  0.34930371  0.43473522  0.91857297  1  1.394525  0  0.179187  0.315081  0  4.118925  0
C  C98  1  0.01626336  0.08139391  0.51623220  1  1.378439  0  0.179241  0.31505  0  4.118  0
C  C99  1  0.64036942  0.28685526  0.80729920  1  -0.060177  0  -0.102411  -0.232046  0  3.965259  0
C  C100  1  0.98180311  0.66340638  0.55832078  1  0.48429  0  0.080995  0.277826  0  4.060112  0
C  C101  1  0.84458794  0.84560131  0.31335675  1  0.267271  0  -0.128213  -0.272216  0  3.898727  0
C  C102  1  0.77413609  0.30741501  0.07999703  1  -0.153814  0  -0.094874  -0.128524  0  4.027381  0
C  C103  1  0.39332238  0.61415672  0.38310838  1  0.216758  0  -0.135827  -0.274918  0  3.868306  0
C  C104  1  0.51698764  0.17748182  0.83286057  1  -0.051008  0  -0.097078  -0.121849  0  4.023093  0
C  C105  1  0.22362036  0.22418394  0.43183530  1  -0.011661  0  -0.022873  -0.025323  0  4.020487  0
C  C106  1  0.55927435  0.22742917  0.92002878  1  -0.079591  0  -0.094928  -0.128496  0  4.027617  0
C  C107  1  0.97353008  0.52048309  0.71318636  1  -0.022568  0  -0.102243  -0.232427  0  3.965261  0
C  C108  1  0.83957112  0.52630787  0.84375805  1  1.565327  0  0.223805  0.595051  0  4.165885  0
C  C109  1  0.69041393  0.35415129  0.04648049  1  0.041963  0  -0.01745  -0.02304  0  3.962604  0
C  C110  1  0.94007284  0.23104399  0.61690430  1  0.243939  0  -0.135799  -0.274997  0  3.867846  0
C  C111  1  0.31509840  0.89494209  0.33664948  1  0.491975  0  0.080767  0.277301  0  4.060701  0
C  C112  1  0.01820052  0.55832414  0.66340042  1  0.484724  0  0.080952  0.277836  0  4.05989  0
C  C113  1  0.50661943  0.15624285  0.68251520  1  1.531599  0  0.22387  0.595685  0  4.166386  0
C  C114  1  0.35708233  0.95353473  0.30767034  1  0.055386  0  -0.017327  -0.022687  0  3.962603  0
C  C115  1  0.18349719  0.16715297  0.34463834  1  0.010912  0  -0.097129  -0.121523  0  4.022964  0
C  C116  1  0.60666807  0.38310749  0.61416285  1  0.2166  0  -0.135906  -0.274926  0  3.868193  0
C  C117  1  0.48301543  0.83285725  0.17747711  1  -0.051045  0  -0.097  -0.121671  0  4.023164  0
C  C118  1  0.64836205  0.44170728  0.10507378  1  0.458284  0  0.081017  0.277468  0  4.060562  0
C  C119  1  0.10994620  0.79233549  0.56820143  1  -0.033594  0  -0.02277  -0.024664  0  4.020243  0
C  C120  1  0.68490526  0.33665555  0.89494599  1  0.492115  0  0.080845  0.277377  0  4.060654  0
C  C121  1  0.22585149  0.07999203  0.30740976  1  -0.153986  0  -0.094839  -0.128413  0  4.027739  0
C  C122  1  0.31722431  0.56524382  0.48384132  1  1.392728  0  0.179147  0.314908  0  4.118692  0
C  C123  1  0.44073034  0.92002385  0.22742122  1  -0.079388  0  -0.09499  -0.128732  0  4.02788  0
C  C124  1  0.17312054  0.31750107  0.47374537  1  1.562678  0  0.224161  0.595951  0  4.165703  0
C  C125  1  0.89005276  0.56820593  0.79233683  1  -0.033281  0  -0.022833  -0.024655  0  4.020312  0
C  C126  1  0.44294188  0.77583035  0.20765611  1  0.043471  0  -0.022597  -0.024791  0  4.020342  0
C  C127  1  0.82224058  0.15432655  0.46779726  1  0.262311  0  -0.128537  -0.272539  0  3.897463  0
C  C128  1  0.30957746  0.04647443  0.35414111  1  0.042024  0  -0.017415  -0.022982  0  3.962778  0
N  N129  1  0.74227080  0.84869031  0.38256606  1  -1.208336  0  -0.280664  0.032462  0  3.720182  0
N  N130  1  0.25774040  0.38257768  0.84869716  1  -1.209447  0  -0.280617  0.032557  0  3.720329  0
N  N131  1  0.59113353  0.46609033  0.61737789  1  -1.224449  0  -0.280931  0.032598  0  3.719309  0
N  N132  1  0.40885463  0.61737027  0.46608994  1  -1.224195  0  -0.280903  0.032627  0  3.719448  0
N  N133  1  0.92459580  0.15125651  0.53393627  1  -1.200075  0  -0.280646  0.032659  0  3.719094  0
N  N134  1  0.07541774  0.53392301  0.15125149  1  -1.20008  0  -0.280651  0.032473  0  3.719488  0
O  O135  1  0.22851050  0.92334955  0.41214088  1  -1.229646  0  -0.373616  -0.570878  0  2.502753  0
O  O136  1  0.86841355  0.44449927  0.81060672  1  -1.185721  0  -0.319667  -0.541769  0  2.224708  0
O  O137  1  0.11658604  0.07695788  0.56827510  1  -1.209693  0  -0.332356  -0.529875  0  2.29952  0
O  O138  1  0.89511686  0.58793360  0.51123446  1  -1.236671  0  -0.373944  -0.571089  0  2.501758  0
O  O139  1  0.43832617  0.07667638  0.48878651  1  -1.22941  0  -0.373754  -0.570499  0  2.503573  0
O  O140  1  0.55046321  0.92304121  0.49124685  1  -1.209682  0  -0.332535  -0.530036  0  2.299785  0
O  O141  1  0.10487260  0.51123333  0.58793324  1  -1.236649  0  -0.373936  -0.571058  0  2.502033  0
O  O142  1  0.78308308  0.43183859  0.50877844  1  -1.212112  0  -0.332367  -0.529798  0  2.300575  0
O  O143  1  0.77149468  0.41214406  0.92334497  1  -1.229376  0  -0.373637  -0.570859  0  2.502721  0
O  O144  1  0.76925701  0.57309223  0.91657840  1  -1.233989  0  -0.354776  -0.619842  0  2.217162  0
O  O145  1  0.44955225  0.49125351  0.92304872  1  -1.209819  0  -0.33259  -0.530063  0  2.299516  0
O  O146  1  0.23074229  0.91658290  0.57309256  1  -1.23407  0  -0.354794  -0.619949  0  2.217136  0
O  O147  1  0.56167698  0.48879585  0.07667551  1  -1.229065  0  -0.373863  -0.570739  0  2.503209  0
O  O148  1  0.10289758  0.34357652  0.42695500  1  -1.225194  0  -0.355024  -0.620574  0  2.217464  0
O  O149  1  0.21689967  0.50876686  0.43183325  1  -1.212075  0  -0.332355  -0.529945  0  2.300253  0
O  O150  1  0.20181428  0.36611002  0.55556887  1  -1.186369  0  -0.319737  -0.541866  0  2.224714  0
O  O151  1  0.89705955  0.42695974  0.34357996  1  -1.225407  0  -0.354974  -0.620515  0  2.217641  0
O  O152  1  0.46469079  0.63387359  0.18942792  1  -1.182958  0  -0.319538  -0.541676  0  2.225159  0
O  O153  1  0.43644125  0.08338271  0.65646057  1  -1.226882  0  -0.354912  -0.620445  0  2.217565  0
O  O154  1  0.88345508  0.56826384  0.07694632  1  -1.209194  0  -0.332388  -0.529906  0  2.299225  0
O  O155  1  0.53529794  0.18943165  0.63387420  1  -1.182834  0  -0.319515  -0.541658  0  2.224992  0
O  O156  1  0.56358124  0.65645961  0.08338427  1  -1.226962  0  -0.354882  -0.620447  0  2.21725  0
O  O157  1  0.13158387  0.81060929  0.44449778  1  -1.185754  0  -0.319692  -0.541821  0  2.224618  0
O  O158  1  0.79817848  0.55557873  0.36611635  1  -1.186492  0  -0.319764  -0.54198  0  2.224835  0
