# generated using pymatgen
data_CuH2C3SN
_symmetry_space_group_name_H-M   'P 1'
_cell_length_a   7.18873797
_cell_length_b   7.70736288
_cell_length_c   7.70741332
_cell_angle_alpha   114.09108142
_cell_angle_beta   89.99935172
_cell_angle_gamma   89.99933586
_symmetry_Int_Tables_number   1
_chemical_formula_structural   CuH2C3SN
_chemical_formula_sum   'Cu4 H8 C12 S4 N4'
_cell_volume   389.84254646
_cell_formula_units_Z   4
loop_
 _symmetry_equiv_pos_site_id
 _symmetry_equiv_pos_as_xyz
  1  'x, y, z'
loop_
 _atom_site_type_symbol
 _atom_site_label
 _atom_site_symmetry_multiplicity
 _atom_site_fract_x
 _atom_site_fract_y
 _atom_site_fract_z
 _atom_site_occupancy
 _atom_site_pbe_bader_spin_density
 _atom_site_pbe_cm5_charge
 _atom_site_pbe_ddec_charge
 _atom_site_pbe_ddec_spin_density
 _atom_site_pbe_ddec_sum_bond_order
 _atom_site_pbe_magmom
Cu  Cu0  1  0.25000429  0.70207082  0.56344608  1  0  0.409492  0.301373  0  2.787924  0
Cu  Cu1  1  0.74999092  0.43655479  0.29792529  1  0  0.409514  0.30142  0  2.787868  0
Cu  Cu2  1  0.99999858  0.00451374  0.99548304  1  0  0.435191  0.377345  0  2.607568  0
Cu  Cu3  1  0.50000400  0.00452941  0.99546867  1  0  0.435117  0.377308  0  2.607612  0
H  H4  1  0.24999966  0.65845342  0.92244936  1  0  0.10385  0.07941  0  1.062825  0
H  H5  1  0.74999704  0.07755954  0.34155041  1  0  0.10385  0.079455  0  1.062804  0
H  H6  1  0.24998421  0.39957969  0.03357337  1  0  0.093827  0.108645  0  1.046817  0
H  H7  1  0.75001233  0.96642948  0.60041368  1  0  0.093829  0.108646  0  1.046894  0
H  H8  1  0.25000093  0.00127075  0.44341370  1  0  0.095241  0.106807  0  1.069067  0
H  H9  1  0.75000554  0.55659406  0.99872116  1  0  0.095265  0.106863  0  1.06897  0
H  H10  1  0.25001507  0.27729116  0.35542717  1  0  0.105062  0.06789  0  1.030114  0
H  H11  1  0.74998576  0.64458316  0.72270652  1  0  0.105042  0.067827  0  1.030286  0
C  C12  1  0.24999977  0.51105524  0.82031462  1  0  0.032606  0.093499  0  3.928702  0
C  C13  1  0.74999833  0.17968734  0.48893864  1  0  0.032546  0.093352  0  3.928886  0
C  C14  1  0.24999196  0.36532940  0.88179035  1  0  -0.094005  -0.165711  0  3.919254  0
C  C15  1  0.75000758  0.11821505  0.63466239  1  0  -0.09393  -0.16566  0  3.919214  0
C  C16  1  0.24999530  0.17701341  0.74618622  1  0  0.001852  0.184885  0  3.955582  0
C  C17  1  0.75000704  0.25382075  0.82298566  1  0  0.001914  0.185077  0  3.955506  0
C  C18  1  0.25000080  0.14493520  0.55386462  1  0  -0.092705  -0.164827  0  3.922724  0
C  C19  1  0.75000289  0.44614744  0.85506088  1  0  -0.092848  -0.165038  0  3.922797  0
C  C20  1  0.25000849  0.29893148  0.50453945  1  0  0.035763  0.100377  0  3.929097  0
C  C21  1  0.74999237  0.49547593  0.70106682  1  0  0.035868  0.100451  0  3.92922  0
C  C22  1  0.99999700  0.76783264  0.23216435  1  0  0.156893  0.287798  0  4.188739  0
C  C23  1  0.49999686  0.76785243  0.23214123  1  0  0.156995  0.288205  0  4.188412  0
S  S24  1  0.24999689  0.98580265  0.81734723  1  0  -0.285316  -0.41232  0  3.841308  0
S  S25  1  0.75000666  0.18265783  0.01418748  1  0  -0.285338  -0.412433  0  3.841537  0
S  S26  1  0.99999703  0.64147941  0.35852402  1  0  -0.193027  -0.317116  0  3.349704  0
S  S27  1  0.49999411  0.64148653  0.35850497  1  0  -0.193085  -0.317309  0  3.349106  0
N  N28  1  0.25000800  0.48097894  0.63483079  1  0  -0.370295  -0.214743  0  3.642801  0
N  N29  1  0.74999006  0.36517983  0.51901782  1  0  -0.370337  -0.214705  0  3.642663  0
N  N30  1  0.99999559  0.85934855  0.14064395  1  0  -0.434417  -0.433262  0  3.456646  0
N  N31  1  0.50000101  0.85936286  0.14063293  1  0  -0.434413  -0.433511  0  3.457305  0
