# generated using pymatgen
data_CoH16C20N6O5
_symmetry_space_group_name_H-M   'P 1'
_cell_length_a   9.03631799
_cell_length_b   10.00719202
_cell_length_c   11.34457652
_cell_angle_alpha   81.32070762
_cell_angle_beta   85.43153775
_cell_angle_gamma   70.94473181
_symmetry_Int_Tables_number   1
_chemical_formula_structural   CoH16C20N6O5
_chemical_formula_sum   'Co2 H32 C40 N12 O10'
_cell_volume   958.04492147
_cell_formula_units_Z   2
loop_
 _symmetry_equiv_pos_site_id
 _symmetry_equiv_pos_as_xyz
  1  'x, y, z'
loop_
 _atom_site_type_symbol
 _atom_site_label
 _atom_site_symmetry_multiplicity
 _atom_site_fract_x
 _atom_site_fract_y
 _atom_site_fract_z
 _atom_site_occupancy
 _atom_site_pbe_cm5_charge
 _atom_site_pbe_ddec_charge
 _atom_site_pbe_ddec_spin_density
 _atom_site_pbe_ddec_sum_bond_order
 _atom_site_pbe_magmom
Co  Co0  1  0.50027335  0.31377854  0.61463042  1  0.670791  0.893151  -2.810984  2.535518  -2.562
Co  Co1  1  0.49972941  0.68622104  0.38537404  1  0.670773  0.893147  -2.811052  2.535603  -2.562
H  H2  1  0.46853261  0.25319895  0.89161332  1  0.306313  0.36478  0.000234  0.966977  0.0
H  H3  1  0.53146902  0.74680063  0.10838944  1  0.306335  0.364808  0.000235  0.966945  0.0
H  H4  1  0.15194166  0.04098513  0.81372795  1  0.100289  0.101127  5.8e-05  1.001381  0.0
H  H5  1  0.84805476  0.95901978  0.18627003  1  0.100289  0.1011  5.9e-05  1.00145  0.0
H  H6  1  0.25434700  0.95287153  0.01816047  1  0.099442  0.098624  -3.8e-05  1.025033  0.0
H  H7  1  0.74565054  0.04713019  0.98183787  1  0.09942  0.098578  -3.8e-05  1.025083  0.0
H  H8  1  0.21594357  0.73315354  0.13002797  1  0.107691  0.116863  0.000118  0.99555  0.0
H  H9  1  0.78405544  0.26684710  0.86996953  1  0.107731  0.11694  0.000118  0.995507  0.0
H  H10  1  0.07285045  0.60380630  0.03799815  1  0.096993  0.094415  2.8e-05  1.03828  0.0
H  H11  1  0.92714745  0.39619435  0.96199767  1  0.096975  0.09437  2.8e-05  1.038271  0.0
H  H12  1  0.88853390  0.61236723  0.89102379  1  0.111739  0.09779  7.2e-05  1.004633  0.0
H  H13  1  0.11146622  0.38763342  0.10897365  1  0.11173  0.097758  7.2e-05  1.004646  0.0
H  H14  1  0.87092933  0.72250796  0.75243773  1  0.113478  0.100043  -6.6e-05  1.026935  0.0
H  H15  1  0.12906968  0.27749268  0.24755889  1  0.113485  0.100061  -6.6e-05  1.026897  0.0
H  H16  1  0.87392813  0.93183548  0.67876996  1  0.122619  0.115784  7.8e-05  0.985299  0.0
H  H17  1  0.12606865  0.06816837  0.32122814  1  0.122588  0.115733  7.9e-05  0.985346  0.0
H  H18  1  0.99400519  0.04259773  0.66587381  1  0.115929  0.101164  7.6e-05  0.999119  0.0
H  H19  1  0.00599012  0.95740718  0.33412514  1  0.115914  0.101155  7.6e-05  0.999164  0.0
H  H20  1  0.14496013  0.29055264  0.60642556  1  0.133485  0.100294  0.0001  1.003766  0.0
H  H21  1  0.85504294  0.70944907  0.39357065  1  0.13346  0.100287  0.000101  1.003751  0.0
H  H22  1  0.29337386  0.55282255  0.79363409  1  0.142789  0.118261  8.9e-05  1.011526  0.0
H  H23  1  0.70662704  0.44717596  0.20636887  1  0.14279  0.118269  8.9e-05  1.011529  0.0
H  H24  1  0.14757149  0.63132530  0.40739461  1  0.135589  0.106906  0.000125  1.019861  0.0
H  H25  1  0.85242679  0.36867747  0.59260530  1  0.135589  0.106889  0.000125  1.019894  0.0
H  H26  1  0.29872944  0.90950079  0.57467718  1  0.146522  0.126571  0.000135  0.989363  0.0
H  H27  1  0.70126845  0.09050306  0.42532086  1  0.146513  0.126568  0.000134  0.989355  0.0
H  H28  1  0.43544559  0.15353078  0.40282983  1  0.106673  0.123541  9.2e-05  1.033063  0.0
H  H29  1  0.56455497  0.84646240  0.59717563  1  0.106723  0.123609  9.2e-05  1.03309  0.0
H  H30  1  0.42963228  0.06930359  0.04224494  1  0.10149  0.111478  -1.8e-05  1.054663  0.0
H  H31  1  0.57036972  0.93069492  0.95775618  1  0.101485  0.111453  -1.8e-05  1.054669  0.0
H  H32  1  0.42570968  0.48354531  0.10798734  1  0.110453  0.134848  -0.000111  1.020884  0.0
H  H33  1  0.57429273  0.51644893  0.89201785  1  0.110476  0.134832  -0.000111  1.021066  0.0
C  C34  1  0.03561444  0.74529399  0.87235241  1  -0.014591  0.033992  -1.8e-05  3.962512  0.0
C  C35  1  0.96438530  0.25470772  0.12764402  1  -0.014776  0.033743  -1.7e-05  3.962616  0.0
C  C36  1  0.05723513  0.87042146  0.80889616  1  -0.014778  0.03434  0.00011  3.947388  0.0
C  C37  1  0.94276239  0.12958025  0.19110042  1  -0.01472  0.034473  0.00011  3.947356  0.0
C  C38  1  0.13660189  0.94337888  0.86250512  1  -0.089602  -0.128263  -8.2e-05  3.990648  0.0
C  C39  1  0.86339675  0.05662283  0.13749227  1  -0.089588  -0.128231  -8.2e-05  3.990826  0.0
C  C40  1  0.19391169  0.89477369  0.97695214  1  -0.084484  -0.059882  -4e-05  3.996612  0.0
C  C41  1  0.80608621  0.10522695  0.02304544  1  -0.084466  -0.059813  -4e-05  3.996586  0.0
C  C42  1  0.17134753  0.77198964  0.04049339  1  -0.083301  -0.06547  -2.1e-05  3.9712  0.0
C  C43  1  0.82865481  0.22800781  0.95950256  1  -0.083345  -0.065591  -2.2e-05  3.97113  0.0
C  C44  1  0.09223159  0.69890778  0.98789854  1  -0.090586  -0.127676  -2e-06  3.975093  0.0
C  C45  1  0.90776779  0.30109180  0.01209733  1  -0.09043  -0.127466  -2e-06  3.974967  0.0
C  C46  1  0.95455664  0.65875966  0.82046090  1  -0.0477  -0.13886  -0.000493  3.905085  -0.001
C  C47  1  0.04544310  0.34124205  0.17953553  1  -0.047677  -0.138746  -0.000493  3.905023  -0.001
C  C48  1  0.99420903  0.93180481  0.68590321  1  -0.042784  -0.132548  -0.000351  3.887486  -0.001
C  C49  1  0.00578775  0.06819903  0.31409313  1  -0.042798  -0.13257  -0.000351  3.887508  -0.001
C  C50  1  0.14346772  0.37059487  0.66174004  1  0.144588  0.144954  0.003319  3.98709  0.002
C  C51  1  0.85653537  0.62940685  0.33825793  1  0.144625  0.144927  0.003321  3.987106  0.002
C  C52  1  0.22259086  0.50402992  0.75357024  1  0.15981  0.094537  0.003271  3.890927  0.001
C  C53  1  0.77740780  0.49597180  0.24643156  1  0.159826  0.094575  0.003272  3.891051  0.001
C  C54  1  0.15071481  0.70845310  0.46418654  1  0.144021  0.144068  0.003687  3.971995  0.002
C  C55  1  0.84928384  0.29154861  0.53581349  1  0.144034  0.144141  0.003686  3.972007  0.002
C  C56  1  0.23091134  0.84812704  0.54787225  1  0.161598  0.087829  0.008037  3.879419  0.004
C  C57  1  0.76908434  0.15187681  0.45212681  1  0.161604  0.087852  0.008035  3.879404  0.004
C  C58  1  0.42531389  0.32994723  0.26361786  1  -0.020807  -0.024277  -0.004937  4.027757  -0.008
C  C59  1  0.57469035  0.67004809  0.73638530  1  -0.020798  -0.024388  -0.004937  4.028047  -0.008
C  C60  1  0.43397746  0.18904734  0.30725362  1  -0.096873  -0.163287  0.00135  3.970706  0.0
C  C61  1  0.56602384  0.81094691  0.69275253  1  -0.096964  -0.163372  0.001349  3.9709  0.0
C  C62  1  0.43989433  0.09453123  0.22642222  1  -0.026109  -0.019232  -0.002019  4.036315  -0.003
C  C63  1  0.56010214  0.90546729  0.77358280  1  -0.025987  -0.019157  -0.00202  4.036113  -0.003
C  C64  1  0.43147316  0.14207829  0.10381184  1  -0.101011  -0.236122  0.002754  3.949909  0.001
C  C65  1  0.56852996  0.85792022  0.89619097  1  -0.101038  -0.236113  0.002754  3.949825  0.001
C  C66  1  0.42879231  0.28148162  0.06034622  1  0.079915  0.320888  -0.000547  4.109599  -0.001
C  C67  1  0.57121155  0.71851476  0.93965682  1  0.079875  0.320894  -0.000547  4.109652  -0.001
C  C68  1  0.42574450  0.37547442  0.14091887  1  -0.093866  -0.211327  0.004507  3.89826  0.002
C  C69  1  0.57425975  0.62452090  0.85908605  1  -0.093876  -0.211302  0.004506  3.898512  0.002
C  C70  1  0.42194119  0.43219442  0.34773867  1  0.219659  0.581995  0.001529  4.164511  -0.002
C  C71  1  0.57806267  0.56780196  0.65226349  1  0.219725  0.582171  0.00153  4.164477  -0.002
C  C72  1  0.45956044  0.94173326  0.27057510  1  0.196551  0.54901  0.007236  4.217983  0.006
C  C73  1  0.54043861  0.05826419  0.72942636  1  0.196535  0.549015  0.007234  4.218097  0.006
N  N74  1  0.06555903  0.54144360  0.76367753  1  -0.134437  0.164628  -0.000481  3.7276  -0.001
N  N75  1  0.93444145  0.45855918  0.23631959  1  -0.134425  0.164543  -0.000481  3.727678  -0.001
N  N76  1  0.01230446  0.45702849  0.70577353  1  -0.228703  -0.276078  -0.001856  3.10404  -0.003
N  N77  1  0.98769599  0.54297749  0.29421964  1  -0.228766  -0.276064  -0.001856  3.104098  -0.003
N  N78  1  0.27566638  0.39531806  0.68916546  1  -0.348382  -0.334748  -0.024826  3.575181  -0.04
N  N79  1  0.72433710  0.60468258  0.31083616  1  -0.348374  -0.334752  -0.024829  3.575243  -0.04
N  N80  1  0.08587761  0.85379195  0.59075225  1  -0.138935  0.154364  0.000683  3.741547  0.0
N  N81  1  0.91411842  0.14621403  0.40924385  1  -0.138857  0.154417  0.000683  3.741427  0.0
N  N82  1  0.03215229  0.76571793  0.53769608  1  -0.230055  -0.286453  -0.001899  3.125344  -0.003
N  N83  1  0.96784523  0.23428699  0.46230183  1  -0.230118  -0.286535  -0.001899  3.12539  -0.003
N  N84  1  0.27543446  0.75652424  0.46737630  1  -0.341838  -0.33983  -0.02128  3.576976  -0.041
N  N85  1  0.72456495  0.24347534  0.53262485  1  -0.341849  -0.339886  -0.021278  3.577046  -0.041
O  O86  1  0.40809411  0.39464784  0.45930256  1  -0.316041  -0.563079  -0.050297  2.487032  -0.082
O  O87  1  0.59190680  0.60534747  0.54069995  1  -0.316038  -0.563127  -0.050294  2.487219  -0.082
O  O88  1  0.43189536  0.55374090  0.30220764  1  -0.303769  -0.533685  -0.050702  2.399708  -0.08
O  O89  1  0.56810594  0.44625655  0.69780073  1  -0.303841  -0.533762  -0.050699  2.399557  -0.08
O  O90  1  0.50427209  0.89353046  0.37741382  1  -0.313134  -0.535535  -0.044469  2.280922  -0.073
O  O91  1  0.49572880  0.10646485  0.62258693  1  -0.313114  -0.5355  -0.044464  2.280916  -0.073
O  O92  1  0.43193734  0.86123924  0.20376593  1  -0.312961  -0.570722  -0.022058  2.230103  -0.037
O  O93  1  0.56806318  0.13875714  0.79623470  1  -0.312985  -0.570765  -0.022058  2.230226  -0.037
O  O94  1  0.42824377  0.33149564  0.94265487  1  -0.35366  -0.469158  -6.5e-05  2.371261  0.0
O  O95  1  0.57175973  0.66850180  0.05734982  1  -0.35369  -0.469181  -6.4e-05  2.371253  0.0
