# generated using pymatgen
data_ZnH20C14(NO)4
_symmetry_space_group_name_H-M   'P 1'
_cell_length_a   7.89686541
_cell_length_b   8.35223236
_cell_length_c   13.68825685
_cell_angle_alpha   76.45606954
_cell_angle_beta   85.88800598
_cell_angle_gamma   71.69784441
_symmetry_Int_Tables_number   1
_chemical_formula_structural   ZnH20C14(NO)4
_chemical_formula_sum   'Zn2 H40 C28 N8 O8'
_cell_volume   833.31942493
_cell_formula_units_Z   2
loop_
 _symmetry_equiv_pos_site_id
 _symmetry_equiv_pos_as_xyz
  1  'x, y, z'
loop_
 _atom_site_type_symbol
 _atom_site_label
 _atom_site_symmetry_multiplicity
 _atom_site_fract_x
 _atom_site_fract_y
 _atom_site_fract_z
 _atom_site_occupancy
 _atom_site_hle17_bader_spin_density
 _atom_site_hle17_ddec_charge
 _atom_site_hle17_ddec_spin_density
 _atom_site_hle17_ddec_sum_bond_order
 _atom_site_hle17_magmom
 _atom_site_hse06_10hf_bader_spin_density
 _atom_site_hse06_10hf_ddec_charge
 _atom_site_hse06_10hf_ddec_spin_density
 _atom_site_hse06_10hf_ddec_sum_bond_order
 _atom_site_hse06_10hf_magmom
 _atom_site_hse06_bader_spin_density
 _atom_site_hse06_ddec_charge
 _atom_site_hse06_ddec_spin_density
 _atom_site_hse06_ddec_sum_bond_order
 _atom_site_hse06_magmom
 _atom_site_pbe_bader_spin_density
 _atom_site_pbe_cm5_charge
 _atom_site_pbe_ddec_charge
 _atom_site_pbe_ddec_spin_density
 _atom_site_pbe_ddec_sum_bond_order
 _atom_site_pbe_magmom
Zn  Zn0  1  0.61753737  0.58382377  0.24672000  1  0  0.99627  0  1.902275  0  0  0.799843  0  2.387821  0  0  0.845826  0  2.332994  0  0  0.691646  0.767813  0  2.425455  0
Zn  Zn1  1  0.38246038  0.41618864  0.75328146  1  0  0.996247  0  1.901991  0  0  0.799903  0  2.387487  0  0  0.845887  0  2.332664  0  0  0.691643  0.767872  0  2.425122  0
H  H2  1  0.93286602  0.73007144  0.29014543  1  0  0.10825  0  0.958248  0  0  0.113381  0  1.027199  0  0  0.116206  0  1.024249  0  0  0.137154  0.11126  0  1.029346  0
H  H3  1  0.06712496  0.26993834  0.70985741  1  0  0.108326  0  0.958183  0  0  0.113438  0  1.027146  0  0  0.116263  0  1.024199  0  0  0.137187  0.111316  0  1.029295  0
H  H4  1  0.88344430  0.15415566  0.33820205  1  0  0.093391  0  0.96905  0  0  0.10483  0  1.03356  0  0  0.107195  0  1.031663  0  0  0.107519  0.102994  0  1.035078  0
H  H5  1  0.11655387  0.84585545  0.66180103  1  0  0.093431  0  0.969079  0  0  0.104865  0  1.033611  0  0  0.107228  0  1.03172  0  0  0.10753  0.103029  0  1.035129  0
H  H6  1  0.03732968  0.94379036  0.33778170  1  0  0.087925  0  0.942259  0  0  0.102977  0  1.005541  0  0  0.104561  0  1.004204  0  0  0.111641  0.101686  0  1.006658  0
H  H7  1  0.96266890  0.05622339  0.66221223  1  0  0.087944  0  0.942211  0  0  0.102998  0  1.005503  0  0  0.104584  0  1.004164  0  0  0.111638  0.101688  0  1.006639  0
H  H8  1  0.06563813  0.70778174  0.98426357  1  0  0.094429  0  0.935334  0  0  0.109753  0  0.996304  0  0  0.111189  0  0.995414  0  0  0.114977  0.108618  0  0.997083  0
H  H9  1  0.93436413  0.29220479  0.01573844  1  0  0.094447  0  0.935309  0  0  0.109736  0  0.996275  0  0  0.111176  0  0.99538  0  0  0.114972  0.108604  0  0.997054  0
H  H10  1  0.15427036  0.78480998  0.86545802  1  0  0.08153  0  0.927086  0  0  0.096909  0  0.987909  0  0  0.097685  0  0.987941  0  0  0.110416  0.096281  0  0.987974  0
H  H11  1  0.84573697  0.21517657  0.13454451  1  0  0.081546  0  0.927079  0  0  0.096928  0  0.987824  0  0  0.097683  0  0.987887  0  0  0.110449  0.096305  0  0.987891  0
H  H12  1  0.94933573  0.83275765  0.51270052  1  0  0.069207  0  0.934033  0  0  0.089562  0  0.992214  0  0  0.089804  0  0.993465  0  0  0.094246  0.089266  0  0.99148  0
H  H13  1  0.05068471  0.16723549  0.48729322  1  0  0.069249  0  0.934063  0  0  0.089569  0  0.992269  0  0  0.089812  0  0.993524  0  0  0.094242  0.089272  0  0.991537  0
H  H14  1  0.79716480  0.03961052  0.51491601  1  0  0.068326  0  0.929149  0  0  0.088685  0  0.987131  0  0  0.089059  0  0.988239  0  0  0.093933  0.088329  0  0.98646  0
H  H15  1  0.20285394  0.96037609  0.48508749  1  0  0.068389  0  0.929072  0  0  0.088786  0  0.986992  0  0  0.089165  0  0.988098  0  0  0.093948  0.088428  0  0.986321  0
H  H16  1  0.53608285  0.15503498  0.36812997  1  0  0.129569  0  0.972406  0  0  0.136801  0  1.035631  0  0  0.140444  0  1.033418  0  0  0.122713  0.1341  0  1.03737  0
H  H17  1  0.46391869  0.84497747  0.63186694  1  0  0.129542  0  0.972418  0  0  0.136791  0  1.035615  0  0  0.140431  0  1.033404  0  0  0.12271  0.13409  0  1.037355  0
H  H18  1  0.24660402  0.63109231  0.13899347  1  0  0.104553  0  0.973187  0  0  0.109319  0  1.044516  0  0  0.112167  0  1.041262  0  0  0.135001  0.107159  0  1.0469  0
H  H19  1  0.75339870  0.36890069  0.86100834  1  0  0.104527  0  0.97316  0  0  0.109235  0  1.044554  0  0  0.112077  0  1.041304  0  0  0.135008  0.107075  0  1.046938  0
H  H20  1  0.89593567  0.01451073  0.90552124  1  0  0.074656  0  0.92968  0  0  0.097748  0  0.981288  0  0  0.097983  0  0.98244  0  0  0.096052  0.097476  0  0.980583  0
H  H21  1  0.10407165  0.98547583  0.09447909  1  0  0.074667  0  0.929664  0  0  0.097688  0  0.981312  0  0  0.097919  0  0.982468  0  0  0.096048  0.097419  0  0.980602  0
H  H22  1  0.08867645  0.07804205  0.90465487  1  0  0.078704  0  0.940773  0  0  0.094262  0  1.006811  0  0  0.095178  0  1.007129  0  0  0.092508  0.093517  0  1.006663  0
H  H23  1  0.91133004  0.92194710  0.09534366  1  0  0.078774  0  0.940762  0  0  0.094316  0  1.006758  0  0  0.095233  0  1.007074  0  0  0.092494  0.093572  0  1.006611  0
H  H24  1  0.45920478  0.85731639  0.86901970  1  0  0.111547  0  0.974445  0  0  0.12004  0  1.038705  0  0  0.122089  0  1.038955  0  0  0.11881  0.118536  0  1.038665  0
H  H25  1  0.54079620  0.14267014  0.13097870  1  0  0.111562  0  0.97447  0  0  0.120081  0  1.038692  0  0  0.122129  0  1.03894  0  0  0.118832  0.118577  0  1.038652  0
H  H26  1  0.37354264  0.93256973  0.31154809  1  0  0.106973  0  0.976275  0  0  0.114351  0  1.040584  0  0  0.11733  0  1.03851  0  0  0.115847  0.112149  0  1.042219  0
H  H27  1  0.62644585  0.06745171  0.68844956  1  0  0.106946  0  0.976322  0  0  0.114386  0  1.04055  0  0  0.117366  0  1.038476  0  0  0.115855  0.112182  0  1.042187  0
H  H28  1  0.72028446  0.73392053  0.02140555  1  0  0.111266  0  0.968263  0  0  0.120476  0  1.028991  0  0  0.123449  0  1.026998  0  0  0.117161  0.118225  0  1.030635  0
H  H29  1  0.27971740  0.26607118  0.97859501  1  0  0.111218  0  0.968295  0  0  0.12044  0  1.029013  0  0  0.123411  0  1.027021  0  0  0.117149  0.118188  0  1.030657  0
H  H30  1  0.16060267  0.19599550  0.27668681  1  0  0.124121  0  0.968995  0  0  0.14353  0  1.02979  0  0  0.145681  0  1.029417  0  0  0.092206  0.141981  0  1.030088  0
H  H31  1  0.83939374  0.80400527  0.72331051  1  0  0.124081  0  0.969008  0  0  0.143506  0  1.029787  0  0  0.145656  0  1.029414  0  0  0.092193  0.141956  0  1.030086  0
H  H32  1  0.26806040  0.35913143  0.23616206  1  0  0.13217  0  0.960556  0  0  0.151396  0  1.022297  0  0  0.153097  0  1.022821  0  0  0.09687  0.150158  0  1.021984  0
H  H33  1  0.73193725  0.64086545  0.76383575  1  0  0.132142  0  0.960625  0  0  0.151371  0  1.02235  0  0  0.153072  0  1.022874  0  0  0.096857  0.150133  0  1.022039  0
H  H34  1  0.20599576  0.26722122  0.14664320  1  0  0.127811  0  0.963194  0  0  0.150509  0  1.021023  0  0  0.15246  0  1.02116  0  0  0.096613  0.149161  0  1.020911  0
H  H35  1  0.79399098  0.73278986  0.85335306  1  0  0.127776  0  0.963259  0  0  0.15048  0  1.021088  0  0  0.152431  0  1.021226  0  0  0.096599  0.149132  0  1.020975  0
H  H36  1  0.32521517  0.32211860  0.49262426  1  0  0.127427  0  0.96095  0  0  0.14383  0  1.02465  0  0  0.146136  0  1.024704  0  0  0.089327  0.142183  0  1.024651  0
H  H37  1  0.67478799  0.67788092  0.50737076  1  0  0.127397  0  0.960965  0  0  0.143804  0  1.024666  0  0  0.14611  0  1.024721  0  0  0.089293  0.142157  0  1.024668  0
H  H38  1  0.11246969  0.45424954  0.43810889  1  0  0.12402  0  0.959861  0  0  0.143145  0  1.02406  0  0  0.145011  0  1.023926  0  0  0.09346  0.141796  0  1.024185  0
H  H39  1  0.88753178  0.54574735  0.56189095  1  0  0.124018  0  0.959803  0  0  0.143152  0  1.023993  0  0  0.14502  0  1.023856  0  0  0.09347  0.141803  0  1.024119  0
H  H40  1  0.22089481  0.53062376  0.51793838  1  0  0.138974  0  0.939108  0  0  0.159595  0  0.997611  0  0  0.162383  0  0.996333  0  0  0.099478  0.157609  0  0.998552  0
H  H41  1  0.77910117  0.46937440  0.48206152  1  0  0.138988  0  0.939084  0  0  0.15961  0  0.99759  0  0  0.162401  0  0.996311  0  0  0.099485  0.157625  0  0.99853  0
C  C42  1  0.98595194  0.44740648  0.20296275  1  0  0.726374  0  3.877617  0  0  0.687289  0  4.173789  0  0  0.719972  0  4.166978  0  0  0.198723  0.665082  0  4.177646  0
C  C43  1  0.01404450  0.55259815  0.79703913  1  0  0.72639  0  3.877314  0  0  0.68719  0  4.173658  0  0  0.719876  0  4.166845  0  0  0.198704  0.664987  0  4.177515  0
C  C44  1  0.80041037  0.81201572  0.30342346  1  0  0.16371  0  3.64615  0  0  0.101829  0  3.91183  0  0  0.115627  0  3.924018  0  0  0.146452  0.092912  0  3.903422  0
C  C45  1  0.19958272  0.18799929  0.69657052  1  0  0.163577  0  3.646055  0  0  0.101747  0  3.911744  0  0  0.115542  0  3.92393  0  0  0.146466  0.092832  0  3.903337  0
C  C46  1  0.91185011  0.01450637  0.36926082  1  0  -0.025956  0  3.624251  0  0  -0.087844  0  3.883349  0  0  -0.084458  0  3.893417  0  0  -0.059737  -0.089881  0  3.876456  0
C  C47  1  0.08815098  0.98549960  0.63073703  1  0  -0.026078  0  3.624098  0  0  -0.087995  0  3.883257  0  0  -0.084602  0  3.893315  0  0  -0.059752  -0.090017  0  3.876371  0
C  C48  1  0.13218111  0.80088275  0.94315045  1  0  -0.007508  0  3.602973  0  0  -0.068882  0  3.861469  0  0  -0.065037  0  3.872342  0  0  -0.053249  -0.071403  0  3.854183  0
C  C49  1  0.86782115  0.19910377  0.05685155  1  0  -0.007515  0  3.602992  0  0  -0.068756  0  3.861221  0  0  -0.06491  0  3.872112  0  0  -0.053269  -0.071293  0  3.853955  0
C  C50  1  0.92517797  0.97264910  0.48351785  1  0  -0.112492  0  3.68093  0  0  -0.153951  0  3.944064  0  0  -0.15545  0  3.958507  0  0  -0.160178  -0.152751  0  3.934017  0
C  C51  1  0.07483531  0.02734657  0.51647948  1  0  -0.112584  0  3.680947  0  0  -0.153986  0  3.944041  0  0  -0.155502  0  3.958501  0  0  -0.160165  -0.152782  0  3.933985  0
C  C52  1  0.58984823  0.03272855  0.34511237  1  0  -0.078294  0  3.661354  0  0  -0.117557  0  3.918408  0  0  -0.116827  0  3.937  0  0  -0.000888  -0.117965  0  3.906001  0
C  C53  1  0.41015033  0.96727739  0.65488997  1  0  -0.078269  0  3.66122  0  0  -0.117523  0  3.918273  0  0  -0.11679  0  3.936864  0  0  -0.000844  -0.117933  0  3.905869  0
C  C54  1  0.33255830  0.53976975  0.37035467  1  0  0.734  0  3.866587  0  0  0.698303  0  4.154197  0  0  0.73098  0  4.147916  0  0  0.198321  0.676098  0  4.157658  0
C  C55  1  0.66743519  0.46023616  0.62964643  1  0  0.734034  0  3.86654  0  0  0.6984  0  4.154078  0  0  0.731079  0  4.147796  0  0  0.198365  0.676193  0  4.157542  0
C  C56  1  0.34394649  0.67247470  0.08789933  1  0  0.170455  0  3.645278  0  0  0.107262  0  3.909926  0  0  0.121666  0  3.921655  0  0  0.146717  0.097961  0  3.901815  0
C  C57  1  0.65605579  0.32751571  0.91210359  1  0  0.17074  0  3.645265  0  0  0.107596  0  3.909966  0  0  0.122007  0  3.921688  0  0  0.146869  0.098295  0  3.901853  0
C  C58  1  0.02081135  0.98616135  0.94653338  1  0  -0.127463  0  3.667917  0  0  -0.170163  0  3.933243  0  0  -0.171537  0  3.94739  0  0  -0.163745  -0.168981  0  3.923407  0
C  C59  1  0.97919429  0.01382650  0.05346684  1  0  -0.127653  0  3.668075  0  0  -0.170256  0  3.933302  0  0  -0.171624  0  3.947448  0  0  -0.163722  -0.16907  0  3.923471  0
C  C60  1  0.45702111  0.79177532  0.94731829  1  0  -0.069845  0  3.678527  0  0  -0.108341  0  3.93425  0  0  -0.107738  0  3.954712  0  0  -0.001594  -0.108726  0  3.920544  0
C  C61  1  0.54297778  0.20821378  0.05268276  1  0  -0.069872  0  3.678674  0  0  -0.108389  0  3.934401  0  0  -0.107783  0  3.954861  0  0  -0.00159  -0.108777  0  3.920696  0
C  C62  1  0.51229519  0.92521772  0.31562156  1  0  -0.013893  0  3.769748  0  0  -0.0472  0  4.035652  0  0  -0.045377  0  4.054943  0  0  -0.006445  -0.048414  0  4.022701  0
C  C63  1  0.48769790  0.07479336  0.68438101  1  0  -0.013998  0  3.769776  0  0  -0.047353  0  4.035675  0  0  -0.045533  0  4.054969  0  0  -0.006518  -0.048563  0  4.022721  0
C  C64  1  0.58362028  0.73195443  0.02198680  1  0  -0.007033  0  3.758995  0  0  -0.043634  0  4.026576  0  0  -0.041774  0  4.046256  0  0  -0.007213  -0.044826  0  4.013387  0
C  C65  1  0.41638032  0.26803727  0.97801382  1  0  -0.006902  0  3.759086  0  0  -0.043504  0  4.026664  0  0  -0.041644  0  4.046346  0  0  -0.007182  -0.044696  0  4.013477  0
C  C66  1  0.16533313  0.30790884  0.21754171  1  0  -0.459163  0  3.671547  0  0  -0.536441  0  3.899242  0  0  -0.543873  0  3.903717  0  0  -0.25099  -0.531164  0  3.896013  0
C  C67  1  0.83465992  0.69209449  0.78245685  1  0  -0.459093  0  3.671396  0  0  -0.536337  0  3.899092  0  0  -0.54377  0  3.903567  0  0  -0.250949  -0.531064  0  3.895864  0
C  C68  1  0.24334576  0.45435733  0.46013946  1  0  -0.455772  0  3.665008  0  0  -0.532117  0  3.896088  0  0  -0.539557  0  3.899416  0  0  -0.250931  -0.526825  0  3.893672  0
C  C69  1  0.75665319  0.54564343  0.53985994  1  0  -0.455724  0  3.664969  0  0  -0.532094  0  3.89602  0  0  -0.539539  0  3.899348  0  0  -0.250914  -0.526804  0  3.893606  0
N  N70  1  0.77193107  0.95839174  0.33671446  1  0  -0.051965  0  3.573537  0  0  0.042754  0  3.792101  0  0  0.028354  0  3.818756  0  0  -0.242451  0.052247  0  3.7739  0
N  N71  1  0.22806918  0.04161682  0.66328305  1  0  -0.051792  0  3.573193  0  0  0.042907  0  3.791796  0  0  0.028512  0  3.818449  0  0  -0.242489  0.052397  0  3.773592  0
N  N72  1  0.30712282  0.75193707  0.99035596  1  0  -0.050911  0  3.556841  0  0  0.04465  0  3.772287  0  0  0.029988  0  3.798668  0  0  -0.240998  0.054328  0  3.754348  0
N  N73  1  0.69287903  0.24805075  0.00964662  1  0  -0.051065  0  3.557009  0  0  0.04442  0  3.772492  0  0  0.029763  0  3.798866  0  0  -0.241114  0.054103  0  3.754557  0
N  N74  1  0.64491956  0.78874871  0.28959785  1  0  -0.393128  0  3.344829  0  0  -0.310977  0  3.646719  0  0  -0.3311  0  3.65883  0  0  -0.363955  -0.29738  0  3.63829  0
N  N75  1  0.35507182  0.21125978  0.71040297  1  0  -0.393081  0  3.345005  0  0  -0.310974  0  3.646929  0  0  -0.331096  0  3.659045  0  0  -0.36396  -0.297378  0  3.638496  0
N  N76  1  0.51107571  0.65810980  0.10930468  1  0  -0.392597  0  3.337693  0  0  -0.311018  0  3.646142  0  0  -0.331187  0  3.656513  0  0  -0.36494  -0.297412  0  3.638871  0
N  N77  1  0.48892783  0.34188062  0.89069746  1  0  -0.392825  0  3.337815  0  0  -0.311267  0  3.646305  0  0  -0.331436  0  3.65667  0  0  -0.365072  -0.297663  0  3.639039  0
O  O78  1  0.49362236  0.45084035  0.35062044  1  0  -0.669773  0  1.985477  0  0  -0.589887  0  2.243095  0  0  -0.61815  0  2.227174  0  0  -0.343825  -0.570148  0  2.253386  0
O  O79  1  0.50636989  0.54917333  0.64937814  1  0  -0.669808  0  1.985303  0  0  -0.590009  0  2.242966  0  0  -0.618271  0  2.227045  0  0  -0.34385  -0.570273  0  2.253263  0
O  O80  1  0.85849911  0.41060650  0.26013876  1  0  -0.668963  0  2.035459  0  0  -0.589776  0  2.301842  0  0  -0.617987  0  2.285709  0  0  -0.339059  -0.570077  0  2.312318  0
O  O81  1  0.14149909  0.58940846  0.73987108  1  0  -0.668837  0  2.035194  0  0  -0.589716  0  2.301748  0  0  -0.617932  0  2.28562  0  0  -0.339047  -0.569998  0  2.312175  0
O  O82  1  0.25173307  0.68759087  0.32024417  1  0  -0.657574  0  1.877949  0  0  -0.608164  0  2.093785  0  0  -0.631622  0  2.085423  0  0  -0.338295  -0.591782  0  2.099044  0
O  O83  1  0.74825830  0.31241373  0.67975720  1  0  -0.657547  0  1.877959  0  0  -0.608147  0  2.093747  0  0  -0.631606  0  2.085386  0  0  -0.338296  -0.591762  0  2.099  0
O  O84  1  0.96824059  0.58614724  0.13917244  1  0  -0.643298  0  1.899878  0  0  -0.597077  0  2.122071  0  0  -0.619843  0  2.113503  0  0  -0.329282  -0.581195  0  2.12751  0
O  O85  1  0.03175670  0.41385868  0.86082995  1  0  -0.64335  0  1.899846  0  0  -0.597035  0  2.122041  0  0  -0.619799  0  2.113469  0  0  -0.329287  -0.581156  0  2.127476  0
