# generated using pymatgen
data_Bi2H3C7NO6
_symmetry_space_group_name_H-M   'P 1'
_cell_length_a   4.25892247
_cell_length_b   9.67877904
_cell_length_c   12.06365642
_cell_angle_alpha   109.75667669
_cell_angle_beta   89.99881897
_cell_angle_gamma   89.99987516
_symmetry_Int_Tables_number   1
_chemical_formula_structural   Bi2H3C7NO6
_chemical_formula_sum   'Bi4 H6 C14 N2 O12'
_cell_volume   468.00656662
_cell_formula_units_Z   2
loop_
 _symmetry_equiv_pos_site_id
 _symmetry_equiv_pos_as_xyz
  1  'x, y, z'
loop_
 _atom_site_type_symbol
 _atom_site_label
 _atom_site_symmetry_multiplicity
 _atom_site_fract_x
 _atom_site_fract_y
 _atom_site_fract_z
 _atom_site_occupancy
 _atom_site_hle17_bader_spin_density
 _atom_site_hle17_ddec_charge
 _atom_site_hle17_ddec_spin_density
 _atom_site_hle17_ddec_sum_bond_order
 _atom_site_hle17_magmom
 _atom_site_hse06_10hf_bader_spin_density
 _atom_site_hse06_10hf_ddec_charge
 _atom_site_hse06_10hf_ddec_spin_density
 _atom_site_hse06_10hf_ddec_sum_bond_order
 _atom_site_hse06_10hf_magmom
 _atom_site_hse06_bader_spin_density
 _atom_site_hse06_ddec_charge
 _atom_site_hse06_ddec_spin_density
 _atom_site_hse06_ddec_sum_bond_order
 _atom_site_hse06_magmom
 _atom_site_pbe_bader_spin_density
 _atom_site_pbe_cm5_charge
 _atom_site_pbe_ddec_charge
 _atom_site_pbe_ddec_spin_density
 _atom_site_pbe_ddec_sum_bond_order
 _atom_site_pbe_magmom
Bi  Bi0  1  0.79468579  0.65065071  0.86623841  1  0  1.738341  0  2.18363  0  0  1.525159  0  2.662445  0  0  1.60566  0  2.608541  0  0  0.836284  1.467608  0  2.701851  0
Bi  Bi1  1  0.29458851  0.34936714  0.13372696  1  0  1.738433  0  2.183557  0  0  1.525288  0  2.662343  0  0  1.605782  0  2.608445  0  0  0.836445  1.467751  0  2.701767  0
Bi  Bi2  1  0.32675665  0.96001273  0.87129978  1  0  1.667128  0  2.341151  0  0  1.464466  0  2.803783  0  0  1.53382  0  2.758364  0  0  0.787617  1.414579  0  2.834782  0
Bi  Bi3  1  0.82676394  0.03999294  0.12870101  1  0  1.667043  0  2.340858  0  0  1.464381  0  2.803444  0  0  1.533743  0  2.758024  0  0  0.787638  1.414495  0  2.834458  0
H  H4  1  0.03443357  0.12405409  0.71221237  1  0  0.114238  0  0.979052  0  0  0.11833  0  1.050408  0  0  0.122495  0  1.048031  0  0  0.105695  0.11542  0  1.052036  0
H  H5  1  0.53443445  0.87595071  0.28780026  1  0  0.114169  0  0.979267  0  0  0.118281  0  1.050568  0  0  0.122439  0  1.048213  0  0  0.105661  0.115351  0  1.05221  0
H  H6  1  0.02063614  0.07199928  0.49350133  1  0  0.101933  0  0.951331  0  0  0.111492  0  1.014659  0  0  0.114335  0  1.013074  0  0  0.10716  0.109333  0  1.015928  0
H  H7  1  0.52062630  0.92799790  0.50651017  1  0  0.101901  0  0.951519  0  0  0.111492  0  1.014802  0  0  0.114336  0  1.013216  0  0  0.10719  0.109343  0  1.016059  0
H  H8  1  0.58034083  0.46103358  0.54987154  1  0  0.092106  0  0.955073  0  0  0.094299  0  1.029106  0  0  0.098094  0  1.025291  0  0  0.11465  0.091531  0  1.031804  0
H  H9  1  0.08034619  0.53896442  0.45012648  1  0  0.092165  0  0.955011  0  0  0.094328  0  1.029095  0  0  0.098119  0  1.025288  0  0  0.114651  0.091561  0  1.031792  0
C  C10  1  0.33845279  0.31295932  0.74218265  1  0  0.085945  0  3.764292  0  0  0.090944  0  4.01036  0  0  0.09219  0  4.029425  0  0  0.11035  0.090067  0  3.99773  0
C  C11  1  0.83845870  0.68704520  0.25782190  1  0  0.086069  0  3.764387  0  0  0.091119  0  4.010359  0  0  0.092373  0  4.029416  0  0  0.110371  0.090197  0  3.997789  0
C  C12  1  0.15895900  0.19417377  0.67288969  1  0  -0.109215  0  3.697539  0  0  -0.132963  0  3.952672  0  0  -0.137799  0  3.971817  0  0  -0.078492  -0.130175  0  3.940274  0
C  C13  1  0.65897906  0.80581619  0.32711304  1  0  -0.109077  0  3.697494  0  0  -0.132849  0  3.952601  0  0  -0.13769  0  3.971737  0  0  -0.078315  -0.130026  0  3.940247  0
C  C14  1  0.14718498  0.16639424  0.55208211  1  0  -0.013812  0  3.69065  0  0  -0.039368  0  3.936912  0  0  -0.035731  0  3.954357  0  0  -0.064177  -0.041073  0  3.924997  0
C  C15  1  0.64717434  0.83361335  0.44793709  1  0  -0.013764  0  3.690004  0  0  -0.039386  0  3.936261  0  0  -0.03574  0  3.953699  0  0  -0.06428  -0.041105  0  3.924338  0
C  C16  1  0.30211734  0.26089683  0.50468343  1  0  -0.095621  0  3.702299  0  0  -0.069149  0  3.935041  0  0  -0.079594  0  3.956461  0  0  -0.009035  -0.062997  0  3.920973  0
C  C17  1  0.80213023  0.73909907  0.49532900  1  0  -0.095819  0  3.702498  0  0  -0.069239  0  3.935126  0  0  -0.079691  0  3.956548  0  0  -0.009038  -0.063074  0  3.921048  0
C  C18  1  0.46100708  0.38226519  0.58193819  1  0  0.136849  0  3.662643  0  0  0.096897  0  3.922841  0  0  0.104724  0  3.9383  0  0  0.056319  0.091973  0  3.912559  0
C  C19  1  0.96102040  0.61773438  0.41806495  1  0  0.136832  0  3.662349  0  0  0.09682  0  3.922582  0  0  0.104651  0  3.938039  0  0  0.056259  0.091893  0  3.912299  0
C  C20  1  0.38723826  0.34172501  0.87164183  1  0  0.623638  0  3.904045  0  0  0.567877  0  4.201894  0  0  0.603656  0  4.193136  0  0  0.217183  0.542537  0  4.207258  0
C  C21  1  0.88723546  0.65828039  0.12836177  1  0  0.623544  0  3.904092  0  0  0.567779  0  4.201904  0  0  0.603558  0  4.193142  0  0  0.217078  0.54245  0  4.207276  0
C  C22  1  0.30400202  0.22839571  0.37339600  1  0  0.649392  0  3.943439  0  0  0.596601  0  4.241129  0  0  0.632096  0  4.233564  0  0  0.207336  0.572652  0  4.24528  0
C  C23  1  0.80401880  0.77160237  0.62659711  1  0  0.649612  0  3.942897  0  0  0.596862  0  4.240494  0  0  0.632366  0  4.232921  0  0  0.207436  0.572904  0  4.244638  0
N  N24  1  0.48466456  0.40600291  0.69746425  1  0  -0.3482  0  3.192686  0  0  -0.294468  0  3.449461  0  0  -0.311369  0  3.471159  0  0  -0.293321  -0.283051  0  3.435358  0
N  N25  1  0.98467536  0.59399764  0.30253319  1  0  -0.348211  0  3.192318  0  0  -0.294469  0  3.449084  0  0  -0.311374  0  3.470779  0  0  -0.29327  -0.283042  0  3.43501  0
O  O26  1  0.56480471  0.44429519  0.92925897  1  0  -0.604862  0  2.111606  0  0  -0.54714  0  2.363094  0  0  -0.576738  0  2.357995  0  0  -0.274994  -0.526843  0  2.368031  0
O  O27  1  0.06480168  0.55570397  0.07073865  1  0  -0.604839  0  2.111621  0  0  -0.547161  0  2.363198  0  0  -0.576765  0  2.358099  0  0  -0.274968  -0.526845  0  2.368111  0
O  O28  1  0.24375483  0.25691197  0.91744762  1  0  -0.658681  0  2.070192  0  0  -0.584393  0  2.31631  0  0  -0.617017  0  2.308482  0  0  -0.285085  -0.560873  0  2.320881  0
O  O29  1  0.74377307  0.74308529  0.08255648  1  0  -0.658599  0  2.070101  0  0  -0.584309  0  2.316178  0  0  -0.61693  0  2.308349  0  0  -0.285014  -0.560793  0  2.320742  0
O  O30  1  0.35546185  0.33554942  0.33684675  1  0  -0.642634  0  2.015555  0  0  -0.582038  0  2.260777  0  0  -0.611909  0  2.252375  0  0  -0.295086  -0.56087  0  2.265755  0
O  O31  1  0.85547468  0.66443965  0.66315432  1  0  -0.642745  0  2.015322  0  0  -0.58218  0  2.260562  0  0  -0.61206  0  2.252158  0  0  -0.295126  -0.561012  0  2.265534  0
O  O32  1  0.25662369  0.09572038  0.30970238  1  0  -0.694378  0  2.016498  0  0  -0.63414  0  2.252581  0  0  -0.662989  0  2.24657  0  0  -0.317479  -0.613827  0  2.255851  0
O  O33  1  0.75664782  0.90428451  0.69030618  1  0  -0.694393  0  2.0161  0  0  -0.634183  0  2.252178  0  0  -0.663034  0  2.246168  0  0  -0.317462  -0.613879  0  2.255455  0
O  O34  1  0.32747578  0.73817154  0.86845396  1  0  -1.024857  0  1.719587  0  0  -0.903898  0  1.998196  0  0  -0.949147  0  1.982155  0  0  -0.476614  -0.870627  0  2.008649  0
O  O35  1  0.82743015  0.26182642  0.13153315  1  0  -1.024879  0  1.719605  0  0  -0.903949  0  1.998233  0  0  -0.949193  0  1.982193  0  0  -0.47671  -0.870683  0  2.008705  0
O  O36  1  0.82650804  0.92407175  0.93525921  1  0  -1.017333  0  1.73721  0  0  -0.87852  0  1.981877  0  0  -0.924787  0  1.967769  0  0  -0.448382  -0.845378  0  1.990313  0
O  O37  1  0.32649600  0.07591414  0.06471882  1  0  -1.017419  0  1.737261  0  0  -0.878611  0  1.981947  0  0  -0.924882  0  1.967831  0  0  -0.44847  -0.845474  0  1.990394  0
