# generated using pymatgen
data_Zn4H6C12N6O7
_symmetry_space_group_name_H-M   'P 1'
_cell_length_a   14.30864047
_cell_length_b   14.30863725
_cell_length_c   14.30859183
_cell_angle_alpha   59.99951891
_cell_angle_beta   59.99957180
_cell_angle_gamma   59.99967525
_symmetry_Int_Tables_number   1
_chemical_formula_structural   Zn4H6C12N6O7
_chemical_formula_sum   'Zn16 H24 C48 N24 O28'
_cell_volume   2071.45017806
_cell_formula_units_Z   4
loop_
 _symmetry_equiv_pos_site_id
 _symmetry_equiv_pos_as_xyz
  1  'x, y, z'
loop_
 _atom_site_type_symbol
 _atom_site_label
 _atom_site_symmetry_multiplicity
 _atom_site_fract_x
 _atom_site_fract_y
 _atom_site_fract_z
 _atom_site_occupancy
 _atom_site_pbe_bader_charge
 _atom_site_pbe_bader_spin_density
 _atom_site_pbe_cm5_charge
 _atom_site_pbe_ddec_charge
 _atom_site_pbe_ddec_spin_density
 _atom_site_pbe_ddec_sum_bond_order
 _atom_site_pbe_magmom
Zn  Zn0  1  0.68080896  0.95758043  0.18080959  1  1.19155  0  0.701958  0.657045  0  2.537172  0
Zn  Zn1  1  0.31919105  0.81919097  0.04241907  1  1.191543  0  0.701934  0.656996  0  2.537168  0
Zn  Zn2  1  0.68080522  0.18080420  0.18080518  1  1.196264  0  0.701972  0.657139  0  2.537027  0
Zn  Zn3  1  0.54241895  0.81919131  0.81919083  1  1.19155  0  0.701942  0.657043  0  2.537144  0
Zn  Zn4  1  0.45758097  0.18080837  0.18080917  1  1.191553  0  0.701951  0.657092  0  2.537152  0
Zn  Zn5  1  0.31919498  0.81919577  0.81919510  1  1.196191  0  0.701976  0.657112  0  2.537071  0
Zn  Zn6  1  0.68080957  0.18080801  0.95758093  1  1.191545  0  0.701924  0.656979  0  2.537208  0
Zn  Zn7  1  0.31919084  0.04241913  0.81919150  1  1.191545  0  0.701937  0.657026  0  2.537171  0
Zn  Zn8  1  0.06896309  0.56896394  0.56896410  1  1.291648  0  0.663107  0.948308  0  2.411012  0
Zn  Zn9  1  0.70688261  0.43104086  0.43104021  1  1.288273  0  0.663102  0.948233  0  2.411058  0
Zn  Zn10  1  0.06895967  0.79311716  0.56895994  1  1.288286  0  0.663109  0.94823  0  2.411105  0
Zn  Zn11  1  0.93103957  0.43104004  0.20688372  1  1.288176  0  0.663011  0.948196  0  2.411272  0
Zn  Zn12  1  0.93103943  0.20688310  0.43104116  1  1.288287  0  0.663098  0.948213  0  2.411111  0
Zn  Zn13  1  0.06895993  0.56896063  0.79311657  1  1.288167  0  0.662996  0.948195  0  2.411344  0
Zn  Zn14  1  0.29311730  0.56896021  0.56895927  1  1.288291  0  0.663091  0.948185  0  2.411089  0
Zn  Zn15  1  0.93103531  0.43103702  0.43103699  1  1.291688  0  0.663119  0.948298  0  2.410985  0
H  H16  1  0.84479955  0.75377450  0.34479982  1  0.115864  0  0.124702  0.120128  0  0.992311  0
H  H17  1  0.44337702  0.65519843  0.24622602  1  0.126495  0  0.124711  0.120173  0  0.992379  0
H  H18  1  0.84480429  0.05662060  0.34480349  1  0.119332  0  0.124706  0.120123  0  0.992367  0
H  H19  1  0.74622702  0.65519872  0.94337560  1  0.12675  0  0.124729  0.120186  0  0.992337  0
H  H20  1  0.15519833  0.94337647  0.24622665  1  0.12663  0  0.124708  0.120162  0  0.992394  0
H  H21  1  0.25377359  0.34480026  0.05662440  1  0.126756  0  0.124698  0.120139  0  0.992322  0
H  H22  1  0.44337840  0.65519672  0.65519698  1  0.119319  0  0.124709  0.120132  0  0.992357  0
H  H23  1  0.74622629  0.94337662  0.65519883  1  0.126771  0  0.124713  0.120165  0  0.99239  0
H  H24  1  0.55662360  0.34480056  0.75377398  1  0.12689  0  0.124712  0.120152  0  0.9924  0
H  H25  1  0.15519632  0.65519695  0.94337841  1  0.119346  0  0.12469  0.120095  0  0.992328  0
H  H26  1  0.84480458  0.34480231  0.05662188  1  0.119339  0  0.124716  0.120156  0  0.99227  0
H  H27  1  0.84480159  0.05662321  0.75377335  1  0.126886  0  0.124701  0.120154  0  0.992409  0
H  H28  1  0.25377485  0.34479992  0.34479945  1  0.115868  0  0.12471  0.120141  0  0.9923  0
H  H29  1  0.84479969  0.34479835  0.75377648  1  0.115697  0  0.124702  0.120126  0  0.992341  0
H  H30  1  0.84480079  0.75377314  0.05662396  1  0.126944  0  0.124712  0.120176  0  0.992322  0
H  H31  1  0.55662341  0.75377386  0.34480193  1  0.126137  0  0.12472  0.12019  0  0.992362  0
H  H32  1  0.25377321  0.05662405  0.34480146  1  0.126532  0  0.124703  0.120151  0  0.992361  0
H  H33  1  0.55662012  0.34480435  0.34480302  1  0.119337  0  0.124709  0.120111  0  0.992378  0
H  H34  1  0.15520036  0.24622657  0.65519966  1  0.115847  0  0.124748  0.120141  0  0.992315  0
H  H35  1  0.15519620  0.94337966  0.65519708  1  0.119342  0  0.124706  0.120121  0  0.99236  0
H  H36  1  0.74622437  0.65520046  0.65520055  1  0.115829  0  0.124692  0.120098  0  0.992328  0
H  H37  1  0.15519981  0.24622723  0.94337552  1  0.126943  0  0.124696  0.120132  0  0.992312  0
H  H38  1  0.44337639  0.24622570  0.65519917  1  0.126596  0  0.124724  0.120199  0  0.992353  0
H  H39  1  0.15519912  0.65520163  0.24622433  1  0.115681  0  0.12469  0.120106  0  0.992359  0
C  C40  1  0.83195310  0.84034403  0.33195327  1  0.443282  0  0.026957  0.005032  0  3.956843  0
C  C41  1  0.50424860  0.66804711  0.15965702  1  0.405352  0  0.026866  0.004816  0  3.956937  0
C  C42  1  0.83195447  0.99575021  0.33195378  1  0.4329  0  0.026911  0.004933  0  3.956908  0
C  C43  1  0.65965572  0.66804819  0.00424944  1  0.408588  0  0.026921  0.004931  0  3.956953  0
C  C44  1  0.16804655  0.00424813  0.15965843  1  0.405754  0  0.026818  0.004739  0  3.957002  0
C  C45  1  0.34034500  0.33195230  0.99574895  1  0.408511  0  0.026913  0.004922  0  3.956968  0
C  C46  1  0.50424878  0.66804555  0.66804642  1  0.432881  0  0.026932  0.004953  0  3.956811  0
C  C47  1  0.65965639  0.00424881  0.66804750  1  0.405589  0  0.026867  0.004835  0  3.957059  0
C  C48  1  0.49575254  0.33195240  0.84034108  1  0.408175  0  0.026805  0.004775  0  3.956994  0
C  C49  1  0.16804525  0.66804653  0.00425086  1  0.43289  0  0.026977  0.005019  0  3.95684  0
C  C50  1  0.83195496  0.33195205  0.99574994  1  0.432907  0  0.026939  0.004973  0  3.956834  0
C  C51  1  0.83195267  0.99575225  0.84034157  1  0.408259  0  0.026818  0.004764  0  3.957015  0
C  C52  1  0.34034433  0.33195348  0.33195297  1  0.443273  0  0.026956  0.005037  0  3.95686  0
C  C53  1  0.83195366  0.33195225  0.84034446  1  0.443204  0  0.026956  0.005033  0  3.956812  0
C  C54  1  0.83195267  0.84034453  0.99574954  1  0.408317  0  0.026909  0.004865  0  3.956962  0
C  C55  1  0.49575094  0.84034313  0.33195369  1  0.46931  0  0.02687  0.004803  0  3.956985  0
C  C56  1  0.34034312  0.99575047  0.33195331  1  0.46934  0  0.02689  0.004862  0  3.956962  0
C  C57  1  0.49575003  0.33195443  0.33195439  1  0.432883  0  0.026939  0.004989  0  3.956827  0
C  C58  1  0.16804680  0.15965704  0.66804621  1  0.443265  0  0.026909  0.005023  0  3.95679  0
C  C59  1  0.16804515  0.00425057  0.66804541  1  0.432878  0  0.026913  0.004925  0  3.95688  0
C  C60  1  0.65965517  0.66804719  0.66804732  1  0.443229  0  0.026993  0.005061  0  3.956858  0
C  C61  1  0.16804754  0.15965543  0.00425075  1  0.408299  0  0.026914  0.004905  0  3.95695  0
C  C62  1  0.50424914  0.15965671  0.66804768  1  0.40865  0  0.026865  0.004781  0  3.956956  0
C  C63  1  0.16804504  0.66804761  0.15965744  1  0.443389  0  0.026921  0.004956  0  3.956842  0
C  C64  1  0.87433922  0.87565885  0.37433987  1  0.095131  0  -0.048992  -0.162787  0  4.078429  0
C  C65  1  0.62434090  0.62566198  0.12433709  1  0.047211  0  -0.049013  -0.162774  0  4.078442  0
C  C66  1  0.12566114  0.12434023  0.12433811  1  0.046729  0  -0.048961  -0.162675  0  4.078418  0
C  C67  1  0.37565983  0.37433851  0.87566130  1  0.04725  0  -0.048962  -0.162721  0  4.078481  0
C  C68  1  0.62433994  0.62566068  0.62566152  1  0.020458  0  -0.04898  -0.162731  0  4.078388  0
C  C69  1  0.62433928  0.12433792  0.62566186  1  0.047254  0  -0.048958  -0.162712  0  4.078409  0
C  C70  1  0.12565904  0.62566162  0.12433934  1  0.095035  0  -0.048968  -0.162728  0  4.078392  0
C  C71  1  0.87434046  0.37433904  0.87566095  1  0.09521  0  -0.048955  -0.162758  0  4.078424  0
C  C72  1  0.87433906  0.87565974  0.87566218  1  0.047325  0  -0.04898  -0.162737  0  4.078415  0
C  C73  1  0.37565887  0.37433930  0.37433928  1  0.020952  0  -0.048984  -0.162778  0  4.078373  0
C  C74  1  0.37566151  0.87566123  0.37433952  1  -0.012059  0  -0.048984  -0.162708  0  4.078426  0
C  C75  1  0.12566139  0.12434152  0.62565960  1  0.095142  0  -0.048998  -0.162773  0  4.078429  0
C  C76  1  0.94640660  0.80359436  0.44640773  1  1.491622  0  0.216237  0.605496  0  4.240522  0
C  C77  1  0.69640019  0.55359499  0.19641296  1  1.574053  0  0.216308  0.605593  0  4.240481  0
C  C78  1  0.05359344  0.19639870  0.19641551  1  1.574097  0  0.216198  0.605451  0  4.240673  0
C  C79  1  0.30360233  0.44640589  0.80358409  1  1.574113  0  0.216201  0.605449  0  4.240719  0
C  C80  1  0.69640474  0.55359371  0.55359295  1  1.566364  0  0.216279  0.605501  0  4.240496  0
C  C81  1  0.69640745  0.19640757  0.55359369  1  1.57407  0  0.216309  0.605664  0  4.240695  0
C  C82  1  0.05359136  0.55359386  0.19641112  1  1.491633  0  0.216225  0.605482  0  4.240641  0
C  C83  1  0.94640716  0.44640722  0.80358888  1  1.49163  0  0.216261  0.605482  0  4.240525  0
C  C84  1  0.94640676  0.80360127  0.80358478  1  1.573977  0  0.216224  0.6055  0  4.240637  0
C  C85  1  0.30359475  0.44640834  0.44640681  1  1.565814  0  0.216271  0.605553  0  4.240482  0
C  C86  1  0.30359305  0.80359129  0.44640740  1  1.506354  0  0.216259  0.605546  0  4.240789  0
C  C87  1  0.05359291  0.19640631  0.55359256  1  1.491577  0  0.216278  0.605557  0  4.240444  0
N  N88  1  0.76912082  0.93257412  0.26912041  1  -0.818108  0  -0.271937  -0.178096  0  3.559469  0
N  N89  1  0.47081199  0.73088015  0.06742633  1  -0.845227  0  -0.271903  -0.17803  0  3.55947  0
N  N90  1  0.76912125  0.02918839  0.26912012  1  -0.810042  0  -0.271945  -0.178057  0  3.559428  0
N  N91  1  0.56742761  0.73088034  0.97081156  1  -0.7637  0  -0.271912  -0.178034  0  3.559486  0
N  N92  1  0.23088018  0.97081186  0.06742727  1  -0.845217  0  -0.271858  -0.177914  0  3.559388  0
N  N93  1  0.43257271  0.26911974  0.02918764  1  -0.848444  0  -0.271914  -0.178074  0  3.559484  0
N  N94  1  0.47081035  0.73087946  0.73088004  1  -0.810123  0  -0.271987  -0.178094  0  3.559346  0
N  N95  1  0.56742770  0.97081101  0.73088042  1  -0.76086  0  -0.271911  -0.178022  0  3.55945  0
N  N96  1  0.52918834  0.26911993  0.93257286  1  -0.76368  0  -0.271852  -0.177913  0  3.559426  0
N  N97  1  0.23087859  0.73087923  0.97081154  1  -0.810046  0  -0.271989  -0.17809  0  3.559454  0
N  N98  1  0.76912191  0.26911963  0.02918955  1  -0.810232  0  -0.271971  -0.178081  0  3.559382  0
N  N99  1  0.76911974  0.02918782  0.93257273  1  -0.848411  0  -0.271865  -0.177943  0  3.559423  0
N  N100  1  0.43257364  0.26912051  0.26912073  1  -0.818109  0  -0.271955  -0.178185  0  3.559576  0
N  N101  1  0.76912104  0.26911954  0.93257497  1  -0.818028  0  -0.271965  -0.178151  0  3.559409  0
N  N102  1  0.76911990  0.93257197  0.02918784  1  -0.763719  0  -0.271903  -0.177999  0  3.55946  0
N  N103  1  0.52918800  0.93257301  0.26911992  1  -0.845173  0  -0.271902  -0.177992  0  3.559402  0
N  N104  1  0.43257222  0.02918867  0.26911958  1  -0.760813  0  -0.271919  -0.17805  0  3.559438  0
N  N105  1  0.52918846  0.26912051  0.26912077  1  -0.81002  0  -0.271946  -0.178034  0  3.559432  0
N  N106  1  0.23087909  0.06742695  0.73087907  1  -0.818097  0  -0.271925  -0.178129  0  3.559445  0
N  N107  1  0.23087895  0.97081157  0.73088017  1  -0.810009  0  -0.271943  -0.178032  0  3.559345  0
N  N108  1  0.56742558  0.73087987  0.73087927  1  -0.817965  0  -0.271966  -0.178151  0  3.559409  0
N  N109  1  0.23088042  0.06742812  0.97081135  1  -0.763691  0  -0.271919  -0.178057  0  3.559463  0
N  N110  1  0.47081180  0.06742655  0.73088117  1  -0.848427  0  -0.271906  -0.177992  0  3.559362  0
N  N111  1  0.23087876  0.73088002  0.06742612  1  -0.818015  0  -0.271914  -0.178069  0  3.559453  0
O  O112  1  0.97493150  0.69513697  0.47493302  1  -1.167007  0  -0.321085  -0.551109  0  2.344245  0
O  O113  1  0.64500375  0.52507287  0.30485436  1  -1.170435  0  -0.321016  -0.550936  0  2.344679  0
O  O114  1  0.97492891  0.85499666  0.47492977  1  -1.164942  0  -0.320995  -0.550912  0  2.344592  0
O  O115  1  0.80486485  0.52506907  0.14500024  1  -1.170382  0  -0.321141  -0.551164  0  2.344133  0
O  O116  1  0.02507111  0.14500327  0.30485612  1  -1.170481  0  -0.320963  -0.550844  0  2.344833  0
O  O117  1  0.19513657  0.47493072  0.85499815  1  -1.170335  0  -0.321073  -0.551091  0  2.344116  0
O  O118  1  0.64500313  0.52507210  0.52507038  1  -1.165002  0  -0.320998  -0.55091  0  2.34457  0
O  O119  1  0.80485938  0.14500148  0.52507049  1  -1.170502  0  -0.321074  -0.551077  0  2.344543  0
O  O120  1  0.35499767  0.47492692  0.69514402  1  -1.170526  0  -0.320985  -0.550861  0  2.344862  0
O  O121  1  0.02506771  0.52507023  0.14500145  1  -1.164855  0  -0.321096  -0.551089  0  2.344321  0
O  O122  1  0.97493068  0.47493212  0.85499913  1  -1.164863  0  -0.321131  -0.551122  0  2.344248  0
O  O123  1  0.97492811  0.85499711  0.69514388  1  -1.170513  0  -0.320976  -0.550868  0  2.344852  0
O  O124  1  0.19513744  0.47493325  0.47493201  1  -1.166934  0  -0.321104  -0.551138  0  2.344174  0
O  O125  1  0.97493110  0.47492986  0.69514345  1  -1.166834  0  -0.320989  -0.550893  0  2.3446  0
O  O126  1  0.97493229  0.69513610  0.85499839  1  -1.170222  0  -0.321085  -0.551114  0  2.344108  0
O  O127  1  0.35499814  0.69514108  0.47492989  1  -1.170516  0  -0.321012  -0.550967  0  2.344649  0
O  O128  1  0.19514124  0.85499751  0.47492951  1  -1.170466  0  -0.321068  -0.551059  0  2.344458  0
O  O129  1  0.35499688  0.47493047  0.47492749  1  -1.164962  0  -0.321004  -0.550934  0  2.344567  0
O  O130  1  0.02506772  0.30486341  0.52506698  1  -1.166969  0  -0.321093  -0.551093  0  2.344123  0
O  O131  1  0.02507130  0.14500331  0.52507052  1  -1.164933  0  -0.321038  -0.550989  0  2.344629  0
O  O132  1  0.80486165  0.52506840  0.52506856  1  -1.16694  0  -0.321121  -0.551133  0  2.344269  0
O  O133  1  0.02506722  0.30486318  0.14500241  1  -1.170228  0  -0.321083  -0.551109  0  2.344114  0
O  O134  1  0.64500305  0.30485847  0.52507068  1  -1.170481  0  -0.321035  -0.551047  0  2.344518  0
O  O135  1  0.02506800  0.52507040  0.30485765  1  -1.166842  0  -0.320989  -0.550915  0  2.344565  0
O  O136  1  0.62500050  0.12499949  0.12500011  1  -1.203493  0  -0.593367  -0.80188  0  2.418959  0
O  O137  1  0.37499942  0.87500019  0.87499989  1  -1.203499  0  -0.593358  -0.801809  0  2.41886  0
O  O138  1  0.12500105  0.62500049  0.62500170  1  -1.154194  0  -0.574113  -1.027923  0  2.552788  0
O  O139  1  0.87499916  0.37499948  0.37499858  1  -1.154236  0  -0.574111  -1.0279  0  2.552723  0
