# generated using pymatgen
data_Nd2H18C18N2O15
_symmetry_space_group_name_H-M   'P 1'
_cell_length_a   6.97491420
_cell_length_b   7.58873028
_cell_length_c   22.29016607
_cell_angle_alpha   84.77560686
_cell_angle_beta   88.24932580
_cell_angle_gamma   75.35343357
_symmetry_Int_Tables_number   1
_chemical_formula_structural   Nd2H18C18N2O15
_chemical_formula_sum   'Nd4 H36 C36 N4 O30'
_cell_volume   1136.71833675
_cell_formula_units_Z   2
loop_
 _symmetry_equiv_pos_site_id
 _symmetry_equiv_pos_as_xyz
  1  'x, y, z'
loop_
 _atom_site_type_symbol
 _atom_site_label
 _atom_site_symmetry_multiplicity
 _atom_site_fract_x
 _atom_site_fract_y
 _atom_site_fract_z
 _atom_site_occupancy
 _atom_site_hle17_bader_spin_density
 _atom_site_hle17_ddec_charge
 _atom_site_hle17_ddec_spin_density
 _atom_site_hle17_ddec_sum_bond_order
 _atom_site_hle17_magmom
 _atom_site_hse06_10hf_bader_spin_density
 _atom_site_hse06_10hf_ddec_charge
 _atom_site_hse06_10hf_ddec_spin_density
 _atom_site_hse06_10hf_ddec_sum_bond_order
 _atom_site_hse06_10hf_magmom
 _atom_site_hse06_bader_spin_density
 _atom_site_hse06_ddec_charge
 _atom_site_hse06_ddec_spin_density
 _atom_site_hse06_ddec_sum_bond_order
 _atom_site_hse06_magmom
 _atom_site_pbe_bader_spin_density
 _atom_site_pbe_cm5_charge
 _atom_site_pbe_ddec_charge
 _atom_site_pbe_ddec_spin_density
 _atom_site_pbe_ddec_sum_bond_order
 _atom_site_pbe_magmom
Nd  Nd0  1  0.40158006  0.56758478  0.20834666  1  0  2.303422  0  1.617327  0  0  2.143335  0  2.078115  0  0  2.241363  0  1.93102  0  0  1.497313  2.109196  0  2.113064  0
Nd  Nd1  1  0.59842210  0.43241758  0.79165187  1  0  2.3034  0  1.617315  0  0  2.143374  0  2.078023  0  0  2.24136  0  1.931008  0  0  1.497286  2.109232  0  2.112978  0
Nd  Nd2  1  0.84924620  0.73502070  0.29440197  1  0  2.368629  0  1.56909  0  0  2.262822  0  1.925089  0  0  2.304098  0  1.882693  0  0  1.492582  2.232981  0  1.955925  0
Nd  Nd3  1  0.15075670  0.26497892  0.70559754  1  0  2.368659  0  1.569105  0  0  2.26285  0  1.925078  0  0  2.304117  0  1.882688  0  0  1.492577  2.233009  0  1.955918  0
H  H4  1  0.02609508  0.75414077  0.14459893  1  0  0.424162  0  0.879915  0  0  0.394478  0  0.942106  0  0  0.404798  0  0.927294  0  0  0.295963  0.387095  0  0.95283  0
H  H5  1  0.97390421  0.24586159  0.85540232  1  0  0.424147  0  0.879942  0  0  0.394447  0  0.942152  0  0  0.404765  0  0.927344  0  0  0.295946  0.387064  0  0.952876  0
H  H6  1  0.19389258  0.76072308  0.09256908  1  0  0.39624  0  0.924942  0  0  0.354073  0  1.007014  0  0  0.365842  0  0.990457  0  0  0.282684  0.345842  0  1.018674  0
H  H7  1  0.80610458  0.23927655  0.90743049  1  0  0.396198  0  0.925004  0  0  0.354034  0  1.007071  0  0  0.365802  0  0.990517  0  0  0.282677  0.345804  0  1.018729  0
H  H8  1  0.83700452  0.02356140  0.38460276  1  0  0.41798  0  0.890803  0  0  0.386627  0  0.956149  0  0  0.397598  0  0.940246  0  0  0.289106  0.378896  0  0.967329  0
H  H9  1  0.16300343  0.97643548  0.61539723  1  0  0.417979  0  0.890766  0  0  0.386644  0  0.95609  0  0  0.397614  0  0.940188  0  0  0.289104  0.378915  0  0.967267  0
H  H10  1  0.80493724  0.84075990  0.42614159  1  0  0.395651  0  0.925694  0  0  0.351643  0  1.010838  0  0  0.363759  0  0.993505  0  0  0.28163  0.343181  0  1.022908  0
H  H11  1  0.19505738  0.15924384  0.57385743  1  0  0.395639  0  0.925723  0  0  0.351658  0  1.010838  0  0  0.363775  0  0.993505  0  0  0.281644  0.343197  0  1.022909  0
H  H12  1  0.73527072  0.16052714  0.30035547  1  0  0.445539  0  0.850479  0  0  0.414584  0  0.914476  0  0  0.424378  0  0.900177  0  0  0.309696  0.407615  0  0.924677  0
H  H13  1  0.26472145  0.83946977  0.69964602  1  0  0.445649  0  0.850305  0  0  0.414689  0  0.914323  0  0  0.424485  0  0.900019  0  0  0.309704  0.407719  0  0.924525  0
H  H14  1  0.64124771  0.12710090  0.23861044  1  0  0.447822  0  0.846477  0  0  0.418566  0  0.906847  0  0  0.428073  0  0.893136  0  0  0.311268  0.411646  0  0.916978  0
H  H15  1  0.35874659  0.87289873  0.76139094  1  0  0.447925  0  0.84636  0  0  0.41868  0  0.906702  0  0  0.428187  0  0.892991  0  0  0.311316  0.411761  0  0.916831  0
H  H16  1  0.66969232  0.38561833  0.00870252  1  0  0.090127  0  0.926832  0  0  0.098457  0  0.989917  0  0  0.102243  0  0.985754  0  0  0.1214  0.09573  0  0.992789  0
H  H17  1  0.33031169  0.61437719  0.99129844  1  0  0.090107  0  0.926931  0  0  0.098496  0  0.989954  0  0  0.102283  0  0.98579  0  0  0.121448  0.095766  0  0.992822  0
H  H18  1  0.82123328  0.87505298  0.94328219  1  0  0.07879  0  0.925299  0  0  0.091771  0  0.983097  0  0  0.094087  0  0.981258  0  0  0.120247  0.090015  0  0.984502  0
H  H19  1  0.17875601  0.12494393  0.05671798  1  0  0.078803  0  0.9253  0  0  0.091748  0  0.983144  0  0  0.094089  0  0.981278  0  0  0.120215  0.089998  0  0.984534  0
H  H20  1  0.75965860  0.72238595  0.04434764  1  0  0.122682  0  0.924392  0  0  0.135316  0  0.977246  0  0  0.139435  0  0.975182  0  0  0.117311  0.132338  0  0.978895  0
H  H21  1  0.24033033  0.27761233  0.95565294  1  0  0.122705  0  0.924332  0  0  0.135308  0  0.977222  0  0  0.139421  0  0.975157  0  0  0.117339  0.132335  0  0.978874  0
H  H22  1  0.79919381  0.23409899  0.49958909  1  0  0.114514  0  0.929885  0  0  0.127784  0  0.982942  0  0  0.131439  0  0.981526  0  0  0.113175  0.125102  0  0.98422  0
H  H23  1  0.20080475  0.76590610  0.50041388  1  0  0.114461  0  0.929981  0  0  0.127746  0  0.983014  0  0  0.1314  0  0.981602  0  0  0.113177  0.125065  0  0.984292  0
H  H24  1  0.55292019  0.15331596  0.57346642  1  0  0.073964  0  0.950205  0  0  0.084093  0  1.016042  0  0  0.086517  0  1.013619  0  0  0.119726  0.082251  0  1.017904  0
H  H25  1  0.44706648  0.84669599  0.42653466  1  0  0.074002  0  0.950291  0  0  0.084133  0  1.016104  0  0  0.086556  0  1.013683  0  0  0.119771  0.082295  0  1.017958  0
H  H26  1  0.09506524  0.33432076  0.45099752  1  0  0.088791  0  0.928877  0  0  0.096211  0  0.993269  0  0  0.099456  0  0.990196  0  0  0.119829  0.093828  0  0.995513  0
H  H27  1  0.90493756  0.66568981  0.54899672  1  0  0.088836  0  0.928922  0  0  0.096195  0  0.993367  0  0  0.099441  0  0.990296  0  0  0.119834  0.093816  0  0.995605  0
H  H28  1  0.96148227  0.30613632  0.13032180  1  0  0.137607  0  0.938858  0  0  0.155896  0  1.00104  0  0  0.157797  0  1.000414  0  0  0.103182  0.154641  0  1.001283  0
H  H29  1  0.03851313  0.69385922  0.86967791  1  0  0.137641  0  0.938874  0  0  0.155949  0  1.00103  0  0  0.157852  0  1.000398  0  0  0.103217  0.154696  0  1.001271  0
H  H30  1  0.94045431  0.14736894  0.19245929  1  0  0.157693  0  0.950521  0  0  0.172377  0  1.01482  0  0  0.176071  0  1.012589  0  0  0.109377  0.169751  0  1.016267  0
H  H31  1  0.05953711  0.85263070  0.80754167  1  0  0.15771  0  0.950391  0  0  0.172393  0  1.014716  0  0  0.176086  0  1.012483  0  0  0.109383  0.169767  0  1.016164  0
H  H32  1  0.17161319  0.20645655  0.17706689  1  0  0.155045  0  0.945476  0  0  0.171784  0  1.004243  0  0  0.174834  0  1.003279  0  0  0.107074  0.16945  0  1.005363  0
H  H33  1  0.82838295  0.79353625  0.82293379  1  0  0.155052  0  0.945464  0  0  0.171799  0  1.004235  0  0  0.174847  0  1.003271  0  0  0.107092  0.169467  0  1.005351  0
H  H34  1  0.18320132  0.98627308  0.36830428  1  0  0.152481  0  0.935794  0  0  0.171391  0  0.995255  0  0  0.174044  0  0.9936  0  0  0.111207  0.169478  0  0.996411  0
H  H35  1  0.81679478  0.01372519  0.63169578  1  0  0.152469  0  0.935836  0  0  0.171389  0  0.995284  0  0  0.174041  0  0.99363  0  0  0.11122  0.169469  0  0.996449  0
H  H36  1  0.15746524  0.14590592  0.30559282  1  0  0.169716  0  0.923539  0  0  0.18888  0  0.976601  0  0  0.191962  0  0.97536  0  0  0.11488  0.186702  0  0.977344  0
H  H37  1  0.84253660  0.85409234  0.69440674  1  0  0.169698  0  0.923683  0  0  0.188861  0  0.976736  0  0  0.191944  0  0.975494  0  0  0.114911  0.186688  0  0.977469  0
H  H38  1  0.39677647  0.06156365  0.33937833  1  0  0.142771  0  0.961558  0  0  0.155101  0  1.031069  0  0  0.158147  0  1.029195  0  0  0.103646  0.152922  0  1.032335  0
H  H39  1  0.60322181  0.93843188  0.66062269  1  0  0.142711  0  0.961585  0  0  0.155068  0  1.031078  0  0  0.158113  0  1.029206  0  0  0.103636  0.152889  0  1.032342  0
C  C40  1  0.57135342  0.29889349  0.12243653  1  0  0.642445  0  3.953591  0  0  0.595911  0  4.245183  0  0  0.628442  0  4.244897  0  0  0.199391  0.573329  0  4.248601  0
C  C41  1  0.42864125  0.70110477  0.87756444  1  0  0.642291  0  3.953678  0  0  0.595751  0  4.245293  0  0  0.628284  0  4.245002  0  0  0.199282  0.573171  0  4.248711  0
C  C42  1  0.64850027  0.16759355  0.07582789  1  0  -0.136926  0  3.724185  0  0  -0.121534  0  3.962994  0  0  -0.132991  0  3.985156  0  0  -0.010645  -0.114148  0  3.947909  0
C  C43  1  0.35149944  0.83240198  0.92417312  1  0  -0.13704  0  3.724122  0  0  -0.121602  0  3.962991  0  0  -0.133058  0  3.98515  0  0  -0.010678  -0.114223  0  3.947909  0
C  C44  1  0.68986934  0.23838930  0.01796579  1  0  0.123821  0  3.686002  0  0  0.08158  0  3.944272  0  0  0.089842  0  3.958959  0  0  0.059375  0.076479  0  3.933915  0
C  C45  1  0.31013287  0.76160759  0.98203516  1  0  0.123952  0  3.685969  0  0  0.081637  0  3.944252  0  0  0.089905  0  3.958941  0  0  0.059382  0.076544  0  3.933892  0
C  C46  1  0.77420096  0.95420704  0.98203167  1  0  0.138431  0  3.714912  0  0  0.099818  0  3.985529  0  0  0.107795  0  4.001612  0  0  0.054507  0.094833  0  3.974445  0
C  C47  1  0.22579157  0.04578851  0.01796896  1  0  0.138419  0  3.714871  0  0  0.099819  0  3.985449  0  0  0.107781  0  4.00153  0  0  0.054534  0.094835  0  3.974373  0
C  C48  1  0.73990461  0.87003285  0.03789828  1  0  -0.137377  0  3.699068  0  0  -0.160843  0  3.958346  0  0  -0.168098  0  3.977463  0  0  -0.077685  -0.156221  0  3.945499  0
C  C49  1  0.26008793  0.12996270  0.96210191  1  0  -0.137398  0  3.699011  0  0  -0.160797  0  3.958342  0  0  -0.168039  0  3.977453  0  0  -0.077709  -0.156194  0  3.945508  0
C  C50  1  0.67794977  0.97728886  0.08622499  1  0  0.017295  0  3.65311  0  0  0.025914  0  3.886929  0  0  0.029126  0  3.902473  0  0  0.023276  0.02394  0  3.87615  0
C  C51  1  0.32204669  0.02270804  0.91377556  1  0  0.017415  0  3.652906  0  0  0.025898  0  3.88688  0  0  0.029112  0  3.902419  0  0  0.023284  0.023935  0  3.876098  0
C  C52  1  0.64918925  0.87898408  0.14642753  1  0  0.717006  0  3.871169  0  0  0.664098  0  4.173891  0  0  0.699513  0  4.16183  0  0  0.240507  0.639878  0  4.182707  0
C  C53  1  0.35080541  0.12101419  0.85357389  1  0  0.717087  0  3.870763  0  0  0.664215  0  4.17349  0  0  0.699631  0  4.161425  0  0  0.240534  0.63999  0  4.182309  0
C  C54  1  0.72179251  0.38138954  0.38205399  1  0  0.695843  0  3.903091  0  0  0.638937  0  4.215824  0  0  0.674143  0  4.202026  0  0  0.230141  0.614974  0  4.22424  0
C  C55  1  0.27821092  0.61863467  0.61794790  1  0  0.695519  0  3.903699  0  0  0.638717  0  4.216275  0  0  0.673908  0  4.202511  0  0  0.229982  0.614751  0  4.22469  0
C  C56  1  0.57926353  0.33423970  0.42923222  1  0  -0.001285  0  3.695969  0  0  0.006303  0  3.930846  0  0  0.008383  0  3.948171  0  0  0.014358  0.00502  0  3.919131  0
C  C57  1  0.42074187  0.66576129  0.57076632  1  0  -0.001412  0  3.696166  0  0  0.00612  0  3.931057  0  0  0.008203  0  3.948392  0  0  0.014221  0.004821  0  3.919335  0
C  C58  1  0.64456439  0.25741899  0.48675423  1  0  -0.144337  0  3.716713  0  0  -0.165963  0  3.973879  0  0  -0.173414  0  3.994021  0  0  -0.082833  -0.161258  0  3.96051  0
C  C59  1  0.35543055  0.74258884  0.51324600  1  0  -0.144266  0  3.716665  0  0  -0.165908  0  3.973856  0  0  -0.173357  0  3.993995  0  0  -0.082847  -0.161202  0  3.960491  0
C  C60  1  0.50820748  0.21116802  0.52802916  1  0  0.143598  0  3.712483  0  0  0.10661  0  3.978841  0  0  0.114949  0  3.99457  0  0  0.052256  0.10125  0  3.968153  0
C  C61  1  0.49178385  0.78884256  0.47196968  1  0  0.143688  0  3.712488  0  0  0.106709  0  3.978815  0  0  0.11505  0  3.994541  0  0  0.052347  0.101345  0  3.96813  0
C  C62  1  0.25221681  0.31236725  0.46068153  1  0  0.125798  0  3.683607  0  0  0.086445  0  3.939044  0  0  0.094561  0  3.954003  0  0  0.057996  0.081306  0  3.928855  0
C  C63  1  0.74778530  0.68764059  0.53931414  1  0  0.125884  0  3.683859  0  0  0.086557  0  3.939277  0  0  0.094669  0  3.95424  0  0  0.058105  0.0814  0  3.929078  0
C  C64  1  0.37746992  0.36456450  0.41614784  1  0  -0.1268  0  3.705776  0  0  -0.10875  0  3.937324  0  0  -0.119457  0  3.958433  0  0  -0.006059  -0.102052  0  3.923278  0
C  C65  1  0.62253580  0.63544059  0.58384923  1  0  -0.12676  0  3.705993  0  0  -0.108654  0  3.937494  0  0  -0.119362  0  3.958598  0  0  -0.005968  -0.101903  0  3.923385  0
C  C66  1  0.29397164  0.45245391  0.35625916  1  0  0.721703  0  3.871358  0  0  0.674953  0  4.162654  0  0  0.710092  0  4.153952  0  0  0.234798  0.651134  0  4.169209  0
C  C67  1  0.70604310  0.54754434  0.64373669  1  0  0.721655  0  3.871381  0  0  0.674873  0  4.162707  0  0  0.710028  0  4.153985  0  0  0.234902  0.651039  0  4.169257  0
C  C68  1  0.94491500  0.41610354  0.21466883  1  0  0.831199  0  3.749622  0  0  0.793932  0  4.038515  0  0  0.829942  0  4.026762  0  0  0.240134  0.769539  0  4.046977  0
C  C69  1  0.05508360  0.58389609  0.78533162  1  0  0.83122  0  3.74951  0  0  0.793966  0  4.038399  0  0  0.829972  0  4.026645  0  0  0.240156  0.769575  0  4.046859  0
C  C70  1  0.01008277  0.25777022  0.17672052  1  0  -0.465196  0  3.59687  0  0  -0.538961  0  3.823642  0  0  -0.54677  0  3.824293  0  0  -0.235095  -0.533274  0  3.822777  0
C  C71  1  0.98991227  0.74222668  0.82328005  1  0  -0.465245  0  3.596761  0  0  -0.539048  0  3.823555  0  0  -0.546864  0  3.824233  0  0  -0.235135  -0.53336  0  3.822687  0
C  C72  1  0.30579294  0.87162481  0.28839148  1  0  0.831679  0  3.75142  0  0  0.79695  0  4.031381  0  0  0.831318  0  4.023646  0  0  0.237958  0.77311  0  4.03884  0
C  C73  1  0.69421213  0.12837208  0.71160809  1  0  0.831754  0  3.751351  0  0  0.79703  0  4.03132  0  0  0.8314  0  4.023576  0  0  0.237931  0.773188  0  4.03878  0
C  C74  1  0.26100109  0.02605844  0.32769980  1  0  -0.468481  0  3.600437  0  0  -0.543483  0  3.828966  0  0  -0.550502  0  3.828828  0  0  -0.236524  -0.538161  0  3.828507  0
C  C75  1  0.73900361  0.97393981  0.67230108  1  0  -0.468372  0  3.600558  0  0  -0.543414  0  3.829083  0  0  -0.550432  0  3.828944  0  0  -0.236508  -0.538085  0  3.828631  0
N  N76  1  0.75237151  0.13552110  0.97220605  1  0  -0.297496  0  3.190824  0  0  -0.235473  0  3.444888  0  0  -0.248899  0  3.459306  0  0  -0.300794  -0.226513  0  3.434809  0
N  N77  1  0.24762963  0.86447442  0.02779495  1  0  -0.297604  0  3.190773  0  0  -0.235532  0  3.444819  0  0  -0.248975  0  3.459256  0  0  -0.300817  -0.226574  0  3.434741  0
N  N78  1  0.31574707  0.23466300  0.51521205  1  0  -0.311743  0  3.186347  0  0  -0.250289  0  3.441273  0  0  -0.264235  0  3.455399  0  0  -0.304753  -0.24101  0  3.431608  0
N  N79  1  0.68424352  0.76535032  0.48478537  1  0  -0.311942  0  3.18669  0  0  -0.250455  0  3.441552  0  0  -0.264398  0  3.455676  0  0  -0.304947  -0.241177  0  3.431895  0
O  O80  1  0.56537928  0.46657260  0.10941152  1  0  -0.672328  0  1.95747  0  0  -0.626253  0  2.19147  0  0  -0.656011  0  2.184808  0  0  -0.365128  -0.609093  0  2.1954  0
O  O81  1  0.43461755  0.53342294  0.89058817  1  0  -0.672274  0  1.957495  0  0  -0.626186  0  2.191452  0  0  -0.655937  0  2.184791  0  0  -0.365104  -0.609024  0  2.19538  0
O  O82  1  0.50942298  0.24106300  0.17367337  1  0  -0.707281  0  1.989052  0  0  -0.646016  0  2.216158  0  0  -0.675477  0  2.206334  0  0  -0.35639  -0.629236  0  2.222745  0
O  O83  1  0.49057492  0.75893389  0.82632716  1  0  -0.707205  0  1.989055  0  0  -0.645939  0  2.216139  0  0  -0.675406  0  2.206338  0  0  -0.35633  -0.629158  0  2.222725  0
O  O84  1  0.79752853  0.83913495  0.18171976  1  0  -0.715445  0  2.044108  0  0  -0.65936  0  2.282132  0  0  -0.684932  0  2.271116  0  0  -0.3424  -0.641131  0  2.289611  0
O  O85  1  0.20247545  0.16086604  0.81828149  1  0  -0.715503  0  2.044085  0  0  -0.659405  0  2.282091  0  0  -0.684974  0  2.271073  0  0  -0.342391  -0.641174  0  2.289574  0
O  O86  1  0.48819532  0.83402344  0.15437056  1  0  -0.677471  0  2.022858  0  0  -0.631043  0  2.275204  0  0  -0.662726  0  2.263209  0  0  -0.365591  -0.612944  0  2.281581  0
O  O87  1  0.51181009  0.16597753  0.84563157  1  0  -0.67751  0  2.022487  0  0  -0.631102  0  2.274827  0  0  -0.662782  0  2.262834  0  0  -0.365592  -0.613002  0  2.281203  0
O  O88  1  0.71445080  0.54861840  0.36958506  1  0  -0.699666  0  2.049375  0  0  -0.659764  0  2.313188  0  0  -0.685273  0  2.303011  0  0  -0.384991  -0.641594  0  2.319643  0
O  O89  1  0.28556336  0.45136616  0.63041794  1  0  -0.699713  0  2.048942  0  0  -0.659783  0  2.312617  0  0  -0.685295  0  2.302453  0  0  -0.385008  -0.641605  0  2.31907  0
O  O90  1  0.83989208  0.24698244  0.35965575  1  0  -0.640871  0  1.991791  0  0  -0.579177  0  2.216031  0  0  -0.605764  0  2.205891  0  0  -0.294044  -0.560186  0  2.222202  0
O  O91  1  0.16012628  0.75301306  0.64034239  1  0  -0.640522  0  1.992759  0  0  -0.578894  0  2.216988  0  0  -0.605468  0  2.206857  0  0  -0.293866  -0.559912  0  2.223157  0
O  O92  1  0.40605587  0.42225467  0.31007813  1  0  -0.724443  0  2.028202  0  0  -0.670946  0  2.28055  0  0  -0.702799  0  2.268694  0  0  -0.386469  -0.653486  0  2.287229  0
O  O93  1  0.59396289  0.57773401  0.68991932  1  0  -0.72446  0  2.028086  0  0  -0.671102  0  2.280659  0  0  -0.702958  0  2.268801  0  0  -0.386635  -0.653643  0  2.287344  0
O  O94  1  0.11835688  0.55035333  0.35725490  1  0  -0.716746  0  2.053044  0  0  -0.674134  0  2.30338  0  0  -0.698546  0  2.293742  0  0  -0.382262  -0.657123  0  2.309886  0
O  O95  1  0.88166494  0.44965584  0.64273874  1  0  -0.716638  0  2.053079  0  0  -0.673975  0  2.303376  0  0  -0.698396  0  2.293742  0  0  -0.382203  -0.656972  0  2.309904  0
O  O96  1  0.76349593  0.47503647  0.23016732  1  0  -0.806422  0  2.041294  0  0  -0.759995  0  2.304014  0  0  -0.790552  0  2.288271  0  0  -0.403236  -0.743331  0  2.31296  0
O  O97  1  0.23650480  0.52496589  0.76983212  1  0  -0.806438  0  2.041163  0  0  -0.76002  0  2.303874  0  0  -0.790566  0  2.28813  0  0  -0.403253  -0.74336  0  2.312823  0
O  O98  1  0.07340224  0.49403497  0.23220664  1  0  -0.815445  0  2.105677  0  0  -0.76006  0  2.363412  0  0  -0.791568  0  2.349753  0  0  -0.418199  -0.742362  0  2.371593  0
O  O99  1  0.92659923  0.50596466  0.76779153  1  0  -0.815429  0  2.105594  0  0  -0.760046  0  2.36331  0  0  -0.791543  0  2.349652  0  0  -0.418217  -0.742348  0  2.37149  0
O  O100  1  0.16492177  0.82580737  0.26274733  1  0  -0.812329  0  2.011333  0  0  -0.763028  0  2.262516  0  0  -0.792288  0  2.249426  0  0  -0.417935  -0.746035  0  2.271049  0
O  O101  1  0.83508183  0.17419499  0.73725030  1  0  -0.81245  0  2.011431  0  0  -0.763115  0  2.262534  0  0  -0.792367  0  2.249436  0  0  -0.417972  -0.74612  0  2.271072  0
O  O102  1  0.48429371  0.78233174  0.27985578  1  0  -0.807721  0  2.12121  0  0  -0.75353  0  2.370983  0  0  -0.783273  0  2.359972  0  0  -0.417697  -0.736111  0  2.378183  0
O  O103  1  0.51570494  0.21766241  0.72014753  1  0  -0.807745  0  2.121155  0  0  -0.753542  0  2.370889  0  0  -0.78328  0  2.359879  0  0  -0.417677  -0.736127  0  2.3781  0
O  O104  1  0.15644046  0.68645176  0.12947117  1  0  -0.92315  0  1.895451  0  0  -0.869087  0  2.093108  0  0  -0.895036  0  2.058008  0  0  -0.664064  -0.855224  0  2.115032  0
O  O105  1  0.84355633  0.31354924  0.87052881  1  0  -0.923115  0  1.895573  0  0  -0.869033  0  2.093235  0  0  -0.894976  0  2.058145  0  0  -0.664042  -0.855168  0  2.115153  0
O  O106  1  0.85523183  0.88879384  0.38604291  1  0  -0.929824  0  1.893849  0  0  -0.878656  0  2.098753  0  0  -0.897046  0  2.063589  0  0  -0.662508  -0.865496  0  2.123208  0
O  O107  1  0.14477427  0.11120987  0.61395734  1  0  -0.929817  0  1.893899  0  0  -0.878677  0  2.098711  0  0  -0.897064  0  2.063544  0  0  -0.662497  -0.865517  0  2.123166  0
O  O108  1  0.71461312  0.06649007  0.27510052  1  0  -0.933626  0  1.901207  0  0  -0.89029  0  2.103401  0  0  -0.908392  0  2.072439  0  0  -0.650706  -0.877463  0  2.125317  0
O  O109  1  0.28538585  0.93350818  0.72490221  1  0  -0.933852  0  1.900975  0  0  -0.890525  0  2.103162  0  0  -0.908624  0  2.072195  0  0  -0.650746  -0.877697  0  2.12508  0
