# generated using pymatgen
data_RbH13(C4O3)3
_symmetry_space_group_name_H-M   'P 1'
_cell_length_a   8.19477686
_cell_length_b   9.66998513
_cell_length_c   9.68769322
_cell_angle_alpha   116.89152587
_cell_angle_beta   95.01466465
_cell_angle_gamma   98.58248426
_symmetry_Int_Tables_number   1
_chemical_formula_structural   RbH13(C4O3)3
_chemical_formula_sum   'Rb2 H26 C24 O18'
_cell_volume   666.47781394
_cell_formula_units_Z   2
loop_
 _symmetry_equiv_pos_site_id
 _symmetry_equiv_pos_as_xyz
  1  'x, y, z'
loop_
 _atom_site_type_symbol
 _atom_site_label
 _atom_site_symmetry_multiplicity
 _atom_site_fract_x
 _atom_site_fract_y
 _atom_site_fract_z
 _atom_site_occupancy
 _atom_site_hle17_bader_spin_density
 _atom_site_hle17_ddec_charge
 _atom_site_hle17_ddec_spin_density
 _atom_site_hle17_ddec_sum_bond_order
 _atom_site_hle17_magmom
 _atom_site_hse06_10hf_bader_spin_density
 _atom_site_hse06_10hf_ddec_charge
 _atom_site_hse06_10hf_ddec_spin_density
 _atom_site_hse06_10hf_ddec_sum_bond_order
 _atom_site_hse06_10hf_magmom
 _atom_site_hse06_bader_spin_density
 _atom_site_hse06_ddec_charge
 _atom_site_hse06_ddec_spin_density
 _atom_site_hse06_ddec_sum_bond_order
 _atom_site_hse06_magmom
 _atom_site_pbe_bader_spin_density
 _atom_site_pbe_cm5_charge
 _atom_site_pbe_ddec_charge
 _atom_site_pbe_ddec_spin_density
 _atom_site_pbe_ddec_sum_bond_order
 _atom_site_pbe_magmom
Rb  Rb0  1  0.77816662  0.44118939  0.18142399  1  0  0.953036  0  0.42818  0  0  0.909845  0  0.615021  0  0  0.923819  0  0.593657  0  0  0.745751  0.898482  0  0.63172  0
Rb  Rb1  1  0.22183492  0.55880953  0.81857592  1  0  0.953034  0  0.428183  0  0  0.90985  0  0.615023  0  0  0.923826  0  0.593656  0  0  0.745748  0.898486  0  0.631723  0
H  H2  1  0.15407131  0.63299590  0.48853490  1  0  0.405462  0  0.881896  0  0  0.374917  0  0.959874  0  0  0.388104  0  0.945616  0  0  0.30404  0.36565  0  0.969779  0
H  H3  1  0.84593173  0.36700419  0.51146771  1  0  0.405477  0  0.881883  0  0  0.374933  0  0.959853  0  0  0.388118  0  0.9456  0  0  0.304053  0.365667  0  0.96976  0
H  H4  1  0.26999998  0.17451125  0.82267766  1  0  0.407359  0  0.885138  0  0  0.377346  0  0.961405  0  0  0.38957  0  0.947997  0  0  0.300333  0.368804  0  0.970184  0
H  H5  1  0.73000086  0.82549005  0.17732122  1  0  0.40737  0  0.885089  0  0  0.377358  0  0.961355  0  0  0.389581  0  0.947969  0  0  0.30035  0.368816  0  0.970135  0
H  H6  1  0.66665765  0.41448535  0.72722296  1  0  0.396609  0  0.896788  0  0  0.362035  0  0.978829  0  0  0.376274  0  0.96386  0  0  0.302396  0.351785  0  0.989522  0
H  H7  1  0.33333955  0.58551596  0.27277981  1  0  0.396585  0  0.896791  0  0  0.361989  0  0.978875  0  0  0.37623  0  0.963907  0  0  0.302375  0.351739  0  0.989567  0
H  H8  1  0.75857077  0.65883746  0.95441574  1  0  0.442725  0  0.847809  0  0  0.410577  0  0.912815  0  0  0.421118  0  0.897196  0  0  0.307048  0.402953  0  0.92417  0
H  H9  1  0.24143077  0.34116145  0.04558520  1  0  0.442738  0  0.847784  0  0  0.41059  0  0.912791  0  0  0.421132  0  0.897171  0  0  0.307049  0.402967  0  0.924145  0
H  H10  1  0.91654885  0.68844473  0.08304448  1  0  0.423388  0  0.879733  0  0  0.39251  0  0.944854  0  0  0.402951  0  0.92945  0  0  0.29758  0.384983  0  0.955984  0
H  H11  1  0.08345174  0.31155537  0.91695694  1  0  0.423389  0  0.879739  0  0  0.392507  0  0.944866  0  0  0.402948  0  0.929462  0  0  0.297576  0.384979  0  0.955996  0
H  H12  1  0.82629375  0.80532569  0.46952960  1  0  0.07873  0  0.926733  0  0  0.08682  0  0.98973  0  0  0.089647  0  0.988154  0  0  0.104331  0.084502  0  0.991334  0
H  H13  1  0.17370778  0.19467322  0.53047031  1  0  0.078717  0  0.926732  0  0  0.086809  0  0.989726  0  0  0.089636  0  0.988152  0  0  0.104326  0.08449  0  0.991331  0
H  H14  1  0.58458260  0.69248825  0.50805398  1  0  0.094011  0  0.927831  0  0  0.102362  0  0.992027  0  0  0.104867  0  0.990977  0  0  0.111052  0.100569  0  0.992993  0
H  H15  1  0.41541635  0.30751543  0.49194689  1  0  0.094016  0  0.92783  0  0  0.102376  0  0.992026  0  0  0.10488  0  0.990976  0  0  0.111054  0.100583  0  0.992993  0
H  H16  1  0.49673376  0.80763667  0.77326747  1  0  0.07028  0  0.918175  0  0  0.080636  0  0.979622  0  0  0.082616  0  0.978519  0  0  0.106087  0.079272  0  0.980261  0
H  H17  1  0.50327132  0.19236698  0.22673586  1  0  0.07038  0  0.918012  0  0  0.080667  0  0.97955  0  0  0.082648  0  0.978445  0  0  0.106111  0.079305  0  0.98019  0
H  H18  1  0.48015590  0.90948972  0.57603248  1  0  0.095188  0  0.946292  0  0  0.100148  0  1.012686  0  0  0.103061  0  1.011373  0  0  0.104263  0.097876  0  1.01398  0
H  H19  1  0.51984440  0.09050920  0.42396632  1  0  0.095178  0  0.946319  0  0  0.100166  0  1.012682  0  0  0.10308  0  1.011369  0  0  0.104268  0.097895  0  1.013978  0
H  H20  1  0.71805366  0.02711533  0.53677304  1  0  0.100655  0  0.938384  0  0  0.106734  0  1.006691  0  0  0.109547  0  1.005073  0  0  0.108414  0.104788  0  1.007827  0
H  H21  1  0.28194718  0.97288597  0.46322481  1  0  0.100689  0  0.93839  0  0  0.106776  0  1.006676  0  0  0.109587  0  1.005061  0  0  0.108443  0.104829  0  1.007813  0
H  H22  1  0.99633008  0.05796903  0.69022322  1  0  0.066841  0  0.926933  0  0  0.081822  0  0.982198  0  0  0.082798  0  0.982283  0  0  0.103581  0.080974  0  0.982368  0
H  H23  1  0.00366967  0.94202752  0.30977343  1  0  0.066807  0  0.926956  0  0  0.081779  0  0.982241  0  0  0.082754  0  0.982326  0  0  0.103576  0.080933  0  0.982408  0
H  H24  1  0.99325010  0.09463087  0.96329187  1  0  0.093326  0  0.997901  0  0  0.101024  0  1.067372  0  0  0.103903  0  1.066289  0  0  0.101174  0.098986  0  1.068309  0
H  H25  1  0.00675510  0.90536804  0.03670622  1  0  0.093316  0  0.997931  0  0  0.101017  0  1.067385  0  0  0.103897  0  1.066302  0  0  0.101155  0.098979  0  1.06832  0
H  H26  1  0.72453700  0.96258139  0.00736626  1  0  0.096231  0  0.96744  0  0  0.106221  0  1.031604  0  0  0.108931  0  1.030629  0  0  0.101841  0.104405  0  1.032284  0
H  H27  1  0.27546683  0.03742227  0.99263391  1  0  0.096209  0  0.967426  0  0  0.106222  0  1.031568  0  0  0.108932  0  1.030594  0  0  0.101828  0.104399  0  1.032249  0
C  C28  1  0.84380318  0.81851771  0.58892607  1  0  -0.152342  0  3.558746  0  0  -0.161375  0  3.794242  0  0  -0.166892  0  3.80645  0  0  -0.076879  -0.15755  0  3.786392  0
C  C29  1  0.15619618  0.18148241  0.41107321  1  0  -0.152357  0  3.55873  0  0  -0.161376  0  3.794229  0  0  -0.166894  0  3.806439  0  0  -0.076885  -0.157545  0  3.786385  0
C  C30  1  0.67782963  0.73769056  0.61568541  1  0  -0.155939  0  3.55627  0  0  -0.16296  0  3.790317  0  0  -0.168544  0  3.803496  0  0  -0.07727  -0.159101  0  3.78142  0
C  C31  1  0.32216878  0.26231075  0.38431537  1  0  -0.155956  0  3.556234  0  0  -0.162985  0  3.790348  0  0  -0.168567  0  3.803521  0  0  -0.077268  -0.159129  0  3.781458  0
C  C32  1  0.61028607  0.86416012  0.75114235  1  0  0.021612  0  3.603877  0  0  0.008221  0  3.84468  0  0  0.009175  0  3.859516  0  0  -0.075956  0.007404  0  3.834827  0
C  C33  1  0.38971628  0.13584236  0.24885924  1  0  0.021552  0  3.603778  0  0  0.00816  0  3.844673  0  0  0.009114  0  3.859507  0  0  -0.075966  0.007345  0  3.834817  0
C  C34  1  0.56541668  0.98036470  0.68894673  1  0  -0.155746  0  3.535451  0  0  -0.162414  0  3.765645  0  0  -0.168417  0  3.778542  0  0  -0.076732  -0.158503  0  3.757351  0
C  C35  1  0.43458363  0.01963423  0.31105207  1  0  -0.155761  0  3.535477  0  0  -0.162448  0  3.765654  0  0  -0.168449  0  3.778551  0  0  -0.07674  -0.158542  0  3.757363  0
C  C36  1  0.73155587  0.06180840  0.66297564  1  0  -0.161654  0  3.568044  0  0  -0.169969  0  3.800194  0  0  -0.176182  0  3.814036  0  0  -0.078273  -0.165571  0  3.790421  0
C  C37  1  0.26844347  0.93819172  0.33702158  1  0  -0.161662  0  3.568086  0  0  -0.170004  0  3.800242  0  0  -0.176218  0  3.81408  0  0  -0.07828  -0.165606  0  3.79047  0
C  C38  1  0.88015132  0.99951708  0.70672285  1  0  0.017973  0  3.629595  0  0  0.007056  0  3.862573  0  0  0.007834  0  3.878518  0  0  -0.080041  0.006897  0  3.851602  0
C  C39  1  0.11984776  0.00048185  0.29327484  1  0  0.018062  0  3.629591  0  0  0.007124  0  3.862599  0  0  0.007903  0  3.878544  0  0  -0.080052  0.006963  0  3.851631  0
C  C40  1  0.99271284  0.74758293  0.60668852  1  0  0.688121  0  3.760602  0  0  0.641565  0  4.063318  0  0  0.67431  0  4.053921  0  0  0.230274  0.618952  0  4.069259  0
C  C41  1  0.00728503  0.25241600  0.39331218  1  0  0.68815  0  3.760546  0  0  0.641597  0  4.063257  0  0  0.674344  0  4.053852  0  0  0.230275  0.618979  0  4.069213  0
C  C42  1  0.69600589  0.58840757  0.62768010  1  0  0.695975  0  3.805648  0  0  0.638838  0  4.120815  0  0  0.671948  0  4.113455  0  0  0.226096  0.61656  0  4.124469  0
C  C43  1  0.30399225  0.41159255  0.37232116  1  0  0.696018  0  3.805665  0  0  0.638839  0  4.120905  0  0  0.671949  0  4.113545  0  0  0.226092  0.616561  0  4.124559  0
C  C44  1  0.47537729  0.09782952  0.80143362  1  0  0.690586  0  3.755343  0  0  0.643845  0  4.057438  0  0  0.67639  0  4.048401  0  0  0.233172  0.621591  0  4.063015  0
C  C45  1  0.52462451  0.90217059  0.19856582  1  0  0.690439  0  3.755557  0  0  0.643745  0  4.057575  0  0  0.676284  0  4.048549  0  0  0.233157  0.6215  0  4.063141  0
C  C46  1  0.76285695  0.24162840  0.74443363  1  0  0.698251  0  3.761493  0  0  0.643597  0  4.073007  0  0  0.676966  0  4.063899  0  0  0.236735  0.621125  0  4.078388  0
C  C47  1  0.23714418  0.75837408  0.25556891  1  0  0.698183  0  3.761644  0  0  0.643629  0  4.072998  0  0  0.677007  0  4.063878  0  0  0.236743  0.621157  0  4.078376  0
C  C48  1  0.88472230  0.02448887  0.87137695  1  0  -0.116418  0  3.686824  0  0  -0.136282  0  3.944663  0  0  -0.138162  0  3.963585  0  0  -0.105448  -0.135062  0  3.932087  0
C  C49  1  0.11528031  0.97551480  0.12862313  1  0  -0.116584  0  3.686902  0  0  -0.136426  0  3.944717  0  0  -0.138309  0  3.96364  0  0  -0.105513  -0.135205  0  3.932134  0
C  C50  1  0.74382956  0.95445576  0.89460890  1  0  -0.093529  0  3.660624  0  0  -0.116608  0  3.923982  0  0  -0.11749  0  3.94162  0  0  -0.099545  -0.115705  0  3.911884  0
C  C51  1  0.25617522  0.04554671  0.10539079  1  0  -0.093356  0  3.660538  0  0  -0.116436  0  3.923847  0  0  -0.11732  0  3.941493  0  0  -0.099443  -0.115536  0  3.911762  0
O  O52  1  0.06062920  0.69019966  0.47675197  1  0  -0.585205  0  2.100647  0  0  -0.538673  0  2.330772  0  0  -0.561802  0  2.316822  0  0  -0.357131  -0.522431  0  2.340177  0
O  O53  1  0.93937017  0.30980045  0.52324937  1  0  -0.585224  0  2.10067  0  0  -0.538701  0  2.330815  0  0  -0.561834  0  2.31686  0  0  -0.357131  -0.522457  0  2.340225  0
O  O54  1  0.04525876  0.74346993  0.72748011  1  0  -0.592028  0  1.942371  0  0  -0.550203  0  2.167018  0  0  -0.571349  0  2.160164  0  0  -0.362477  -0.535612  0  2.171783  0
O  O55  1  0.95473938  0.25653019  0.27252114  1  0  -0.592041  0  1.942313  0  0  -0.550222  0  2.166971  0  0  -0.57137  0  2.160121  0  0  -0.362488  -0.535628  0  2.171742  0
O  O56  1  0.73074221  0.47870867  0.50549775  1  0  -0.669002  0  1.990225  0  0  -0.621574  0  2.233446  0  0  -0.646644  0  2.224413  0  0  -0.356103  -0.603416  0  2.238759  0
O  O57  1  0.26925743  0.52129263  0.49450312  1  0  -0.668989  0  1.990119  0  0  -0.621569  0  2.233399  0  0  -0.64664  0  2.224366  0  0  -0.356095  -0.603411  0  2.238712  0
O  O58  1  0.67156192  0.57678328  0.75108870  1  0  -0.633125  0  2.011229  0  0  -0.570407  0  2.237086  0  0  -0.595321  0  2.225596  0  0  -0.30349  -0.552963  0  2.244775  0
O  O59  1  0.32843568  0.42321447  0.24891144  1  0  -0.633166  0  2.011325  0  0  -0.570403  0  2.237196  0  0  -0.59532  0  2.225707  0  0  -0.303499  -0.552958  0  2.244884  0
O  O60  1  0.53968048  0.19648257  0.93778642  1  0  -0.612897  0  1.961861  0  0  -0.575009  0  2.194625  0  0  -0.596351  0  2.187411  0  0  -0.37856  -0.560372  0  2.199594  0
O  O61  1  0.46031862  0.80351636  0.06221436  1  0  -0.612819  0  1.961924  0  0  -0.57496  0  2.194668  0  0  -0.596303  0  2.187466  0  0  -0.378555  -0.560326  0  2.199632  0
O  O62  1  0.31763417  0.08378263  0.74037155  1  0  -0.562372  0  2.057699  0  0  -0.512215  0  2.278057  0  0  -0.534628  0  2.263156  0  0  -0.334537  -0.496388  0  2.287173  0
O  O63  1  0.68236762  0.91621748  0.25962685  1  0  -0.56233  0  2.05773  0  0  -0.512172  0  2.27806  0  0  -0.534582  0  2.263179  0  0  -0.334555  -0.49635  0  2.287173  0
O  O64  1  0.88748211  0.33233632  0.84473191  1  0  -0.624879  0  1.989706  0  0  -0.582879  0  2.22757  0  0  -0.604198  0  2.217368  0  0  -0.327457  -0.567637  0  2.234445  0
O  O65  1  0.11251699  0.66766260  0.15526887  1  0  -0.624876  0  1.989712  0  0  -0.582906  0  2.227516  0  0  -0.60423  0  2.217309  0  0  -0.327467  -0.567664  0  2.23439  0
O  O66  1  0.64239125  0.29133050  0.69175463  1  0  -0.563695  0  2.120604  0  0  -0.506335  0  2.345822  0  0  -0.530015  0  2.331272  0  0  -0.322518  -0.490066  0  2.355804  0
O  O67  1  0.35760839  0.70867080  0.30824726  1  0  -0.563621  0  2.120689  0  0  -0.506289  0  2.345875  0  0  -0.529972  0  2.331325  0  0  -0.322492  -0.490018  0  2.355851  0
O  O68  1  0.79409790  0.68260524  0.06456764  1  0  -0.857541  0  1.878005  0  0  -0.809214  0  2.049183  0  0  -0.827827  0  2.017499  0  0  -0.61175  -0.79618  0  2.071675  0
O  O69  1  0.20590269  0.31739487  0.93543275  1  0  -0.857556  0  1.877985  0  0  -0.809233  0  2.049175  0  0  -0.827847  0  2.017486  0  0  -0.61175  -0.796198  0  2.071666  0
