# generated using pymatgen
data_Cd3P2H32C50(N3O5)2
_symmetry_space_group_name_H-M   'P 1'
_cell_length_a   13.70632074
_cell_length_b   14.54509352
_cell_length_c   15.37041251
_cell_angle_alpha   103.66973313
_cell_angle_beta   92.86868549
_cell_angle_gamma   110.56879632
_symmetry_Int_Tables_number   1
_chemical_formula_structural   Cd3P2H32C50(N3O5)2
_chemical_formula_sum   'Cd6 P4 H64 C100 N12 O20'
_cell_volume   2757.64866203
_cell_formula_units_Z   2
loop_
 _symmetry_equiv_pos_site_id
 _symmetry_equiv_pos_as_xyz
  1  'x, y, z'
loop_
 _atom_site_type_symbol
 _atom_site_label
 _atom_site_symmetry_multiplicity
 _atom_site_fract_x
 _atom_site_fract_y
 _atom_site_fract_z
 _atom_site_occupancy
 _atom_site_pbe_bader_charge
 _atom_site_pbe_bader_spin_density
 _atom_site_pbe_cm5_charge
 _atom_site_pbe_ddec_charge
 _atom_site_pbe_ddec_spin_density
 _atom_site_pbe_ddec_sum_bond_order
 _atom_site_pbe_magmom
Cd  Cd0  1  0.81811749  0.49683264  0.05146729  1  1.292965  0  0.793282  0.967487  0  2.228242  0
Cd  Cd1  1  0.18188158  0.50316875  0.94853672  1  1.29292  0  0.793285  0.967526  0  2.228207  0
Cd  Cd2  1  0.58393807  0.24342647  0.31528496  1  1.28786  0  0.766218  0.931806  0  2.206507  0
Cd  Cd3  1  0.41606069  0.75657034  0.68471541  1  1.287866  0  0.766248  0.931802  0  2.206595  0
Cd  Cd4  1  0.04573203  0.68024738  0.96292863  1  1.262777  0  0.79635  0.957282  0  2.266198  0
Cd  Cd5  1  0.95426835  0.31975935  0.03706883  1  1.262791  0  0.796351  0.957318  0  2.266218  0
P  P6  1  0.90876828  0.42582390  0.88105544  1  3.387721  0  0.297149  1.22624  0  5.483248  0
P  P7  1  0.09123299  0.57418130  0.11894692  1  3.387418  0  0.297175  1.226084  0  5.483379  0
P  P8  1  0.74845615  0.30675443  0.14649498  1  3.389158  0  0.305639  1.251086  0  5.526596  0
P  P9  1  0.25154347  0.69324086  0.85350378  1  3.389275  0  0.305582  1.25103  0  5.526566  0
H  H10  1  0.70399627  0.25874003  0.80779018  1  0.057791  0  0.095347  0.09098  0  1.050978  0
H  H11  1  0.29601100  0.74127128  0.19221120  1  0.057392  0  0.095389  0.090935  0  1.051021  0
H  H12  1  0.65759471  0.26773598  0.95824881  1  0.079326  0  0.093702  0.087098  0  1.047081  0
H  H13  1  0.34240768  0.73225702  0.04175020  1  0.079154  0  0.093687  0.087091  0  1.047097  0
H  H14  1  0.69180408  0.08996624  0.13587290  1  0.055873  0  0.102689  0.104488  0  0.990898  0
H  H15  1  0.30819380  0.91002828  0.86413082  1  0.055874  0  0.102695  0.104497  0  0.990945  0
H  H16  1  0.57468849  0.10747013  0.83085535  1  0.056769  0  0.097714  0.100727  0  1.016306  0
H  H17  1  0.42531127  0.89251981  0.16914482  1  0.056885  0  0.097682  0.10075  0  1.016271  0
H  H18  1  0.61315797  0.93118803  0.00691356  1  0.042657  0  0.096084  0.091904  0  1.044532  0
H  H19  1  0.38683962  0.06880573  0.99309128  1  0.04284  0  0.096089  0.091952  0  1.04446  0
H  H20  1  0.95135535  0.46946233  0.70965591  1  0.093775  0  0.106279  0.114367  0  0.985211  0
H  H21  1  0.04864986  0.53054745  0.29034243  1  0.093976  0  0.106328  0.114416  0  0.985159  0
H  H22  1  0.60099866  0.18507501  0.65085211  1  0.112194  0  0.101946  0.110693  0  1.00156  0
H  H23  1  0.39900976  0.81493172  0.34914894  1  0.112059  0  0.101906  0.110615  0  1.001708  0
H  H24  1  0.84849997  0.39237190  0.55299080  1  0.08726  0  0.10191  0.107001  0  1.00376  0
H  H25  1  0.15151223  0.60762948  0.44700596  1  0.087307  0  0.101924  0.107084  0  1.00366  0
H  H26  1  0.19692919  0.82379890  0.15271541  1  0.117297  0  0.119616  0.091765  0  1.029866  0
H  H27  1  0.80306721  0.17619943  0.84727674  1  0.117229  0  0.119623  0.091834  0  1.029763  0
H  H28  1  0.22234142  0.98406801  0.27286013  1  0.110446  0  0.113981  0.119066  0  1.000388  0
H  H29  1  0.77766141  0.01593185  0.72713328  1  0.110299  0  0.114033  0.119129  0  1.000271  0
H  H30  1  0.09781898  0.07430510  0.25982436  1  0.089751  0  0.105635  0.100674  0  1.011894  0
H  H31  1  0.90218650  0.92569782  0.74017246  1  0.089604  0  0.105635  0.100698  0  1.011834  0
H  H32  1  0.94101614  0.08082402  0.17198899  1  0.096997  0  0.112445  0.121897  0  0.972941  0
H  H33  1  0.05898175  0.91917813  0.82801059  1  0.097055  0  0.112445  0.121895  0  0.972942  0
H  H34  1  0.80097760  0.00505522  0.03961423  1  0.121574  0  0.104712  0.110656  0  1.042249  0
H  H35  1  0.19901825  0.99494541  0.96038948  1  0.121675  0  0.104706  0.110634  0  1.042259  0
H  H36  1  0.70436219  0.85935554  0.89752117  1  0.176467  0  0.109825  0.124323  0  1.043873  0
H  H37  1  0.29563115  0.14064050  0.10247619  1  0.176404  0  0.109838  0.124323  0  1.043834  0
H  H38  1  0.70162952  0.70386029  0.78733540  1  0.110848  0  0.105823  0.114185  0  1.014758  0
H  H39  1  0.29836660  0.29613728  0.21266503  1  0.110881  0  0.105823  0.114153  0  1.014755  0
H  H40  1  0.84113144  0.63255537  0.81285810  1  0.130948  0  0.123159  0.100318  0  0.971493  0
H  H41  1  0.15886163  0.36743992  0.18714689  1  0.130461  0  0.123152  0.100263  0  0.971512  0
H  H42  1  0.93050852  0.69524871  0.22923342  1  0.138546  0  0.123016  0.107303  0  0.984205  0
H  H43  1  0.06948966  0.30475039  0.77076679  1  0.138519  0  0.123049  0.107386  0  0.984212  0
H  H44  1  0.90288842  0.85250103  0.31791652  1  0.093764  0  0.10903  0.111868  0  0.987722  0
H  H45  1  0.09710976  0.14749807  0.68208434  1  0.093771  0  0.109044  0.111895  0  0.987713  0
H  H46  1  0.75305235  0.89331377  0.25880822  1  0.112621  0  0.119289  0.122137  0  0.962505  0
H  H47  1  0.24694174  0.10668228  0.74119764  1  0.112607  0  0.119295  0.122162  0  0.96253  0
H  H48  1  0.49678375  0.73676694  0.98851571  1  0.149024  0  0.114988  0.129834  0  1.012392  0
H  H49  1  0.50322408  0.26324208  0.01147932  1  0.149465  0  0.114993  0.129828  0  1.012428  0
H  H50  1  0.60268605  0.84973235  0.13594425  1  0.073765  0  0.112634  0.120693  0  0.987343  0
H  H51  1  0.39731681  0.15027132  0.86405458  1  0.073796  0  0.112638  0.120709  0  0.987303  0
H  H52  1  0.45019853  0.57902022  0.86439967  1  0.166428  0  0.117377  0.138003  0  0.985765  0
H  H53  1  0.54979687  0.42097735  0.13560203  1  0.166458  0  0.1174  0.138013  0  0.98577  0
H  H54  1  0.49369465  0.42625022  0.78942944  1  0.068232  0  0.10109  0.104628  0  1.039651  0
H  H55  1  0.50629739  0.57374430  0.21057534  1  0.068228  0  0.101119  0.104661  0  1.03973  0
H  H56  1  0.64420777  0.39909588  0.86256611  1  0.113132  0  0.117196  0.08589  0  1.005674  0
H  H57  1  0.35578837  0.60090170  0.13743757  1  0.113119  0  0.117233  0.085911  0  1.005679  0
H  H58  1  0.73334169  0.46948505  0.29687586  1  0.140603  0  0.126991  0.107861  0  0.990416  0
H  H59  1  0.26665546  0.53051328  0.70312283  1  0.140424  0  0.126991  0.107834  0  0.990447  0
H  H60  1  0.74274053  0.65141036  0.33141993  1  0.057678  0  0.099516  0.099692  0  1.037983  0
H  H61  1  0.25725691  0.34858874  0.66857895  1  0.057635  0  0.099502  0.099654  0  1.037984  0
H  H62  1  0.58776908  0.68993955  0.38691205  1  0.106612  0  0.115095  0.119707  0  0.973535  0
H  H63  1  0.41222969  0.31006107  0.61308982  1  0.106644  0  0.1151  0.119691  0  0.973589  0
H  H64  1  0.25299420  0.48229627  0.44523768  1  0.10659  0  0.111132  0.117596  0  0.993727  0
H  H65  1  0.74700237  0.51770435  0.55476019  1  0.106658  0  0.111146  0.117612  0  0.99376  0
H  H66  1  0.40633677  0.62468695  0.42480517  1  0.127441  0  0.10852  0.116342  0  1.043788  0
H  H67  1  0.59366052  0.37531368  0.57519274  1  0.127492  0  0.108535  0.116389  0  1.043749  0
H  H68  1  0.17187200  0.29683356  0.44569551  1  0.076549  0  0.11414  0.11556  0  0.970897  0
H  H69  1  0.82812559  0.70316402  0.55430302  1  0.076556  0  0.114135  0.115578  0  0.970783  0
H  H70  1  0.19280868  0.12868334  0.42760201  1  0.069473  0  0.107903  0.10969  0  0.988061  0
H  H71  1  0.80718992  0.87131500  0.57239414  1  0.069723  0  0.107911  0.109661  0  0.988081  0
H  H72  1  0.36254719  0.11354941  0.38196915  1  0.125816  0  0.127251  0.102041  0  0.970587  0
H  H73  1  0.63745273  0.88645046  0.61802544  1  0.125792  0  0.127239  0.102007  0  0.970631  0
C  C74  1  0.83354690  0.36924155  0.76890443  1  -0.553281  0  -0.029926  -0.170313  0  3.990055  0
C  C75  1  0.16646051  0.63076823  0.23109400  1  -0.553798  0  -0.029931  -0.170466  0  3.98999  0
C  C76  1  0.68214188  0.19003628  0.05510813  1  -0.539714  0  -0.024144  -0.171501  0  3.95657  0
C  C77  1  0.31785730  0.80995596  0.94489122  1  -0.539538  0  -0.024017  -0.171307  0  3.95634  0
C  C78  1  0.73526053  0.28855181  0.75195315  1  -0.110289  0  -0.097874  -0.099189  0  4.036133  0
C  C79  1  0.26474921  0.71145645  0.24804635  1  -0.10921  0  -0.097809  -0.098832  0  4.036117  0
C  C80  1  0.64747852  0.19375701  0.96893512  1  -0.017328  0  -0.093372  -0.078027  0  4.020166  0
C  C81  1  0.35252242  0.80623599  0.03106513  1  -0.017848  0  -0.093328  -0.078089  0  4.020035  0
C  C82  1  0.66911162  0.09434907  0.06829100  1  -0.042211  0  -0.087038  -0.076476  0  3.994723  0
C  C83  1  0.33088743  0.90564469  0.93171195  1  -0.041678  0  -0.087136  -0.076623  0  3.994804  0
C  C84  1  0.60268749  0.10529692  0.89780203  1  -0.085116  0  -0.094872  -0.115107  0  3.992835  0
C  C85  1  0.39731330  0.89469379  0.10220031  1  -0.085234  0  -0.094863  -0.115113  0  3.992597  0
C  C86  1  0.62542251  0.00592789  0.99684287  1  -0.032237  0  -0.092247  -0.109199  0  3.993058  0
C  C87  1  0.37457625  0.99406510  0.00316054  1  -0.033266  0  -0.092239  -0.10924  0  3.993095  0
C  C88  1  0.59264827  0.01039031  0.91069283  1  -0.006052  0  -0.024599  -0.029519  0  3.980404  0
C  C89  1  0.40735136  0.98960116  0.08931028  1  -0.00526  0  -0.024614  -0.029515  0  3.980397  0
C  C90  1  0.54392578  0.91470742  0.83443860  1  1.547886  0  0.182889  0.548146  0  4.260216  0
C  C91  1  0.45607268  0.08528481  0.16556463  1  1.547346  0  0.182902  0.548229  0  4.260047  0
C  C92  1  0.87471775  0.40681011  0.69680340  1  -0.084282  0  -0.08886  -0.078336  0  3.987454  0
C  C93  1  0.12529023  0.59319738  0.30319520  1  -0.084548  0  -0.088951  -0.078391  0  3.987362  0
C  C94  1  0.67807768  0.24699298  0.66500692  1  -0.016331  0  -0.092733  -0.103677  0  3.983293  0
C  C95  1  0.32193366  0.75301375  0.33499230  1  -0.016237  0  -0.092652  -0.103685  0  3.983316  0
C  C96  1  0.71863815  0.28494919  0.59334688  1  -0.064635  0  -0.02042  -0.023375  0  3.961814  0
C  C97  1  0.28137434  0.71505296  0.40665136  1  -0.06459  0  -0.020359  -0.02314  0  3.961597  0
C  C98  1  0.65196529  0.24584456  0.50109902  1  1.574966  0  0.17862  0.542639  0  4.297136  0
C  C99  1  0.34804456  0.75415454  0.49889648  1  1.575207  0  0.17854  0.542484  0  4.297455  0
C  C100  1  0.81787135  0.36438691  0.60983766  1  -0.029277  0  -0.090953  -0.105953  0  3.985546  0
C  C101  1  0.18213925  0.63561600  0.39016068  1  -0.029483  0  -0.091056  -0.106237  0  3.985415  0
C  C102  1  0.14511653  0.86543937  0.14974409  1  0.561369  0  0.065803  0.126083  0  3.913084  0
C  C103  1  0.85488499  0.13456278  0.85024848  1  0.561943  0  0.065695  0.125909  0  3.913197  0
C  C104  1  0.15791691  0.95479910  0.21701734  1  -0.053873  0  -0.079241  -0.123557  0  3.964651  0
C  C105  1  0.84208607  0.04520305  0.78297530  1  -0.05419  0  -0.079277  -0.123565  0  3.964635  0
C  C106  1  0.08931613  0.00400717  0.20951214  1  -0.087275  0  -0.066215  -0.084426  0  3.958955  0
C  C107  1  0.91068818  0.99599651  0.79048154  1  -0.086688  0  -0.066165  -0.084447  0  3.958671  0
C  C108  1  0.00781436  0.96390620  0.13509621  1  0.00068  0  -0.004147  0.039926  0  4.028899  0
C  C109  1  0.99218967  0.03610053  0.86489945  1  0.000922  0  -0.004143  0.040038  0  4.028795  0
C  C110  1  0.00142877  0.87370920  0.07001918  1  0.494732  0  0.118767  0.122631  0  3.981066  0
C  C111  1  0.99857276  0.12629676  0.92997555  1  0.494232  0  0.118717  0.122544  0  3.981034  0
C  C112  1  0.93388812  0.01047452  0.12232793  1  -0.062999  0  -0.085237  -0.12832  0  3.985674  0
C  C113  1  0.06611181  0.98952915  0.87766947  1  -0.062725  0  -0.08529  -0.128407  0  3.985832  0
C  C114  1  0.85635512  0.96863786  0.04918620  1  -0.02642  0  -0.081858  -0.109724  0  3.96367  0
C  C115  1  0.14364233  0.03136506  0.95081288  1  -0.026696  0  -0.081789  -0.10965  0  3.963664  0
C  C116  1  0.84634859  0.87691819  0.98284933  1  -0.032415  0  -0.003471  0.038589  0  4.005873  0
C  C117  1  0.15364915  0.12308549  0.01714798  1  -0.032618  0  -0.003465  0.038713  0  4.005694  0
C  C118  1  0.76614182  0.82979719  0.90711920  1  -0.031865  0  -0.060079  -0.065078  0  3.883671  0
C  C119  1  0.23385343  0.17020191  0.09287828  1  -0.031982  0  -0.060066  -0.06507  0  3.88349  0
C  C120  1  0.76360181  0.74223513  0.84542204  1  -0.042007  0  -0.083462  -0.127322  0  3.965633  0
C  C121  1  0.23639344  0.25776397  0.15457739  1  -0.041567  0  -0.083438  -0.127279  0  3.965558  0
C  C122  1  0.84079140  0.70211436  0.85909541  1  0.475985  0  0.061269  0.11727  0  3.930784  0
C  C123  1  0.15920356  0.29788398  0.14090579  1  0.476479  0  0.061214  0.117311  0  3.930842  0
C  C124  1  0.86595743  0.71616456  0.20760722  1  0.550145  0  0.057468  0.105117  0  3.93922  0
C  C125  1  0.13404001  0.28383454  0.79239165  1  0.550227  0  0.057468  0.105042  0  3.939306  0
C  C126  1  0.84988942  0.80349900  0.25599973  1  -0.097451  0  -0.087806  -0.141283  0  4.024012  0
C  C127  1  0.15010906  0.19650087  0.74400131  1  -0.097545  0  -0.08779  -0.141247  0  4.023938  0
C  C128  1  0.76745513  0.82591447  0.22330152  1  -0.059783  0  -0.062251  -0.080108  0  3.94033  0
C  C129  1  0.23254246  0.17408310  0.77670092  1  -0.059973  0  -0.062297  -0.080178  0  3.940338  0
C  C130  1  0.70154887  0.76173315  0.14178546  1  -0.033564  0  -0.002027  0.044538  0  4.02094  0
C  C131  1  0.29844858  0.23826595  0.85821601  1  -0.03311  0  -0.00201  0.044501  0  4.020921  0
C  C132  1  0.72353968  0.67489338  0.09775699  1  0.542519  0  0.11874  0.120476  0  3.970932  0
C  C133  1  0.27645734  0.32510648  0.90224399  1  0.542383  0  0.118706  0.120495  0  3.971012  0
C  C134  1  0.57727732  0.63094857  0.97547066  1  0.073422  0  0.002721  0.044796  0  3.992914  0
C  C135  1  0.42272174  0.36905282  0.02452945  1  0.073697  0  0.002767  0.044912  0  3.99285  0
C  C136  1  0.55856606  0.71982065  0.02090107  1  -0.107603  0  -0.071437  -0.098101  0  3.944295  0
C  C137  1  0.44143636  0.28018379  0.97909661  1  -0.108079  0  -0.071542  -0.098351  0  3.944376  0
C  C138  1  0.61759176  0.78219308  0.10160248  1  0.00098  0  -0.083547  -0.132363  0  3.97608  0
C  C139  1  0.38240905  0.21780907  0.89839657  1  0.000969  0  -0.083494  -0.132208  0  3.975902  0
C  C140  1  0.51569231  0.56379575  0.89312541  1  -0.117698  0  -0.054087  -0.05458  0  3.859039  0
C  C141  1  0.48430441  0.43620335  0.10687604  1  -0.118416  0  -0.054132  -0.054584  0  3.858982  0
C  C142  1  0.53933448  0.48015686  0.85252366  1  -0.010418  0  -0.085538  -0.133478  0  3.984835  0
C  C143  1  0.46065976  0.51984148  0.14748011  1  -0.009867  0  -0.085594  -0.133618  0  3.984764  0
C  C144  1  0.62318348  0.46378275  0.89402236  1  0.520742  0  0.059757  0.115464  0  3.94367  0
C  C145  1  0.37681295  0.53621558  0.10598085  1  0.520688  0  0.059778  0.115547  0  3.943533  0
C  C146  1  0.65951167  0.60755584  0.01327323  1  0.476762  0  0.118261  0.117883  0  3.97999  0
C  C147  1  0.34048505  0.39244326  0.98672821  1  0.476783  0  0.118263  0.117857  0  3.979975  0
C  C148  1  0.91989354  0.83002943  0.99209435  1  0.503646  0  0.115415  0.113444  0  4.001235  0
C  C149  1  0.08010478  0.16997577  0.00790202  1  0.503807  0  0.115425  0.113397  0  4.00132  0
C  C150  1  0.66958989  0.49080063  0.32333563  1  0.575941  0  0.066247  0.120913  0  3.906784  0
C  C151  1  0.33040888  0.50920000  0.67666689  1  0.576032  0  0.066284  0.120954  0  3.906802  0
C  C152  1  0.67327084  0.59168719  0.34169698  1  -0.048731  0  -0.086155  -0.133043  0  3.992628  0
C  C153  1  0.32672691  0.40831268  0.65830468  1  -0.048738  0  -0.086054  -0.132873  0  3.992552  0
C  C154  1  0.58811791  0.61283291  0.37178131  1  -0.076336  0  -0.066084  -0.08537  0  3.951898  0
C  C155  1  0.41188086  0.38716772  0.62822187  1  -0.076299  0  -0.066192  -0.085521  0  3.951938  0
C  C156  1  0.49902372  0.53278759  0.38333128  1  -0.029049  0  -0.002455  0.038039  0  4.018692  0
C  C157  1  0.50097681  0.46721380  0.61667279  1  -0.029054  0  -0.002441  0.038143  0  4.018663  0
C  C158  1  0.50349993  0.43404940  0.36540349  1  0.505461  0  0.119897  0.1191  0  3.98684  0
C  C159  1  0.49650090  0.56595275  0.63460207  1  0.505217  0  0.119891  0.119068  0  3.986815  0
C  C160  1  0.41600171  0.35119486  0.38090050  1  0.521361  0  0.120755  0.11965  0  3.976964  0
C  C161  1  0.58399985  0.64880729  0.61910444  1  0.521234  0  0.120727  0.119566  0  3.977086  0
C  C162  1  0.32535268  0.36927112  0.40909588  1  -0.008478  0  -0.004529  0.03587  0  4.032625  0
C  C163  1  0.67464682  0.63072951  0.59090733  1  -0.008406  0  -0.004481  0.035936  0  4.032601  0
C  C164  1  0.32253003  0.46911828  0.42319947  1  -0.052699  0  -0.083048  -0.120571  0  3.972281  0
C  C165  1  0.67746727  0.53088235  0.57680169  1  -0.052675  0  -0.083079  -0.12064  0  3.972368  0
C  C166  1  0.40686831  0.54801586  0.41182860  1  -0.050041  0  -0.080598  -0.108351  0  3.954681  0
C  C167  1  0.59312972  0.45198477  0.58817259  1  -0.050058  0  -0.080588  -0.10838  0  3.954756  0
C  C168  1  0.24280529  0.28607966  0.42431811  1  -0.076016  0  -0.067783  -0.089523  0  3.968884  0
C  C169  1  0.75719377  0.71392173  0.57568330  1  -0.075978  0  -0.067789  -0.089522  0  3.968896  0
C  C170  1  0.25425635  0.19347147  0.41426505  1  -0.014403  0  -0.088883  -0.143825  0  4.018374  0
C  C171  1  0.74574430  0.80652840  0.58573348  1  -0.014651  0  -0.088886  -0.143812  0  4.018526  0
C  C172  1  0.34793112  0.18371027  0.38786042  1  0.526233  0  0.065306  0.115603  0  3.941288  0
C  C173  1  0.65206837  0.81629035  0.61213824  1  0.526429  0  0.065336  0.115699  0  3.94131  0
N  N174  1  0.68084913  0.52481236  0.97233050  1  -1.237699  0  -0.316461  -0.271331  0  3.491349  0
N  N175  1  0.31914832  0.47518674  0.02767162  1  -1.237726  0  -0.316461  -0.271329  0  3.491268  0
N  N176  1  0.80396226  0.65395282  0.13155813  1  -1.235272  0  -0.316259  -0.26179  0  3.477242  0
N  N177  1  0.19603475  0.34604704  0.86844285  1  -1.235389  0  -0.316297  -0.261886  0  3.477328  0
N  N178  1  0.42495807  0.25973301  0.37042290  1  -1.20652  0  -0.304902  -0.251923  0  3.490669  0
N  N179  1  0.57504334  0.74027067  0.62957977  1  -1.206608  0  -0.304916  -0.251938  0  3.490742  0
N  N180  1  0.58745856  0.41497730  0.33563854  1  -1.218713  0  -0.307497  -0.256367  0  3.475968  0
N  N181  1  0.41253978  0.58502409  0.66436674  1  -1.218544  0  -0.307554  -0.256406  0  3.475985  0
N  N182  1  0.06967787  0.82693962  0.07864274  1  -1.233634  0  -0.320072  -0.271624  0  3.513731  0
N  N183  1  0.93032264  0.17306558  0.92135113  1  -1.234026  0  -0.31997  -0.27154  0  3.513603  0
N  N184  1  0.91641421  0.74516116  0.93036876  1  -1.236687  0  -0.323815  -0.272192  0  3.508039  0
N  N185  1  0.08358368  0.25484099  0.06962952  1  -1.236898  0  -0.323813  -0.272247  0  3.508298  0
O  O186  1  0.90470106  0.53341053  0.91622854  1  -1.429395  0  -0.398153  -0.771631  0  2.34418  0
O  O187  1  0.09530197  0.46659544  0.08377601  1  -1.429245  0  -0.398196  -0.771571  0  2.344245  0
O  O188  1  0.84981447  0.36166572  0.94391676  1  -1.421916  0  -0.39256  -0.763957  0  2.329513  0
O  O189  1  0.15018079  0.63833720  0.05608288  1  -1.421688  0  -0.392551  -0.76388  0  2.329456  0
O  O190  1  0.01830790  0.42380484  0.87189340  1  -1.451276  0  -0.394015  -0.766925  0  2.321088  0
O  O191  1  0.98169264  0.57619655  0.12811392  1  -1.45125  0  -0.394058  -0.766886  0  2.321122  0
O  O192  1  0.71754919  0.39068750  0.12008838  1  -1.434223  0  -0.410171  -0.775821  0  2.241626  0
O  O193  1  0.28244675  0.60930397  0.87990546  1  -1.434169  0  -0.410171  -0.775868  0  2.241593  0
O  O194  1  0.71500013  0.28834704  0.23532546  1  -1.450221  0  -0.399525  -0.739117  0  2.283819  0
O  O195  1  0.28499657  0.71164824  0.76467252  1  -1.450305  0  -0.399582  -0.739122  0  2.28373  0
O  O196  1  0.54806519  0.83193118  0.84388885  1  -1.180075  0  -0.336286  -0.568326  0  2.144422  0
O  O197  1  0.45193151  0.16806029  0.15611349  1  -1.179843  0  -0.336362  -0.568458  0  2.144151  0
O  O198  1  0.49917224  0.92290714  0.76256223  1  -1.152761  0  -0.351879  -0.573064  0  2.190039  0
O  O199  1  0.50082783  0.07708738  0.23744158  1  -1.152526  0  -0.351828  -0.573033  0  2.190112  0
O  O200  1  0.69898839  0.28002681  0.43814958  1  -1.155691  0  -0.352931  -0.566021  0  2.231161  0
O  O201  1  0.30101868  0.71997077  0.56184611  1  -1.156054  0  -0.352951  -0.565967  0  2.231218  0
O  O202  1  0.55672485  0.18922177  0.49302218  1  -1.185055  0  -0.355825  -0.585157  0  2.087836  0
O  O203  1  0.44328427  0.81077733  0.50697654  1  -1.184945  0  -0.355768  -0.585117  0  2.088073  0
O  O204  1  0.86757284  0.32809458  0.14873269  1  -1.410563  0  -0.419261  -0.764152  0  2.249282  0
O  O205  1  0.13242605  0.67190070  0.85126539  1  -1.410608  0  -0.419199  -0.764092  0  2.249239  0
