# generated using pymatgen
data_CuSiH16C24N4(Cl2F3)2
_symmetry_space_group_name_H-M   'P 1'
_cell_length_a   8.00663250
_cell_length_b   13.75267214
_cell_length_c   13.75267240
_cell_angle_alpha   89.73987171
_cell_angle_beta   86.00067572
_cell_angle_gamma   86.00081317
_symmetry_Int_Tables_number   1
_chemical_formula_structural   CuSiH16C24N4(Cl2F3)2
_chemical_formula_sum   'Cu1 Si1 H16 C24 N4 Cl4 F6'
_cell_volume   1506.97631989
_cell_formula_units_Z   1
loop_
 _symmetry_equiv_pos_site_id
 _symmetry_equiv_pos_as_xyz
  1  'x, y, z'
loop_
 _atom_site_type_symbol
 _atom_site_label
 _atom_site_symmetry_multiplicity
 _atom_site_fract_x
 _atom_site_fract_y
 _atom_site_fract_z
 _atom_site_occupancy
 _atom_site_pbe_bader_charge
 _atom_site_pbe_bader_spin_density
 _atom_site_pbe_cm5_charge
 _atom_site_pbe_ddec_charge
 _atom_site_pbe_ddec_spin_density
 _atom_site_pbe_ddec_sum_bond_order
 _atom_site_pbe_magmom
Cu  Cu0  1  0.49999633  0.49999485  0.49999879  1  1.085846  0.569831  0.779956  0.685434  0.732651  2.298746  0.568
Si  Si1  1  0.99999152  0.49999901  0.49999704  1  3.185775  -0.000191  0.244815  1.728363  -0.000369  3.94131  0.0
H  H2  1  0.26022201  0.49992062  0.34407570  1  0.204506  0.002096  0.121177  0.109814  0.000994  1.040638  0.002
H  H3  1  0.26446826  0.49984592  0.16877020  1  0.12105  0.000827  0.095518  0.109641  0.000441  1.076697  0.001
H  H4  1  0.80620215  0.50007028  0.16209995  1  0.107683  0.000973  0.09944  0.110125  0.000521  1.041019  0.001
H  H5  1  0.78005098  0.50005299  0.33950248  1  0.193318  0.002183  0.121949  0.111715  0.001041  1.033753  0.002
H  H6  1  0.19378352  0.49993618  0.83788983  1  0.107617  0.000973  0.099447  0.110135  0.000521  1.041001  0.001
H  H7  1  0.73552296  0.50016637  0.83122879  1  0.121185  0.000827  0.095526  0.109743  0.000441  1.076716  0.001
H  H8  1  0.73977676  0.50008074  0.65592594  1  0.203862  0.002097  0.121192  0.109835  0.000994  1.04064  0.002
H  H9  1  0.21994816  0.49994546  0.66048680  1  0.193292  0.002183  0.121955  0.111704  0.001041  1.033655  0.002
H  H10  1  0.26021197  0.34407306  0.49991605  1  0.204278  0.002097  0.12119  0.109807  0.000994  1.040665  0.002
H  H11  1  0.26445740  0.16876796  0.49984638  1  0.120917  0.000827  0.095487  0.109589  0.000441  1.076639  0.001
H  H12  1  0.80619455  0.16209871  0.50007080  1  0.107733  0.000973  0.099412  0.110116  0.000521  1.041136  0.001
H  H13  1  0.78004378  0.33950328  0.50005123  1  0.193071  0.002185  0.121928  0.111519  0.001041  1.033762  0.002
H  H14  1  0.19378574  0.83788953  0.49993382  1  0.10733  0.000973  0.09948  0.110172  0.000521  1.040963  0.001
H  H15  1  0.73552396  0.83122175  0.50015965  1  0.121038  0.000827  0.095505  0.109651  0.000441  1.076796  0.001
H  H16  1  0.73977158  0.65591956  0.50007751  1  0.203887  0.002098  0.121169  0.109858  0.000994  1.040589  0.002
H  H17  1  0.21994387  0.66048642  0.49994363  1  0.19366  0.002182  0.121921  0.111612  0.00104  1.033735  0.002
C  C18  1  0.37998368  0.49994798  0.30140559  1  0.379025  -0.00096  0.052854  0.104466  -0.001503  3.895093  -0.001
C  C19  1  0.38409226  0.49993088  0.20025533  1  0.06819  0.006238  -0.087298  -0.162476  0.00426  3.920704  0.005
C  C20  1  0.53763267  0.49997866  0.14318613  1  -0.037902  -0.003497  0.001573  0.100212  -0.003896  3.97049  -0.002
C  C21  1  0.68093636  0.50001139  0.19770239  1  -0.026182  0.006425  -0.087791  -0.165292  0.004284  3.926248  0.005
C  C22  1  0.66810459  0.50001796  0.29886784  1  0.436752  -0.000673  0.053837  0.10574  -0.001038  3.894579  0.0
C  C23  1  0.55821808  0.49993329  0.03468347  1  0.083713  -0.000844  0.022075  0.032197  -0.000986  3.906587  0.0
C  C24  1  0.44177017  0.50007245  0.96530912  1  0.169567  -0.000832  0.02212  0.032233  -0.000986  3.906812  0.0
C  C25  1  0.31904572  0.49999362  0.80229118  1  -0.025888  0.006423  -0.087691  -0.165096  0.004283  3.926031  0.005
C  C26  1  0.46235066  0.50002634  0.85680811  1  -0.038143  -0.003496  0.00161  0.100146  -0.003894  3.970551  -0.002
C  C27  1  0.61589857  0.50007412  0.79974079  1  0.068234  0.006237  -0.08739  -0.162697  0.00426  3.920828  0.005
C  C28  1  0.62001251  0.50005411  0.69859034  1  0.37966  -0.00096  0.052887  0.104517  -0.001501  3.895285  -0.001
C  C29  1  0.33189178  0.49998267  0.70112663  1  0.436359  -0.000672  0.053728  0.105617  -0.00104  3.894391  0.0
C  C30  1  0.37997687  0.30140294  0.49994556  1  0.379292  -0.00096  0.052808  0.104352  -0.001502  3.895098  -0.001
C  C31  1  0.38407987  0.20025127  0.49993058  1  0.068054  0.006238  -0.087258  -0.162308  0.004259  3.920464  0.005
C  C32  1  0.53762673  0.14318543  0.49997867  1  -0.037708  -0.003496  0.001574  0.100068  -0.003895  3.970583  -0.002
C  C33  1  0.68093510  0.19770304  0.50001121  1  -0.026242  0.006425  -0.087809  -0.165315  0.004284  3.926196  0.005
C  C34  1  0.66809602  0.29886897  0.50001706  1  0.437125  -0.000675  0.053871  0.10598  -0.001039  3.894446  0.0
C  C35  1  0.55821444  0.03468408  0.49993602  1  0.083731  -0.000843  0.022044  0.032191  -0.000986  3.906646  0.0
C  C36  1  0.44177184  0.96530635  0.50007199  1  0.169618  -0.000832  0.022155  0.032341  -0.000986  3.906822  0.0
C  C37  1  0.31904869  0.80228739  0.49999108  1  -0.02559  0.006423  -0.087797  -0.165196  0.004283  3.926063  0.005
C  C38  1  0.46235571  0.85680573  0.50002440  1  -0.038044  -0.003497  0.001567  0.100072  -0.003895  3.970586  -0.002
C  C39  1  0.61589900  0.79973844  0.50006972  1  0.068409  0.006238  -0.087287  -0.162479  0.00426  3.920784  0.005
C  C40  1  0.62000576  0.69858676  0.50005169  1  0.379716  -0.000961  0.052804  0.104319  -0.001502  3.895342  -0.001
C  C41  1  0.33188376  0.70112365  0.49998102  1  0.435819  -0.000669  0.053814  0.105738  -0.001038  3.894315  0.0
N  N42  1  0.51914078  0.49998752  0.35080693  1  -1.200024  0.09495  -0.331264  -0.210414  0.063225  3.572385  0.084
N  N43  1  0.48086085  0.50001093  0.64918953  1  -1.199924  0.094945  -0.331232  -0.210358  0.063223  3.572437  0.084
N  N44  1  0.51913169  0.35080325  0.49998472  1  -1.200117  0.094944  -0.3312  -0.210309  0.06322  3.572461  0.084
N  N45  1  0.48085730  0.64918572  0.50000937  1  -1.200028  0.094953  -0.331195  -0.210273  0.063228  3.57251  0.084
Cl  Cl46  1  0.76881324  0.49977545  0.99281552  1  -0.188263  0.000589  0.040714  -0.031695  0.000372  1.658584  0.0
Cl  Cl47  1  0.23117161  0.50022737  0.00717504  1  -0.188365  0.000589  0.040772  -0.031652  0.000372  1.658638  0.0
Cl  Cl48  1  0.76880978  0.99281697  0.49978454  1  -0.188225  0.000589  0.040733  -0.031696  0.000372  1.658552  0.0
Cl  Cl49  1  0.23117283  0.00717273  0.50022652  1  -0.188407  0.000589  0.040776  -0.03167  0.000372  1.658647  0.0
F  F50  1  0.21624316  0.50086835  0.50086728  1  -0.841975  -0.001792  -0.205016  -0.53533  -0.001904  1.3428  -0.001
F  F51  1  0.78374147  0.49912572  0.49912478  1  -0.842055  -0.001793  -0.205051  -0.535261  -0.001904  1.342671  -0.001
F  F52  1  0.99999073  0.58823331  0.41176629  1  -0.831411  0.000173  -0.256765  -0.550106  0.000167  1.056142  0.0
F  F53  1  0.99999731  0.41176470  0.58822904  1  -0.831377  0.000173  -0.256769  -0.550136  0.000167  1.056101  0.0
F  F54  1  0.02292294  0.41173566  0.41173099  1  -0.831637  0.000173  -0.256283  -0.54963  0.000167  1.055915  0.0
F  F55  1  0.97706368  0.58826279  0.58826169  1  -0.831811  0.000173  -0.256289  -0.549635  0.000167  1.055902  0.0
