# generated using pymatgen
data_TbAgH12C24(NO2)4
_symmetry_space_group_name_H-M   'P 1'
_cell_length_a   7.37785427
_cell_length_b   12.11404800
_cell_length_c   13.65342089
_cell_angle_alpha   116.33060119
_cell_angle_beta   92.21523805
_cell_angle_gamma   90.02911526
_symmetry_Int_Tables_number   1
_chemical_formula_structural   TbAgH12C24(NO2)4
_chemical_formula_sum   'Tb2 Ag2 H24 C48 N8 O16'
_cell_volume   1092.64926808
_cell_formula_units_Z   2
loop_
 _symmetry_equiv_pos_site_id
 _symmetry_equiv_pos_as_xyz
  1  'x, y, z'
loop_
 _atom_site_type_symbol
 _atom_site_label
 _atom_site_symmetry_multiplicity
 _atom_site_fract_x
 _atom_site_fract_y
 _atom_site_fract_z
 _atom_site_occupancy
 _atom_site_hle17_bader_spin_density
 _atom_site_hle17_ddec_charge
 _atom_site_hle17_ddec_spin_density
 _atom_site_hle17_ddec_sum_bond_order
 _atom_site_hle17_magmom
 _atom_site_hse06_10hf_bader_spin_density
 _atom_site_hse06_10hf_ddec_charge
 _atom_site_hse06_10hf_ddec_spin_density
 _atom_site_hse06_10hf_ddec_sum_bond_order
 _atom_site_hse06_10hf_magmom
 _atom_site_hse06_bader_spin_density
 _atom_site_hse06_ddec_charge
 _atom_site_hse06_ddec_spin_density
 _atom_site_hse06_ddec_sum_bond_order
 _atom_site_hse06_magmom
 _atom_site_pbe_bader_spin_density
 _atom_site_pbe_cm5_charge
 _atom_site_pbe_ddec_charge
 _atom_site_pbe_ddec_spin_density
 _atom_site_pbe_ddec_sum_bond_order
 _atom_site_pbe_magmom
Tb  Tb0  1  0.74996962  0.94376900  0.99995147  1  0  2.281698  0  1.760476  0  0  2.145269  0  2.226634  0  0  2.259175  0  2.065261  0  0  1.553247  2.104672  0  2.264632  0
Tb  Tb1  1  0.25002848  0.05623084  0.00004919  1  0  2.281699  0  1.760442  0  0  2.145282  0  2.226574  0  0  2.259171  0  2.065224  0  0  1.553236  2.104666  0  2.264597  0
Ag  Ag2  1  0.99999889  0.49999858  0.49999866  1  0  0.487975  0  1.401495  0  0  0.326534  0  1.813872  0  0  0.357014  0  1.777806  0  0  0.480831  0.305685  0  1.838752  0
Ag  Ag3  1  0.50000020  0.99999968  0.50000013  1  0  0.486974  0  1.40236  0  0  0.325561  0  1.815411  0  0  0.356059  0  1.779187  0  0  0.48109  0.304764  0  1.840274  0
H  H4  1  0.98732870  0.32426550  0.69887756  1  0  0.070932  0  0.958247  0  0  0.075677  0  1.030471  0  0  0.07823  0  1.028239  0  0  0.10696  0.073844  0  1.032064  0
H  H5  1  0.51295368  0.62548124  0.30110517  1  0  0.070546  0  0.958242  0  0  0.07525  0  1.030856  0  0  0.077802  0  1.028643  0  0  0.106761  0.073407  0  1.032474  0
H  H6  1  0.01267483  0.67573433  0.30112249  1  0  0.070948  0  0.958157  0  0  0.075641  0  1.030455  0  0  0.078196  0  1.028215  0  0  0.106945  0.073811  0  1.032048  0
H  H7  1  0.48704447  0.37451951  0.69889366  1  0  0.070601  0  0.958236  0  0  0.075291  0  1.030857  0  0  0.077829  0  1.028683  0  0  0.106771  0.073448  0  1.032475  0
H  H8  1  0.87362377  0.46157374  0.88034132  1  0  0.125836  0  0.923339  0  0  0.13769  0  0.974394  0  0  0.141319  0  0.973482  0  0  0.11749  0.135085  0  0.975249  0
H  H9  1  0.62649856  0.58145863  0.11958888  1  0  0.125576  0  0.923755  0  0  0.137467  0  0.974688  0  0  0.141151  0  0.973671  0  0  0.117612  0.134812  0  0.975631  0
H  H10  1  0.12637841  0.53842610  0.11965870  1  0  0.125829  0  0.923346  0  0  0.137682  0  0.974404  0  0  0.141313  0  0.973484  0  0  0.117487  0.135078  0  0.975258  0
H  H11  1  0.37350367  0.41854304  0.88041260  1  0  0.125612  0  0.923723  0  0  0.137474  0  0.97469  0  0  0.141162  0  0.973668  0  0  0.117612  0.13482  0  0.975634  0
H  H12  1  0.94694246  0.68789072  0.96029125  1  0  0.112383  0  0.961059  0  0  0.115201  0  1.03161  0  0  0.119655  0  1.027066  0  0  0.118996  0.111445  0  1.035924  0
H  H13  1  0.55303238  0.72777782  0.03966893  1  0  0.112903  0  0.961147  0  0  0.115479  0  1.03175  0  0  0.119882  0  1.027294  0  0  0.119207  0.11173  0  1.036053  0
H  H14  1  0.05305837  0.31210911  0.03970727  1  0  0.112391  0  0.961024  0  0  0.115182  0  1.031598  0  0  0.119633  0  1.027061  0  0  0.118991  0.111428  0  1.035914  0
H  H15  1  0.44697120  0.27222386  0.96033258  1  0  0.112933  0  0.961112  0  0  0.115472  0  1.031763  0  0  0.119875  0  1.027307  0  0  0.11921  0.111723  0  1.036064  0
H  H16  1  0.73205384  0.73562703  0.67203156  1  0  0.113672  0  0.922772  0  0  0.124939  0  0.980373  0  0  0.128776  0  0.976804  0  0  0.11636  0.122074  0  0.983034  0
H  H17  1  0.76833508  0.06375776  0.32800899  1  0  0.113605  0  0.92223  0  0  0.124773  0  0.979885  0  0  0.128556  0  0.976434  0  0  0.116335  0.121963  0  0.982466  0
H  H18  1  0.26794421  0.26437096  0.32796764  1  0  0.113638  0  0.922769  0  0  0.124878  0  0.980399  0  0  0.128716  0  0.976826  0  0  0.116324  0.122014  0  0.983063  0
H  H19  1  0.23166717  0.93624484  0.67199431  1  0  0.113611  0  0.922209  0  0  0.124773  0  0.979869  0  0  0.128555  0  0.976422  0  0  0.116322  0.121963  0  0.982451  0
H  H20  1  0.30683939  0.60578083  0.41784300  1  0  0.078776  0  0.942606  0  0  0.089593  0  1.007077  0  0  0.091453  0  1.005566  0  0  0.116823  0.088196  0  1.00826  0
H  H21  1  0.19370537  0.18773841  0.58210212  1  0  0.078704  0  0.942605  0  0  0.089588  0  1.007028  0  0  0.091458  0  1.005494  0  0  0.116745  0.088212  0  1.008192  0
H  H22  1  0.69316407  0.39421624  0.58215450  1  0  0.07878  0  0.942586  0  0  0.089577  0  1.007078  0  0  0.091439  0  1.005563  0  0  0.116835  0.088177  0  1.008262  0
H  H23  1  0.80629815  0.81226143  0.41790013  1  0  0.078717  0  0.942609  0  0  0.089624  0  1.006993  0  0  0.091493  0  1.005459  0  0  0.116756  0.088234  0  1.008175  0
H  H24  1  0.61890510  0.69637768  0.48195675  1  0  0.09928  0  0.977192  0  0  0.104255  0  1.051397  0  0  0.107411  0  1.049851  0  0  0.103496  0.102017  0  1.052608  0
H  H25  1  0.88184485  0.21451492  0.51804580  1  0  0.099437  0  0.976345  0  0  0.104394  0  1.050471  0  0  0.107496  0  1.048975  0  0  0.10367  0.102184  0  1.051655  0
H  H26  1  0.38109831  0.30361846  0.51804186  1  0  0.099258  0  0.977145  0  0  0.104233  0  1.051365  0  0  0.107388  0  1.049818  0  0  0.103489  0.101992  0  1.052579  0
H  H27  1  0.11815729  0.78548492  0.48195788  1  0  0.099404  0  0.976408  0  0  0.104372  0  1.050524  0  0  0.107473  0  1.049029  0  0  0.103664  0.102166  0  1.051705  0
C  C28  1  0.02303282  0.42223143  0.73639882  1  0  0.138191  0  3.724437  0  0  0.110277  0  3.988359  0  0  0.117602  0  4.005072  0  0  0.045533  0.105686  0  3.976774  0
C  C29  1  0.47710475  0.68589254  0.26359048  1  0  0.138561  0  3.723287  0  0  0.110345  0  3.98739  0  0  0.117659  0  4.004112  0  0  0.045434  0.105752  0  3.975819  0
C  C30  1  0.97696665  0.57776840  0.26360040  1  0  0.138222  0  3.724325  0  0  0.110339  0  3.988265  0  0  0.117663  0  4.004982  0  0  0.045526  0.105746  0  3.976683  0
C  C31  1  0.52289342  0.31410914  0.73641017  1  0  0.138484  0  3.723345  0  0  0.110284  0  3.987446  0  0  0.117596  0  4.004161  0  0  0.045413  0.105688  0  3.975875  0
C  C32  1  0.14514922  0.80330141  0.87025716  1  0  0.701761  0  3.849588  0  0  0.655894  0  4.136099  0  0  0.690824  0  4.133473  0  0  0.220689  0.631921  0  4.141616  0
C  C33  1  0.35499337  0.93314730  0.12981670  1  0  0.701441  0  3.847947  0  0  0.655965  0  4.133934  0  0  0.690892  0  4.131272  0  0  0.220594  0.631994  0  4.139478  0
C  C34  1  0.85484891  0.19669842  0.12974130  1  0  0.701735  0  3.849694  0  0  0.655851  0  4.136225  0  0  0.690781  0  4.133602  0  0  0.220632  0.63188  0  4.141734  0
C  C35  1  0.64500473  0.06685254  0.87018396  1  0  0.701386  0  3.848056  0  0  0.655881  0  4.13408  0  0  0.690806  0  4.131422  0  0  0.220561  0.631912  0  4.139622  0
C  C36  1  0.95683340  0.49935308  0.83798650  1  0  -0.09658  0  3.678061  0  0  -0.109978  0  3.926699  0  0  -0.116748  0  3.945346  0  0  -0.073349  -0.105817  0  3.914127  0
C  C37  1  0.54326102  0.66150660  0.16197886  1  0  -0.094849  0  3.676614  0  0  -0.108011  0  3.924853  0  0  -0.114806  0  3.94345  0  0  -0.073002  -0.103828  0  3.912305  0
C  C38  1  0.04316746  0.50064767  0.16201312  1  0  -0.096598  0  3.678063  0  0  -0.109991  0  3.926687  0  0  -0.116761  0  3.945337  0  0  -0.073328  -0.105831  0  3.914115  0
C  C39  1  0.45673847  0.33849416  0.83802219  1  0  -0.09491  0  3.67666  0  0  -0.10805  0  3.9249  0  0  -0.114846  0  3.943495  0  0  -0.073035  -0.10387  0  3.912351  0
C  C40  1  0.99780760  0.62449926  0.88165422  1  0  0.032492  0  3.637818  0  0  0.00312  0  3.885683  0  0  0.010363  0  3.899171  0  0  -0.046201  -0.001381  0  3.876663  0
C  C41  1  0.50222482  0.74294744  0.11831254  1  0  0.030666  0  3.637315  0  0  0.001476  0  3.885405  0  0  0.008753  0  3.898858  0  0  -0.046248  -0.003017  0  3.876374  0
C  C42  1  0.00219055  0.37550150  0.11834460  1  0  0.032513  0  3.637829  0  0  0.003155  0  3.8857  0  0  0.010397  0  3.899189  0  0  -0.046194  -0.00135  0  3.876678  0
C  C43  1  0.49777606  0.25705424  0.88168817  1  0  0.030641  0  3.637305  0  0  0.001475  0  3.885408  0  0  0.008751  0  3.898862  0  0  -0.046242  -0.003013  0  3.876373  0
C  C44  1  0.31277034  0.61513229  0.66321324  1  0  0.195126  0  3.67833  0  0  0.182142  0  3.910435  0  0  0.191217  0  3.928065  0  0  0.136212  0.176176  0  3.898269  0
C  C45  1  0.18722167  0.95171541  0.33673855  1  0  0.193254  0  3.679837  0  0  0.180444  0  3.912173  0  0  0.189351  0  3.930035  0  0  0.135733  0.174615  0  3.899811  0
C  C46  1  0.68722909  0.38486570  0.33678453  1  0  0.195145  0  3.678366  0  0  0.182199  0  3.910415  0  0  0.191276  0  3.928044  0  0  0.136215  0.176233  0  3.898248  0
C  C47  1  0.81277915  0.04828443  0.66326144  1  0  0.193287  0  3.679818  0  0  0.180459  0  3.912178  0  0  0.189364  0  3.93004  0  0  0.135737  0.174632  0  3.89981  0
C  C48  1  0.48877862  0.66161645  0.70362007  1  0  -0.096988  0  3.659454  0  0  -0.07813  0  3.88822  0  0  -0.086825  0  3.905556  0  0  0.005529  -0.07273  0  3.876357  0
C  C49  1  0.01128421  0.95793646  0.29636598  1  0  -0.095718  0  3.657313  0  0  -0.076949  0  3.88641  0  0  -0.085592  0  3.903804  0  0  0.006187  -0.071578  0  3.874479  0
C  C50  1  0.51122218  0.33838246  0.29637883  1  0  -0.096984  0  3.65953  0  0  -0.078182  0  3.888245  0  0  -0.086876  0  3.905588  0  0  0.005482  -0.072781  0  3.876376  0
C  C51  1  0.98871530  0.04206522  0.70363543  1  0  -0.095635  0  3.657266  0  0  -0.076866  0  3.88638  0  0  -0.085509  0  3.903774  0  0  0.006211  -0.071492  0  3.874444  0
C  C52  1  0.59826492  0.69454398  0.63934175  1  0  -0.007766  0  3.667406  0  0  -0.036691  0  3.915816  0  0  -0.03065  0  3.929303  0  0  -0.059116  -0.040453  0  3.906579  0
C  C53  1  0.90202378  0.05522190  0.36068648  1  0  -0.00711  0  3.665243  0  0  -0.035856  0  3.91351  0  0  -0.029789  0  3.927011  0  0  -0.058867  -0.039638  0  3.904209  0
C  C54  1  0.40173586  0.30545493  0.36065861  1  0  -0.00767  0  3.667394  0  0  -0.036563  0  3.915796  0  0  -0.03052  0  3.929288  0  0  -0.059029  -0.040331  0  3.906562  0
C  C55  1  0.09797713  0.94478070  0.63931533  1  0  -0.007203  0  3.665251  0  0  -0.035936  0  3.913519  0  0  -0.029869  0  3.927018  0  0  -0.058868  -0.039715  0  3.90421  0
C  C56  1  0.10964915  0.66828969  0.82521871  1  0  -0.135921  0  3.674726  0  0  -0.116079  0  3.903838  0  0  -0.128249  0  3.924125  0  0  -0.006009  -0.108127  0  3.889625  0
C  C57  1  0.39037544  0.84308323  0.17478229  1  0  -0.135328  0  3.67287  0  0  -0.115871  0  3.90208  0  0  -0.128021  0  3.922306  0  0  -0.00603  -0.107934  0  3.887902  0
C  C58  1  0.89034765  0.33171107  0.17478008  1  0  -0.135982  0  3.674772  0  0  -0.116111  0  3.903837  0  0  -0.128281  0  3.924123  0  0  -0.006044  -0.108156  0  3.889616  0
C  C59  1  0.60962541  0.15691752  0.82521806  1  0  -0.135296  0  3.672858  0  0  -0.115857  0  3.902068  0  0  -0.128007  0  3.922297  0  0  -0.006061  -0.107931  0  3.887897  0
C  C60  1  0.36191217  0.62468033  0.49910867  1  0  0.112873  0  3.713267  0  0  0.080041  0  3.960023  0  0  0.08705  0  3.980773  0  0  0.038165  0.075234  0  3.94634  0
C  C61  1  0.13849166  0.12540180  0.50085664  1  0  0.11228  0  3.714359  0  0  0.079446  0  3.961284  0  0  0.086492  0  3.981925  0  0  0.037816  0.074469  0  3.947911  0
C  C62  1  0.63808858  0.37531674  0.50088877  1  0  0.112956  0  3.713155  0  0  0.080154  0  3.959905  0  0  0.087165  0  3.98065  0  0  0.038168  0.075361  0  3.946198  0
C  C63  1  0.86151048  0.87459711  0.49914449  1  0  0.11219  0  3.714344  0  0  0.079354  0  3.961262  0  0  0.0864  0  3.981904  0  0  0.03777  0.074371  0  3.947933  0
C  C64  1  0.18224535  0.58153282  0.72730584  1  0  0.175164  0  3.754594  0  0  0.165953  0  4.000002  0  0  0.175041  0  4.016058  0  0  0.122999  0.160073  0  3.988842  0
C  C65  1  0.31767712  0.85407787  0.27263098  1  0  0.176356  0  3.754411  0  0  0.167374  0  3.999384  0  0  0.176453  0  4.015597  0  0  0.123124  0.161483  0  3.988169  0
C  C66  1  0.81775145  0.41846794  0.27269295  1  0  0.175211  0  3.754516  0  0  0.166005  0  3.999869  0  0  0.175091  0  4.015924  0  0  0.12308  0.160116  0  3.988735  0
C  C67  1  0.68232101  0.14592289  0.72737078  1  0  0.176289  0  3.754501  0  0  0.167388  0  3.99936  0  0  0.176467  0  4.015571  0  0  0.123132  0.161499  0  3.988143  0
C  C68  1  0.55815954  0.67360104  0.81364566  1  0  0.697868  0  3.907949  0  0  0.648877  0  4.206251  0  0  0.683332  0  4.199046  0  0  0.220553  0.625731  0  4.211054  0
C  C69  1  0.94175804  0.86004566  0.18628581  1  0  0.696674  0  3.907338  0  0  0.64707  0  4.206813  0  0  0.681465  0  4.199743  0  0  0.220271  0.623967  0  4.211524  0
C  C70  1  0.44183586  0.32639881  0.18635421  1  0  0.697652  0  3.90816  0  0  0.648802  0  4.206239  0  0  0.683244  0  4.199066  0  0  0.220526  0.625655  0  4.211033  0
C  C71  1  0.05824287  0.13995694  0.81371526  1  0  0.69664  0  3.907333  0  0  0.647003  0  4.206874  0  0  0.681399  0  4.199802  0  0  0.22025  0.623893  0  4.211586  0
C  C72  1  0.53462830  0.67516043  0.53529891  1  0  -0.110748  0  3.742191  0  0  -0.125614  0  4.001794  0  0  -0.13259  0  4.023053  0  0  -0.084136  -0.121191  0  3.987685  0
C  C73  1  0.96586970  0.13983753  0.46470368  1  0  -0.111122  0  3.741043  0  0  -0.125858  0  4.000776  0  0  -0.132741  0  4.021968  0  0  -0.084268  -0.121462  0  3.986677  0
C  C74  1  0.46537244  0.32483664  0.46469926  1  0  -0.110764  0  3.742171  0  0  -0.125628  0  4.001738  0  0  -0.132606  0  4.022995  0  0  -0.084114  -0.12121  0  3.987631  0
C  C75  1  0.03413252  0.86016415  0.53529926  1  0  -0.110992  0  3.741021  0  0  -0.125739  0  4.000743  0  0  -0.132622  0  4.021933  0  0  -0.084222  -0.121343  0  3.986641  0
N  N76  1  0.13290061  0.46131775  0.68130341  1  0  -0.391917  0  3.133326  0  0  -0.35009  0  3.415562  0  0  -0.364741  0  3.428686  0  0  -0.332507  -0.339959  0  3.406277  0
N  N77  1  0.36709622  0.77990912  0.31864954  1  0  -0.392864  0  3.133083  0  0  -0.350975  0  3.415164  0  0  -0.365594  0  3.428221  0  0  -0.332382  -0.340871  0  3.405933  0
N  N78  1  0.86709751  0.53868209  0.31869505  1  0  -0.391988  0  3.133278  0  0  -0.350179  0  3.415542  0  0  -0.36483  0  3.428664  0  0  -0.33256  -0.340047  0  3.406258  0
N  N79  1  0.63290189  0.22009072  0.68135039  1  0  -0.39282  0  3.133107  0  0  -0.35095  0  3.415158  0  0  -0.365567  0  3.428212  0  0  -0.332352  -0.340848  0  3.405928  0
N  N80  1  0.25267671  0.59624339  0.56222284  1  0  -0.330055  0  3.360288  0  0  -0.238101  0  3.628555  0  0  -0.259235  0  3.646636  0  0  -0.348212  -0.223701  0  3.615907  0
N  N81  1  0.24746188  0.03378621  0.43771432  1  0  -0.328361  0  3.359856  0  0  -0.23688  0  3.628338  0  0  -0.257918  0  3.64647  0  0  -0.348102  -0.222514  0  3.615619  0
N  N82  1  0.74732272  0.40375460  0.43777492  1  0  -0.330119  0  3.360292  0  0  -0.238197  0  3.628573  0  0  -0.259333  0  3.646653  0  0  -0.348273  -0.223803  0  3.615931  0
N  N83  1  0.75254030  0.96621362  0.56228570  1  0  -0.328338  0  3.359821  0  0  -0.236888  0  3.628351  0  0  -0.257926  0  3.646482  0  0  -0.3481  -0.222519  0  3.615625  0
O  O84  1  0.27117486  0.84829766  0.83869631  1  0  -0.644701  0  1.984734  0  0  -0.601989  0  2.217951  0  0  -0.632739  0  2.212369  0  0  -0.326762  -0.584551  0  2.221484  0
O  O85  1  0.22920502  0.00980403  0.16150244  1  0  -0.645209  0  1.983805  0  0  -0.602491  0  2.216893  0  0  -0.633248  0  2.211281  0  0  -0.327113  -0.58505  0  2.220432  0
O  O86  1  0.72882330  0.15170309  0.16130252  1  0  -0.644665  0  1.984747  0  0  -0.601964  0  2.217991  0  0  -0.632717  0  2.212411  0  0  -0.326745  -0.584528  0  2.221518  0
O  O87  1  0.77079309  0.99019581  0.83849822  1  0  -0.645228  0  1.983879  0  0  -0.602493  0  2.21697  0  0  -0.633251  0  2.211361  0  0  -0.327118  -0.585055  0  2.220505  0
O  O88  1  0.50431104  0.59804598  0.84527667  1  0  -0.58217  0  1.903356  0  0  -0.5398  0  2.121879  0  0  -0.564548  0  2.117528  0  0  -0.295536  -0.521969  0  2.12376  0
O  O89  1  0.99546172  0.75283167  0.15443769  1  0  -0.582287  0  1.902998  0  0  -0.539299  0  2.121316  0  0  -0.564053  0  2.117068  0  0  -0.29558  -0.521496  0  2.123169  0
O  O90  1  0.49568836  0.40195108  0.15471927  1  0  -0.582093  0  1.903378  0  0  -0.539766  0  2.12181  0  0  -0.564518  0  2.117476  0  0  -0.295539  -0.521933  0  2.123685  0
O  O91  1  0.00453783  0.24717093  0.84556335  1  0  -0.582299  0  1.902987  0  0  -0.539321  0  2.121339  0  0  -0.564073  0  2.11709  0  0  -0.295612  -0.521518  0  2.123194  0
O  O92  1  0.67453019  0.76203846  0.86511634  1  0  -0.797001  0  2.094615  0  0  -0.747155  0  2.371676  0  0  -0.785517  0  2.35597  0  0  -0.457293  -0.726526  0  2.378978  0
O  O93  1  0.82541516  0.89717758  0.13497888  1  0  -0.796652  0  2.094942  0  0  -0.74664  0  2.372261  0  0  -0.785017  0  2.356703  0  0  -0.457232  -0.726028  0  2.379521  0
O  O94  1  0.32546248  0.23796139  0.13488566  1  0  -0.796933  0  2.094659  0  0  -0.747149  0  2.371672  0  0  -0.785486  0  2.355935  0  0  -0.457256  -0.726517  0  2.378971  0
O  O95  1  0.17458439  0.10282502  0.86502289  1  0  -0.796631  0  2.09495  0  0  -0.746585  0  2.372237  0  0  -0.784958  0  2.356682  0  0  -0.457209  -0.725971  0  2.379502  0
O  O96  1  0.04424380  0.87671824  0.94789754  1  0  -0.845243  0  2.151073  0  0  -0.785912  0  2.414951  0  0  -0.828508  0  2.403955  0  0  -0.457657  -0.766178  0  2.421609  0
O  O97  1  0.45578194  0.92884249  0.05208783  1  0  -0.844962  0  2.151403  0  0  -0.785696  0  2.415018  0  0  -0.828274  0  2.404006  0  0  -0.457871  -0.765964  0  2.421682  0
O  O98  1  0.95575432  0.12328160  0.05210165  1  0  -0.845207  0  2.151153  0  0  -0.785844  0  2.414981  0  0  -0.82844  0  2.403986  0  0  -0.457622  -0.766111  0  2.421638  0
O  O99  1  0.54421480  0.07115643  0.94791024  1  0  -0.844863  0  2.151419  0  0  -0.785596  0  2.415053  0  0  -0.828174  0  2.404044  0  0  -0.457816  -0.765862  0  2.421712  0
