# generated using pymatgen
data_MnH9C13NO5
_symmetry_space_group_name_H-M   'P 1'
_cell_length_a   7.24944579
_cell_length_b   9.30088569
_cell_length_c   11.43384038
_cell_angle_alpha   114.00289329
_cell_angle_beta   108.51362520
_cell_angle_gamma   89.97700355
_symmetry_Int_Tables_number   1
_chemical_formula_structural   MnH9C13NO5
_chemical_formula_sum   'Mn2 H18 C26 N2 O10'
_cell_volume   660.40725603
_cell_formula_units_Z   2
loop_
 _symmetry_equiv_pos_site_id
 _symmetry_equiv_pos_as_xyz
  1  'x, y, z'
loop_
 _atom_site_type_symbol
 _atom_site_label
 _atom_site_symmetry_multiplicity
 _atom_site_fract_x
 _atom_site_fract_y
 _atom_site_fract_z
 _atom_site_occupancy
 _atom_site_hle17_ddec_charge
 _atom_site_hle17_ddec_spin_density
 _atom_site_hle17_ddec_sum_bond_order
 _atom_site_hle17_magmom
 _atom_site_hse06_10hf_ddec_charge
 _atom_site_hse06_10hf_ddec_spin_density
 _atom_site_hse06_10hf_ddec_sum_bond_order
 _atom_site_hse06_10hf_magmom
 _atom_site_hse06_ddec_charge
 _atom_site_hse06_ddec_spin_density
 _atom_site_hse06_ddec_sum_bond_order
 _atom_site_hse06_magmom
 _atom_site_pbe_cm5_charge
 _atom_site_pbe_ddec_charge
 _atom_site_pbe_ddec_spin_density
 _atom_site_pbe_ddec_sum_bond_order
 _atom_site_pbe_magmom
Mn  Mn0  1  0.49999943  0.00000007  0.99999778  1  1.221564  4.744845  1.877242  4.655  1.085262  4.628751  2.396199  4.489  1.134331  4.703885  2.318828  4.576  0.616716  1.052728  4.526379  2.453824  4.377
Mn  Mn1  1  0.00000022  0.00000119  0.00000044  1  1.223071  -4.741962  1.882402  -4.653  1.088616  -4.622355  2.402576  -4.482  1.13651  -4.700337  2.324987  -4.572  0.617848  1.05401  -4.523812  2.460173  -4.374
H  H2  1  0.23484554  0.39438623  0.37877509  1  0.094903  0.000123  0.957506  0.0  0.104354  0.000149  1.01908  0.0  0.107912  0.000168  1.016736  0.0  0.100447  0.101755  0.000127  1.02081  0.0
H  H3  1  0.26550285  0.01548575  0.62131124  1  0.094749  -5.2e-05  0.957839  0.0  0.104381  -3.6e-05  1.019303  0.0  0.107831  -8.3e-05  1.017094  0.0  0.100491  0.101706  -0.000132  1.021177  0.0
H  H4  1  0.14384360  0.98457711  0.37871966  1  0.095653  0.000142  0.958092  0.0  0.105425  0.000157  1.019113  0.0  0.108892  0.000176  1.016923  0.0  0.100965  0.10271  0.000129  1.02109  0.0
H  H5  1  0.35590470  0.60595675  0.62138537  1  0.095565  -0.00013  0.958318  0.0  0.104886  -0.000168  1.019799  0.0  0.108413  -0.000181  1.017473  0.0  0.100978  0.102265  -0.000134  1.021647  0.0
H  H6  1  0.76515225  0.60560915  0.62122800  1  0.094884  0.000121  0.957544  0.0  0.104341  0.000149  1.01911  0.0  0.107899  0.000168  1.016769  0.0  0.10043  0.101744  0.000127  1.020837  0.0
H  H7  1  0.73449755  0.98451559  0.37868824  1  0.094763  -5.5e-05  0.957864  0.0  0.104387  -3.6e-05  1.01934  0.0  0.107839  -8.3e-05  1.017128  0.0  0.1005  0.101715  -0.000132  1.021215  0.0
H  H8  1  0.85615579  0.01542662  0.62128041  1  0.095666  0.000141  0.958092  0.0  0.105414  0.000157  1.019146  0.0  0.108882  0.000176  1.016954  0.0  0.100946  0.102697  0.000129  1.021123  0.0
H  H9  1  0.64409267  0.39403626  0.37861510  1  0.095587  -0.000131  0.958356  0.0  0.104906  -0.000168  1.01983  0.0  0.108432  -0.00018  1.017503  0.0  0.101002  0.102287  -0.000134  1.021677  0.0
H  H10  1  0.35536149  0.37184110  0.21011157  1  0.118199  -8e-06  0.930145  0.0  0.125057  -8e-06  0.994263  0.0  0.129077  -6e-06  0.988691  0.0  0.137983  0.121859  -7e-06  0.998719  0.0
H  H11  1  0.14517594  0.16180126  0.78998021  1  0.118376  -3e-06  0.930609  0.0  0.12501  -3e-06  0.994825  0.0  0.12905  -1e-06  0.989265  0.0  0.138211  0.121918  -7e-06  0.99915  0.0
H  H12  1  0.85483029  0.83820009  0.21002047  1  0.118365  5e-06  0.930617  0.0  0.125  -3e-06  0.99482  0.0  0.129038  -1e-06  0.989264  0.0  0.138202  0.121903  -7e-06  0.99915  0.0
H  H13  1  0.64463622  0.62816143  0.78988864  1  0.118188  -3e-06  0.930172  0.0  0.12505  -8e-06  0.994281  0.0  0.12907  -6e-06  0.98871  0.0  0.137981  0.121854  -7e-06  0.998735  0.0
H  H14  1  0.36077640  0.64994714  0.22081104  1  0.110781  -5e-06  0.947845  0.0  0.120681  -1e-05  1.002595  0.0  0.123272  -5e-06  1.003423  0.0  0.11236  0.118819  -2e-06  1.00235  0.0
H  H15  1  0.14004269  0.42914193  0.77921303  1  0.110991  9e-06  0.947569  0.0  0.120786  3e-06  1.002521  0.0  0.123331  3e-06  1.003348  0.0  0.112362  0.118876  0.0  1.002255  0.0
H  H16  1  0.85995874  0.57085704  0.22078500  1  0.111  -1e-06  0.947595  0.0  0.120811  3e-06  1.002527  0.0  0.123356  3e-06  1.003354  0.0  0.112383  0.118899  1e-06  1.002258  0.0
H  H17  1  0.63922110  0.35005421  0.77918698  1  0.110753  7e-06  0.947865  0.0  0.120646  -1e-05  1.002619  0.0  0.123234  -5e-06  1.003446  0.0  0.112347  0.118785  -1e-06  1.002378  0.0
H  H18  1  0.25016234  0.67811597  0.99998204  1  0.118191  -1e-05  0.970595  0.0  0.120736  -1.6e-05  1.041242  0.0  0.125247  -1.2e-05  1.036807  0.0  0.113366  0.117066  -1.1e-05  1.044805  0.0
H  H19  1  0.74983662  0.32188538  0.00001628  1  0.11822  -1e-05  0.970581  0.0  0.120764  -1.6e-05  1.041233  0.0  0.125275  -1.2e-05  1.036797  0.0  0.11338  0.117093  -1.1e-05  1.044796  0.0
C  C20  1  0.13333256  0.44222478  0.43287535  1  -0.080237  0.00052  3.760774  0.0  -0.100795  0.000742  4.005331  0.0  -0.102379  0.000558  4.026477  0.0  -0.088444  -0.099395  0.000992  3.990872  0.001
C  C21  1  0.36684205  0.00936765  0.56717037  1  -0.080645  -0.000227  3.759626  0.0  -0.100919  -0.000431  4.003817  0.0  -0.102695  -0.00025  4.025576  0.0  -0.08862  -0.099835  -0.000998  3.990448  -0.001
C  C22  1  0.29945045  0.99073656  0.43281933  1  -0.080789  0.000224  3.760226  0.0  -0.100854  0.00012  4.004152  0.0  -0.102744  0.00018  4.02589  0.0  -0.088453  -0.100033  0.000926  3.990816  0.001
C  C23  1  0.20041420  0.55791885  0.56717553  1  -0.081065  -0.00051  3.760062  0.0  -0.10144  -0.0007  4.004745  0.0  -0.103017  -0.000539  4.025865  0.0  -0.088478  -0.100214  -0.000942  3.990496  -0.001
C  C24  1  0.86666501  0.55776942  0.56712643  1  -0.080273  0.000549  3.760864  0.0  -0.100847  0.000745  4.005435  0.0  -0.102431  0.000555  4.026582  0.0  -0.088469  -0.099448  0.000992  3.990976  0.001
C  C25  1  0.63315668  0.99063250  0.43282925  1  -0.080621  -0.000201  3.759644  0.0  -0.100884  -0.000435  4.003822  0.0  -0.102663  -0.000254  4.025581  0.0  -0.088592  -0.099801  -0.000999  3.990458  -0.001
C  C26  1  0.70054850  0.00926478  0.56718074  1  -0.080802  0.000212  3.76024  0.0  -0.100852  0.000123  4.004164  0.0  -0.102743  0.000184  4.025903  0.0  -0.088438  -0.100031  0.000926  3.990828  0.001
C  C27  1  0.79958315  0.44207415  0.43282756  1  -0.081082  -0.000534  3.760126  0.0  -0.101453  -0.000703  4.004817  0.0  -0.103029  -0.000537  4.025938  0.0  -0.08848  -0.100228  -0.000942  3.990573  -0.001
C  C28  1  0.93208517  0.38344160  0.36399080  1  -0.061432  -1.7e-05  3.756332  0.0  -0.039994  -2e-06  3.986712  0.0  -0.045641  -3e-05  4.008341  0.0  -0.018937  -0.036906  3.6e-05  3.97267  0.0
C  C29  1  0.56818325  0.01950433  0.63604867  1  -0.061241  0.000131  3.755958  0.0  -0.040335  -0.000358  3.987272  0.0  -0.046173  1.3e-05  4.009405  0.0  -0.019239  -0.037748  -8.6e-05  3.974559  0.0
C  C30  1  0.43181425  0.98049702  0.36395022  1  -0.061243  0.000121  3.755968  0.0  -0.040345  -0.000356  3.987278  0.0  -0.046182  1.8e-05  4.009409  0.0  -0.019246  -0.037758  -8.6e-05  3.974571  0.0
C  C31  1  0.06791263  0.61655378  0.63601142  1  -0.061338  -4.4e-05  3.756315  0.0  -0.039887  -5e-06  3.986678  0.0  -0.045532  -2.8e-05  4.008306  0.0  -0.018873  -0.0368  3.7e-05  3.972632  0.0
C  C32  1  0.85867651  0.26241090  0.21737672  1  0.65233  4.1e-05  3.894649  0.0  0.605928  0.000116  4.183803  0.0  0.640705  4.6e-05  4.176632  0.0  0.218339  0.581979  6.9e-05  4.187001  0.0
C  C33  1  0.64136686  0.04489679  0.78263830  1  0.654149  -0.000837  3.893556  -0.001  0.607523  -0.001486  4.182764  -0.001  0.64193  -0.000968  4.176281  -0.001  0.218866  0.582594  -0.000187  4.187557  0.0
C  C34  1  0.35863209  0.95510456  0.21736089  1  0.65403  -0.000835  3.893622  -0.001  0.60744  -0.001487  4.18278  -0.001  0.641845  -0.00097  4.176302  -0.001  0.218833  0.582509  -0.000189  4.187578  0.0
C  C35  1  0.14132320  0.73758686  0.78262493  1  0.6523  5.9e-05  3.894734  0.0  0.605888  0.000116  4.183897  0.0  0.640664  4.7e-05  4.176727  0.0  0.218318  0.581936  7e-05  4.187093  0.0
C  C36  1  0.31063804  0.39648876  0.12111798  1  0.042414  -7.5e-05  3.575192  0.0  -0.004398  -3.3e-05  3.838152  0.0  0.00721  -6.6e-05  3.846214  0.0  0.057323  -0.012538  -0.000191  3.833956  0.0
C  C37  1  0.18946328  0.27543813  0.87896303  1  0.040834  -5.1e-05  3.57632  0.0  -0.005083  -2.9e-05  3.838369  0.0  0.006568  -3.4e-05  3.846331  0.0  0.056931  -0.013108  -0.000162  3.834048  0.0
C  C38  1  0.81054003  0.72456321  0.12103705  1  0.040809  -6.1e-05  3.576296  0.0  -0.005093  -3e-05  3.838345  0.0  0.006558  -3.3e-05  3.846306  0.0  0.056931  -0.013116  -0.000162  3.834018  0.0
C  C39  1  0.68936258  0.60351377  0.87888282  1  0.042352  -5.4e-05  3.575288  0.0  -0.004471  -3.4e-05  3.838275  0.0  0.007137  -6.4e-05  3.846335  0.0  0.057275  -0.012609  -0.000192  3.83408  0.0
C  C40  1  0.31146929  0.54590457  0.12262993  1  -0.103948  3.1e-05  3.751029  0.0  -0.11072  -1.9e-05  4.00563  0.0  -0.119004  -8e-06  4.025101  0.0  -0.076099  -0.105735  3.6e-05  3.993478  0.0
C  C41  1  0.18887932  0.42327044  0.87739860  1  -0.103727  1.2e-05  3.751569  0.0  -0.110831  1.6e-05  4.005925  0.0  -0.119111  3e-06  4.025468  0.0  -0.076318  -0.105869  3.1e-05  3.993835  0.0
C  C42  1  0.81112232  0.57672972  0.12260075  1  -0.10372  1.4e-05  3.75155  0.0  -0.110837  1.6e-05  4.005915  0.0  -0.119115  3e-06  4.025458  0.0  -0.076324  -0.105872  3.1e-05  3.993818  0.0
C  C43  1  0.68853114  0.45409678  0.87736781  1  -0.103909  -3.3e-05  3.751036  0.0  -0.110655  -1.8e-05  4.005626  0.0  -0.118934  -9e-06  4.025091  0.0  -0.076073  -0.105671  3.6e-05  3.993479  0.0
C  C44  1  0.25013480  0.56125401  0.99999799  1  -0.003863  -0.000104  3.674418  0.0  -0.038489  -6.5e-05  3.937991  0.0  -0.030036  -8.4e-05  3.952321  0.0  -0.070217  -0.044351  -0.000262  3.929108  0.0
C  C45  1  0.74986416  0.43874734  0.00000033  1  -0.003872  -5.4e-05  3.674431  0.0  -0.038527  -6.6e-05  3.938047  0.0  -0.030074  -8.4e-05  3.952375  0.0  -0.07023  -0.04439  -0.000263  3.929166  0.0
N  N46  1  0.24989320  0.26481557  0.00004594  1  0.290202  -4e-06  3.616693  0.0  0.33929  -5.8e-05  3.875419  0.0  0.338858  -5.8e-05  3.896039  0.0  -0.104779  0.337651  -0.000123  3.861363  0.0
N  N47  1  0.75010865  0.73518578  0.99995472  1  0.290319  -4.1e-05  3.616766  0.0  0.339382  -5.3e-05  3.875497  0.0  0.338949  -5.6e-05  3.896118  0.0  -0.104734  0.337743  -0.000122  3.861438  0.0
O  O48  1  0.67364485  0.21761370  0.15972522  1  -0.655195  0.027097  2.06865  0.013  -0.600363  0.030697  2.344625  0.013  -0.629491  0.028808  2.330839  0.011  -0.311745  -0.578375  0.033063  2.353246  0.016
O  O49  1  0.82628854  0.05692989  0.84007970  1  -0.655403  -0.02874  2.071263  -0.015  -0.599475  -0.033154  2.346918  -0.016  -0.628823  -0.030664  2.333363  -0.013  -0.311771  -0.577923  -0.033234  2.35607  -0.016
O  O50  1  0.48608082  0.94260455  0.15988351  1  -0.653145  0.028477  2.068799  0.015  -0.597486  0.032538  2.34399  0.015  -0.626713  0.0304  2.330618  0.013  -0.31034  -0.575423  0.032967  2.353215  0.016
O  O51  1  0.01381062  0.78306183  0.83994359  1  -0.652683  -0.027395  2.06967  -0.014  -0.598174  -0.031065  2.346146  -0.013  -0.627231  -0.02909  2.332454  -0.011  -0.310663  -0.575984  -0.033193  2.354411  -0.016
O  O52  1  0.32635365  0.78238527  0.84027396  1  -0.655141  0.027088  2.068608  0.013  -0.600324  0.030697  2.344616  0.013  -0.629451  0.02881  2.330831  0.011  -0.311713  -0.578336  0.033064  2.353231  0.016
O  O53  1  0.17371042  0.94307146  0.15991862  1  -0.655349  -0.028739  2.071253  -0.015  -0.599443  -0.033155  2.346914  -0.016  -0.628788  -0.030662  2.333355  -0.013  -0.311747  -0.577891  -0.033235  2.356065  -0.016
O  O54  1  0.51391814  0.05739680  0.84011568  1  -0.653237  0.028489  2.068829  0.015  -0.597546  0.032544  2.344009  0.015  -0.626774  0.030406  2.330634  0.013  -0.310346  -0.575488  0.032972  2.353238  0.016
O  O55  1  0.98619054  0.21693594  0.16005924  1  -0.652633  -0.027389  2.069603  -0.014  -0.598142  -0.031067  2.346093  -0.013  -0.627197  -0.029091  2.332395  -0.011  -0.31063  -0.57595  -0.033195  2.354361  -0.016
O  O56  1  0.24984606  0.12121811  0.00003101  1  -0.58628  -8e-05  2.000847  0.0  -0.521655  -9.5e-05  2.296636  0.0  -0.550675  -5.9e-05  2.283463  0.0  -0.221862  -0.49914  1.1e-05  2.305887  0.0
O  O57  1  0.75015600  0.87878442  0.99997096  1  -0.586335  -6.6e-05  2.000945  0.0  -0.52165  -9.9e-05  2.296671  0.0  -0.550666  -5.9e-05  2.283493  0.0  -0.221852  -0.499135  1.1e-05  2.305921  0.0
