# generated using pymatgen
data_CdH18C21(NO2)2
_symmetry_space_group_name_H-M   'P 1'
_cell_length_a   6.90657302
_cell_length_b   11.86563678
_cell_length_c   13.20935759
_cell_angle_alpha   91.77385757
_cell_angle_beta   90.00089583
_cell_angle_gamma   90.00045824
_symmetry_Int_Tables_number   1
_chemical_formula_structural   CdH18C21(NO2)2
_chemical_formula_sum   'Cd2 H36 C42 N4 O8'
_cell_volume   1081.99981390
_cell_formula_units_Z   2
loop_
 _symmetry_equiv_pos_site_id
 _symmetry_equiv_pos_as_xyz
  1  'x, y, z'
loop_
 _atom_site_type_symbol
 _atom_site_label
 _atom_site_symmetry_multiplicity
 _atom_site_fract_x
 _atom_site_fract_y
 _atom_site_fract_z
 _atom_site_occupancy
 _atom_site_hle17_bader_spin_density
 _atom_site_hle17_ddec_charge
 _atom_site_hle17_ddec_spin_density
 _atom_site_hle17_ddec_sum_bond_order
 _atom_site_hle17_magmom
 _atom_site_hse06_10hf_bader_spin_density
 _atom_site_hse06_10hf_ddec_charge
 _atom_site_hse06_10hf_ddec_spin_density
 _atom_site_hse06_10hf_ddec_sum_bond_order
 _atom_site_hse06_10hf_magmom
 _atom_site_hse06_bader_spin_density
 _atom_site_hse06_ddec_charge
 _atom_site_hse06_ddec_spin_density
 _atom_site_hse06_ddec_sum_bond_order
 _atom_site_hse06_magmom
 _atom_site_pbe_bader_spin_density
 _atom_site_pbe_cm5_charge
 _atom_site_pbe_ddec_charge
 _atom_site_pbe_ddec_spin_density
 _atom_site_pbe_ddec_sum_bond_order
 _atom_site_pbe_magmom
Cd  Cd0  1  0.74965619  0.18842395  0.34742455  1  0  1.062105  0  1.703533  0  0  0.867816  0  2.150722  0  0  0.928303  0  2.098108  0  0  0.754195  0.825427  0  2.186355  0
Cd  Cd1  1  0.24967046  0.81157968  0.65257545  1  0  1.062103  0  1.703607  0  0  0.86782  0  2.150791  0  0  0.92831  0  2.098173  0  0  0.754235  0.82543  0  2.186425  0
H  H2  1  0.73284160  0.37118363  0.53917672  1  0  0.089999  0  0.902696  0  0  0.104494  0  0.951259  0  0  0.106897  0  0.949472  0  0  0.128809  0.102636  0  0.952717  0
H  H3  1  0.23284898  0.62881404  0.46082604  1  0  0.089948  0  0.902718  0  0  0.104469  0  0.951254  0  0  0.106872  0  0.949469  0  0  0.128792  0.102612  0  0.952711  0
H  H4  1  0.76077151  0.37627766  0.72879889  1  0  0.107944  0  0.97264  0  0  0.117286  0  1.032095  0  0  0.119766  0  1.032169  0  0  0.110993  0.115455  0  1.032221  0
H  H5  1  0.26077312  0.62372014  0.27120334  1  0  0.107941  0  0.972666  0  0  0.117307  0  1.032092  0  0  0.119794  0  1.032158  0  0  0.110994  0.115474  0  1.032217  0
H  H6  1  0.79039260  0.19308073  0.81740670  1  0  0.09478  0  0.948431  0  0  0.107553  0  1.003189  0  0  0.109537  0  1.002609  0  0  0.110922  0.106067  0  1.003667  0
H  H7  1  0.29039703  0.80691722  0.18259729  1  0  0.094681  0  0.948567  0  0  0.10755  0  1.003217  0  0  0.109535  0  1.002635  0  0  0.110915  0.106064  0  1.003695  0
H  H8  1  0.79749028  0.01354468  0.71541517  1  0  0.13256  0  0.949675  0  0  0.140577  0  1.009086  0  0  0.144714  0  1.006512  0  0  0.114325  0.137562  0  1.011104  0
H  H9  1  0.29749452  0.98645329  0.28458661  1  0  0.132459  0  0.949802  0  0  0.14049  0  1.009208  0  0  0.144627  0  1.006633  0  0  0.114297  0.137476  0  1.011223  0
H  H10  1  0.73165927  0.87882807  0.62917887  1  0  0.11241  0  0.994315  0  0  0.11974  0  1.058299  0  0  0.12246  0  1.057826  0  0  0.110042  0.1177  0  1.058887  0
H  H11  1  0.23165677  0.12117126  0.37082088  1  0  0.112428  0  0.994373  0  0  0.119772  0  1.058334  0  0  0.122492  0  1.057861  0  0  0.110052  0.11773  0  1.058922  0
H  H12  1  0.73800684  0.70859570  0.51661193  1  0  0.112652  0  0.921255  0  0  0.125155  0  0.973498  0  0  0.12828  0  0.971138  0  0  0.116223  0.12282  0  0.975301  0
H  H13  1  0.23800434  0.29140700  0.48338265  1  0  0.112649  0  0.921263  0  0  0.125137  0  0.973519  0  0  0.128263  0  0.971158  0  0  0.116208  0.1228  0  0.975323  0
H  H14  1  0.77854526  0.73303892  0.32716599  1  0  0.100426  0  0.966727  0  0  0.111062  0  1.02613  0  0  0.113255  0  1.027135  0  0  0.10694  0.109469  0  1.025591  0
H  H15  1  0.27853652  0.26696566  0.67282821  1  0  0.100409  0  0.966797  0  0  0.111046  0  1.026191  0  0  0.113236  0  1.0272  0  0  0.106949  0.109454  0  1.025651  0
H  H16  1  0.79640839  0.92982254  0.26366068  1  0  0.086921  0  0.920889  0  0  0.097977  0  0.978993  0  0  0.099993  0  0.977498  0  0  0.123388  0.096441  0  0.980125  0
H  H17  1  0.29640457  0.07018724  0.73634211  1  0  0.086882  0  0.92084  0  0  0.097921  0  0.978979  0  0  0.099932  0  0.977487  0  0  0.123367  0.096385  0  0.980112  0
H  H18  1  0.24545450  0.59133595  0.00563118  1  0  0.086951  0  0.990606  0  0  0.097636  0  1.056428  0  0  0.099703  0  1.056751  0  0  0.097414  0.096124  0  1.05631  0
H  H19  1  0.74544540  0.40866934  0.99436806  1  0  0.087  0  0.990651  0  0  0.097716  0  1.056421  0  0  0.099787  0  1.05674  0  0  0.097478  0.096204  0  1.056301  0
H  H20  1  0.16496313  0.79144430  0.97621602  1  0  0.096386  0  0.934712  0  0  0.110083  0  0.986497  0  0  0.113102  0  0.985211  0  0  0.105475  0.107875  0  0.987496  0
H  H21  1  0.66494666  0.20856148  0.02378864  1  0  0.096449  0  0.934693  0  0  0.110176  0  0.986444  0  0  0.1132  0  0.985156  0  0  0.105504  0.107967  0  0.987443  0
H  H22  1  0.86585028  0.87625935  0.05232461  1  0  0.095681  0  0.931942  0  0  0.111139  0  0.980459  0  0  0.114169  0  0.979192  0  0  0.107045  0.108937  0  0.981512  0
H  H23  1  0.36582605  0.12374996  0.94768706  1  0  0.09564  0  0.931906  0  0  0.111046  0  0.980492  0  0  0.114074  0  0.979228  0  0  0.10707  0.108844  0  0.981544  0
H  H24  1  0.64712312  0.75788373  0.15510889  1  0  0.074621  0  0.967517  0  0  0.087782  0  1.026573  0  0  0.090228  0  1.025757  0  0  0.095239  0.086051  0  1.027178  0
H  H25  1  0.14709313  0.24211779  0.84490158  1  0  0.074682  0  0.967475  0  0  0.087809  0  1.026584  0  0  0.090257  0  1.025767  0  0  0.095299  0.086076  0  1.027186  0
H  H26  1  0.73047752  0.55738485  0.18472135  1  0  0.096788  0  0.942698  0  0  0.110344  0  0.998265  0  0  0.113921  0  0.996191  0  0  0.101487  0.10771  0  0.999905  0
H  H27  1  0.23045093  0.44261620  0.81528373  1  0  0.096718  0  0.94286  0  0  0.110365  0  0.998329  0  0  0.113893  0  0.99631  0  0  0.101479  0.107731  0  0.99997  0
H  H28  1  0.05932946  0.39552017  0.03781526  1  0  0.071597  0  0.943895  0  0  0.089651  0  1.006679  0  0  0.089883  0  1.007867  0  0  0.08974  0.089441  0  1.005905  0
H  H29  1  0.55932215  0.60448338  0.96218091  1  0  0.071631  0  0.943889  0  0  0.089677  0  1.006663  0  0  0.089911  0  1.007853  0  0  0.089739  0.089463  0  1.005895  0
H  H30  1  0.91735148  0.39874211  0.14958308  1  0  0.08008  0  0.936028  0  0  0.099135  0  0.993316  0  0  0.099966  0  0.993423  0  0  0.095013  0.098468  0  0.993321  0
H  H31  1  0.41735424  0.60126061  0.85041221  1  0  0.08015  0  0.935994  0  0  0.099131  0  0.993352  0  0  0.099964  0  0.993457  0  0  0.095004  0.098463  0  0.993355  0
H  H32  1  0.21343556  0.45755311  0.24997789  1  0  0.071839  0  0.949573  0  0  0.088584  0  1.013047  0  0  0.090723  0  1.010926  0  0  0.088711  0.087009  0  1.014665  0
H  H33  1  0.71342824  0.54243770  0.75002152  1  0  0.071769  0  0.949597  0  0  0.088509  0  1.013066  0  0  0.090648  0  1.010943  0  0  0.088688  0.086933  0  1.014686  0
H  H34  1  0.35355539  0.44997239  0.13682379  1  0  0.06723  0  0.937746  0  0  0.085328  0  1.001114  0  0  0.085872  0  1.002164  0  0  0.087999  0.084874  0  1.000473  0
H  H35  1  0.85354724  0.55001911  0.86317905  1  0  0.067236  0  0.937665  0  0  0.085252  0  1.001127  0  0  0.08579  0  1.002186  0  0  0.087973  0.0848  0  1.000486  0
H  H36  1  0.25672847  0.24414531  0.11589875  1  0  0.102188  0  0.939579  0  0  0.110946  0  0.999017  0  0  0.113275  0  0.999039  0  0  0.1039  0.109312  0  0.999067  0
H  H37  1  0.75675861  0.75584820  0.88409577  1  0  0.102154  0  0.939692  0  0  0.110985  0  0.999036  0  0  0.113305  0  0.999071  0  0  0.103924  0.109368  0  0.999067  0
C  C38  1  0.74640847  0.29379638  0.58122679  1  0  0.135574  0  3.719477  0  0  0.104618  0  3.971367  0  0  0.111327  0  3.989843  0  0  0.055703  0.100277  0  3.958753  0
C  C39  1  0.24642003  0.70620303  0.41877460  1  0  0.135706  0  3.719282  0  0  0.104741  0  3.971193  0  0  0.111451  0  3.989664  0  0  0.05576  0.100399  0  3.958579  0
C  C40  1  0.76216463  0.29629029  0.68638820  1  0  -0.112921  0  3.72206  0  0  -0.125527  0  3.972339  0  0  -0.132005  0  3.994536  0  0  -0.076578  -0.12136  0  3.95748  0
C  C41  1  0.26216864  0.70371003  0.31361183  1  0  -0.113023  0  3.722072  0  0  -0.125665  0  3.972391  0  0  -0.132148  0  3.994583  0  0  -0.076638  -0.121498  0  3.957533  0
C  C42  1  0.77925416  0.19423061  0.73516196  1  0  -0.00062  0  3.722551  0  0  -0.020168  0  3.972864  0  0  -0.017618  0  3.992868  0  0  -0.061937  -0.021612  0  3.959252  0
C  C43  1  0.27924801  0.80576895  0.26483970  1  0  -0.000493  0  3.722581  0  0  -0.020117  0  3.97292  0  0  -0.017564  0  3.992916  0  0  -0.061903  -0.02156  0  3.959308  0
C  C44  1  0.78011988  0.09361489  0.67809208  1  0  -0.131767  0  3.655344  0  0  -0.14829  0  3.900101  0  0  -0.154829  0  3.91994  0  0  -0.070954  -0.144075  0  3.886896  0
C  C45  1  0.28012701  0.90638384  0.32190957  1  0  -0.131569  0  3.655443  0  0  -0.148168  0  3.900213  0  0  -0.154676  0  3.920086  0  0  -0.07093  -0.143953  0  3.887009  0
C  C46  1  0.76216731  0.09782777  0.57244646  1  0  0.178525  0  3.751984  0  0  0.174169  0  3.992014  0  0  0.180677  0  4.013774  0  0  0.120406  0.169843  0  3.977317  0
C  C47  1  0.26216886  0.90217256  0.42755584  1  0  0.178358  0  3.752365  0  0  0.174097  0  3.992212  0  0  0.1805  0  4.014119  0  0  0.120406  0.16977  0  3.977515  0
C  C48  1  0.76178751  0.99372710  0.50702324  1  0  0.171472  0  3.765054  0  0  0.165916  0  4.008315  0  0  0.172785  0  4.029304  0  0  0.115472  0.161374  0  3.994107  0
C  C49  1  0.26178416  0.00627405  0.49297605  1  0  0.17142  0  3.765324  0  0  0.16599  0  4.008346  0  0  0.172889  0  4.029351  0  0  0.115422  0.161448  0  3.99414  0
C  C50  1  0.74693486  0.88694499  0.54804276  1  0  -0.133232  0  3.680627  0  0  -0.156054  0  3.939335  0  0  -0.163077  0  3.960087  0  0  -0.07931  -0.151597  0  3.925624  0
C  C51  1  0.24692744  0.11305271  0.45195481  1  0  -0.13315  0  3.680735  0  0  -0.155996  0  3.939336  0  0  -0.163019  0  3.960084  0  0  -0.07923  -0.151537  0  3.925624  0
C  C52  1  0.75126243  0.79151443  0.48405458  1  0  0.01112  0  3.693702  0  0  -0.009663  0  3.948367  0  0  -0.005855  0  3.965789  0  0  -0.06097  -0.011874  0  3.936505  0
C  C53  1  0.25126118  0.20848918  0.51594089  1  0  0.011012  0  3.693672  0  0  -0.009782  0  3.948347  0  0  -0.005974  0  3.965769  0  0  -0.061009  -0.011993  0  3.936483  0
C  C54  1  0.77117098  0.80498374  0.38014756  1  0  -0.119767  0  3.733854  0  0  -0.135488  0  3.989798  0  0  -0.14278  0  4.013099  0  0  -0.081864  -0.130843  0  3.97425  0
C  C55  1  0.27116687  0.19501575  0.61984797  1  0  -0.119711  0  3.734028  0  0  -0.1354  0  3.989972  0  0  -0.142687  0  4.013271  0  0  -0.081849  -0.130754  0  3.974424  0
C  C56  1  0.78180891  0.91410814  0.34425302  1  0  0.136473  0  3.711403  0  0  0.104214  0  3.968735  0  0  0.111532  0  3.987721  0  0  0.051343  0.099542  0  3.955748  0
C  C57  1  0.28180433  0.08589479  0.65574647  1  0  0.136493  0  3.711461  0  0  0.104199  0  3.968861  0  0  0.111522  0  3.98784  0  0  0.051288  0.099525  0  3.955876  0
C  C58  1  0.11581356  0.62849366  0.03977545  1  0  -0.13095  0  3.728859  0  0  -0.148356  0  3.971858  0  0  -0.151908  0  3.994437  0  0  -0.094189  -0.145858  0  3.956512  0
C  C59  1  0.61580580  0.37151272  0.96022655  1  0  -0.131052  0  3.728972  0  0  -0.148472  0  3.971922  0  0  -0.152021  0  3.994487  0  0  -0.094274  -0.145975  0  3.956584  0
C  C60  1  0.07086997  0.74117173  0.02354374  1  0  -0.066382  0  3.783623  0  0  -0.078652  0  4.033834  0  0  -0.080104  0  4.055047  0  0  -0.089708  -0.077549  0  4.019336  0
C  C61  1  0.57085676  0.25883780  0.97645721  1  0  -0.066509  0  3.783682  0  0  -0.078812  0  4.033867  0  0  -0.080273  0  4.055097  0  0  -0.089742  -0.077708  0  4.019366  0
C  C62  1  0.90249756  0.78858431  0.06569355  1  0  -0.08494  0  3.787603  0  0  -0.101092  0  4.039571  0  0  -0.103366  0  4.060774  0  0  -0.09428  -0.099502  0  4.025092  0
C  C63  1  0.40248285  0.21141839  0.93431146  1  0  -0.084751  0  3.787347  0  0  -0.100833  0  4.039291  0  0  -0.103109  0  4.060503  0  0  -0.094297  -0.099241  0  4.024808  0
C  C64  1  0.78047217  0.72217111  0.12344974  1  0  -0.081784  0  3.823035  0  0  -0.093242  0  4.075121  0  0  -0.094507  0  4.096882  0  0  -0.098486  -0.092224  0  4.060152  0
C  C65  1  0.28045088  0.27783270  0.87655581  1  0  -0.081806  0  3.823058  0  0  -0.093247  0  4.07518  0  0  -0.094509  0  4.096922  0  0  -0.098494  -0.092225  0  4.060207  0
C  C66  1  0.82664358  0.60941165  0.13988022  1  0  -0.13949  0  3.751464  0  0  -0.158071  0  3.995498  0  0  -0.16159  0  4.016813  0  0  -0.09638  -0.155542  0  3.980999  0
C  C67  1  0.32661470  0.39059409  0.86012803  1  0  -0.139679  0  3.751688  0  0  -0.158345  0  3.995752  0  0  -0.161822  0  4.017076  0  0  -0.09651  -0.155815  0  3.981252  0
C  C68  1  0.99471294  0.56086283  0.09792201  1  0  0.099429  0  3.749456  0  0  0.120625  0  3.988023  0  0  0.120891  0  4.013155  0  0  -0.009892  0.120422  0  3.9709  0
C  C69  1  0.49468890  0.43914198  0.90208002  1  0  0.099651  0  3.749224  0  0  0.120868  0  3.987756  0  0  0.121144  0  4.012872  0  0  -0.009771  0.120663  0  3.970633  0
C  C70  1  0.04140738  0.43847784  0.11246222  1  0  -0.16211  0  3.711306  0  0  -0.207142  0  3.96636  0  0  -0.208172  0  3.979553  0  0  -0.16328  -0.206218  0  3.957099  0
C  C71  1  0.54140012  0.56152310  0.88753526  1  0  -0.1623  0  3.711254  0  0  -0.20728  0  3.966269  0  0  -0.208316  0  3.979465  0  0  -0.163307  -0.206352  0  3.957006  0
C  C72  1  0.22469587  0.41654985  0.17455038  1  0  -0.090423  0  3.681881  0  0  -0.141449  0  3.946893  0  0  -0.141092  0  3.959188  0  0  -0.164924  -0.141494  0  3.938278  0
C  C73  1  0.72469285  0.58344269  0.82544765  1  0  -0.09028  0  3.681609  0  0  -0.141234  0  3.946581  0  0  -0.140875  0  3.958881  0  0  -0.164871  -0.141279  0  3.937964  0
C  C74  1  0.24966561  0.29012150  0.18910289  1  0  -0.244835  0  3.642026  0  0  -0.240954  0  3.869873  0  0  -0.251975  0  3.880493  0  0  -0.091033  -0.233437  0  3.862399  0
C  C75  1  0.74968132  0.70987282  0.81089084  1  0  -0.244882  0  3.642138  0  0  -0.241054  0  3.870014  0  0  -0.252068  0  3.880632  0  0  -0.091107  -0.23355  0  3.862539  0
C  C76  1  0.43098920  0.25865798  0.24819556  1  0  0.665206  0  3.864225  0  0  0.616925  0  4.162305  0  0  0.650701  0  4.158044  0  0  0.190857  0.593977  0  4.164266  0
C  C77  1  0.93100502  0.74132961  0.75179722  1  0  0.665102  0  3.864288  0  0  0.616806  0  4.162392  0  0  0.650581  0  4.158136  0  0  0.19084  0.593859  0  4.164349  0
C  C78  1  0.07448953  0.24386521  0.24588099  1  0  0.656499  0  3.876986  0  0  0.611245  0  4.172907  0  0  0.644664  0  4.168314  0  0  0.187584  0.588533  0  4.175193  0
C  C79  1  0.57450708  0.75613082  0.75411513  1  0  0.656651  0  3.877199  0  0  0.611348  0  4.173167  0  0  0.644769  0  4.168572  0  0  0.187681  0.588633  0  4.175459  0
N  N80  1  0.74622308  0.19717363  0.52585460  1  0  -0.369115  0  3.271684  0  0  -0.296768  0  3.534576  0  0  -0.317202  0  3.554871  0  0  -0.323607  -0.282865  0  3.520653  0
N  N81  1  0.24622173  0.80282578  0.47414755  1  0  -0.369059  0  3.271655  0  0  -0.296781  0  3.534517  0  0  -0.317181  0  3.554844  0  0  -0.323596  -0.282875  0  3.520589  0
N  N82  1  0.77593220  0.00576746  0.40602158  1  0  -0.364133  0  3.266084  0  0  -0.292743  0  3.532321  0  0  -0.313117  0  3.550954  0  0  -0.329846  -0.278894  0  3.519403  0
N  N83  1  0.27593281  0.99423292  0.59397780  1  0  -0.364078  0  3.266082  0  0  -0.292719  0  3.532257  0  0  -0.313097  0  3.550894  0  0  -0.329814  -0.278869  0  3.519341  0
O  O84  1  0.52201974  0.33263123  0.30087488  1  0  -0.62928  0  1.877545  0  0  -0.56951  0  2.098847  0  0  -0.596643  0  2.088854  0  0  -0.341869  -0.550503  0  2.104967  0
O  O85  1  0.02203337  0.66735192  0.69912355  1  0  -0.629161  0  1.87766  0  0  -0.569386  0  2.098958  0  0  -0.596518  0  2.08897  0  0  -0.341812  -0.550375  0  2.105066  0
O  O86  1  0.48177045  0.15447700  0.24359965  1  0  -0.654269  0  1.919346  0  0  -0.593446  0  2.156981  0  0  -0.622526  0  2.146834  0  0  -0.347235  -0.572986  0  2.163149  0
O  O87  1  0.98177775  0.84551248  0.75638678  1  0  -0.654288  0  1.919326  0  0  -0.593444  0  2.156938  0  0  -0.622525  0  2.146795  0  0  -0.347278  -0.572983  0  2.163101  0
O  O88  1  0.99244730  0.15393744  0.21406670  1  0  -0.637222  0  1.870178  0  0  -0.584248  0  2.091954  0  0  -0.609761  0  2.081301  0  0  -0.349093  -0.566366  0  2.098601  0
O  O89  1  0.49247475  0.84606059  0.78593137  1  0  -0.637307  0  1.870237  0  0  -0.584333  0  2.092062  0  0  -0.609845  0  2.081402  0  0  -0.349182  -0.566446  0  2.098711  0
O  O90  1  0.01767712  0.30039601  0.32481695  1  0  -0.644212  0  1.926733  0  0  -0.579162  0  2.161782  0  0  -0.608522  0  2.152078  0  0  -0.34379  -0.558574  0  2.167633  0
O  O91  1  0.51767992  0.69960145  0.67518253  1  0  -0.644229  0  1.92688  0  0  -0.579135  0  2.161904  0  0  -0.608495  0  2.152203  0  0  -0.343754  -0.558557  0  2.167775  0
