# generated using pymatgen
data_ZnP2H14C6(NO3)2
_symmetry_space_group_name_H-M   'P 1'
_cell_length_a   8.23742251
_cell_length_b   8.88053999
_cell_length_c   8.90527334
_cell_angle_alpha   62.97381046
_cell_angle_beta   87.58746257
_cell_angle_gamma   80.01001158
_symmetry_Int_Tables_number   1
_chemical_formula_structural   ZnP2H14C6(NO3)2
_chemical_formula_sum   'Zn2 P4 H28 C12 N4 O12'
_cell_volume   571.00703118
_cell_formula_units_Z   2
loop_
 _symmetry_equiv_pos_site_id
 _symmetry_equiv_pos_as_xyz
  1  'x, y, z'
loop_
 _atom_site_type_symbol
 _atom_site_label
 _atom_site_symmetry_multiplicity
 _atom_site_fract_x
 _atom_site_fract_y
 _atom_site_fract_z
 _atom_site_occupancy
 _atom_site_hle17_bader_spin_density
 _atom_site_hle17_ddec_charge
 _atom_site_hle17_ddec_spin_density
 _atom_site_hle17_ddec_sum_bond_order
 _atom_site_hle17_magmom
 _atom_site_hse06_10hf_bader_spin_density
 _atom_site_hse06_10hf_ddec_charge
 _atom_site_hse06_10hf_ddec_spin_density
 _atom_site_hse06_10hf_ddec_sum_bond_order
 _atom_site_hse06_10hf_magmom
 _atom_site_hse06_bader_spin_density
 _atom_site_hse06_ddec_charge
 _atom_site_hse06_ddec_spin_density
 _atom_site_hse06_ddec_sum_bond_order
 _atom_site_hse06_magmom
 _atom_site_pbe_bader_spin_density
 _atom_site_pbe_cm5_charge
 _atom_site_pbe_ddec_charge
 _atom_site_pbe_ddec_spin_density
 _atom_site_pbe_ddec_sum_bond_order
 _atom_site_pbe_magmom
Zn  Zn0  1  0.25578978  0.07862034  0.41417983  1  0  1.238751  0  1.806508  0  0  1.073304  0  2.300222  0  0  1.116023  0  2.235016  0  0  0.703671  1.042574  0  2.345797  0
Zn  Zn1  1  0.74421089  0.92138644  0.58581537  1  0  1.238758  0  1.806499  0  0  1.073269  0  2.300201  0  0  1.115992  0  2.235005  0  0  0.703665  1.042538  0  2.345774  0
P  P2  1  0.44751307  0.02543816  0.75291126  1  0  1.476179  0  4.899294  0  0  1.317649  0  5.403088  0  0  1.366909  0  5.365702  0  0  0.327569  1.282494  0  5.429025  0
P  P3  1  0.55249198  0.97455707  0.24708883  1  0  1.476196  0  4.899265  0  0  1.317636  0  5.403066  0  0  1.366904  0  5.365678  0  0  0.327541  1.282483  0  5.429003  0
P  P4  1  0.92159087  0.26188737  0.45145078  1  0  1.456542  0  4.962331  0  0  1.300728  0  5.473176  0  0  1.350149  0  5.435059  0  0  0.320195  1.266182  0  5.499094  0
P  P5  1  0.07841117  0.73811164  0.54855229  1  0  1.456515  0  4.962608  0  0  1.300674  0  5.47347  0  0  1.350095  0  5.435347  0  0  0.320098  1.266131  0  5.499388  0
H  H6  1  0.28633351  0.80389951  0.82547901  1  0  0.136006  0  0.941281  0  0  0.147945  0  0.999198  0  0  0.150405  0  0.998344  0  0  0.119931  0.14634  0  0.999377  0
H  H7  1  0.71366538  0.19610341  0.17451799  1  0  0.135956  0  0.941338  0  0  0.147933  0  0.999212  0  0  0.150394  0  0.998357  0  0  0.119932  0.146328  0  0.999392  0
H  H8  1  0.36251618  0.80798446  0.01147689  1  0  0.139391  0  0.948209  0  0  0.148498  0  1.011211  0  0  0.151596  0  1.009782  0  0  0.118013  0.145727  0  1.013502  0
H  H9  1  0.63748598  0.19201337  0.98851995  1  0  0.139411  0  0.948169  0  0  0.148517  0  1.011171  0  0  0.151613  0  1.009747  0  0  0.11801  0.145747  0  1.013461  0
H  H10  1  0.89069002  0.56975343  0.35493350  1  0  0.142366  0  0.940396  0  0  0.15199  0  1.002643  0  0  0.1551  0  1.001387  0  0  0.119851  0.1498  0  1.003434  0
H  H11  1  0.10930653  0.43024939  0.64506927  1  0  0.142364  0  0.940384  0  0  0.151991  0  1.002625  0  0  0.1551  0  1.00137  0  0  0.119854  0.149804  0  1.003414  0
H  H12  1  0.79668709  0.52194961  0.20848024  1  0  0.129702  0  0.908365  0  0  0.146563  0  0.956772  0  0  0.148805  0  0.956224  0  0  0.123435  0.14497  0  0.957169  0
H  H13  1  0.20331109  0.47805067  0.79152245  1  0  0.129686  0  0.908323  0  0  0.146554  0  0.956728  0  0  0.148797  0  0.956179  0  0  0.123449  0.144959  0  0.957137  0
H  H14  1  0.23472672  0.14838258  0.95754687  1  0  0.116571  0  0.938248  0  0  0.126634  0  0.9982  0  0  0.128678  0  0.997442  0  0  0.122475  0.124567  0  0.999642  0
H  H15  1  0.76527430  0.85161516  0.04245569  1  0  0.116629  0  0.938195  0  0  0.126647  0  0.998193  0  0  0.12869  0  0.997437  0  0  0.122479  0.12458  0  0.999635  0
H  H16  1  0.20074733  0.95834660  0.13336366  1  0  0.097935  0  0.934738  0  0  0.106455  0  1.004577  0  0  0.108437  0  1.00292  0  0  0.117996  0.104885  0  1.005974  0
H  H17  1  0.79925610  0.04165118  0.86663651  1  0  0.097958  0  0.934741  0  0  0.106455  0  1.004589  0  0  0.108436  0  1.002934  0  0  0.117992  0.104886  0  1.005987  0
H  H18  1  0.60601566  0.66831502  0.32213163  1  0  0.283239  0  0.93789  0  0  0.260099  0  1.006302  0  0  0.269161  0  1.000692  0  0  0.300785  0.254008  0  1.00981  0
H  H19  1  0.39398291  0.33168275  0.67786879  1  0  0.283141  0  0.93798  0  0  0.259993  0  1.006414  0  0  0.269057  0  1.000805  0  0  0.300741  0.253902  0  1.009919  0
H  H20  1  0.07332850  0.74811488  0.09292714  1  0  0.095686  0  0.911331  0  0  0.110653  0  0.969734  0  0  0.111865  0  0.969683  0  0  0.11831  0.109436  0  0.970153  0
H  H21  1  0.92667190  0.25188669  0.90707488  1  0  0.095667  0  0.911378  0  0  0.110677  0  0.969723  0  0  0.11189  0  0.969673  0  0  0.118327  0.109461  0  0.970139  0
H  H22  1  0.00735161  0.79667921  0.88337701  1  0  0.113301  0  0.927132  0  0  0.126626  0  0.985311  0  0  0.128419  0  0.984297  0  0  0.12159  0.124546  0  0.986865  0
H  H23  1  0.99264840  0.20331725  0.11662504  1  0  0.113291  0  0.927159  0  0  0.12661  0  0.985338  0  0  0.128403  0  0.984328  0  0  0.121596  0.124515  0  0.98691  0
H  H24  1  0.55022134  0.31102554  0.42974512  1  0  0.112021  0  0.96594  0  0  0.121339  0  1.029012  0  0  0.123531  0  1.027816  0  0  0.117909  0.119664  0  1.029533  0
H  H25  1  0.44977556  0.68897480  0.57025312  1  0  0.112056  0  0.965909  0  0  0.121354  0  1.029014  0  0  0.123545  0  1.027816  0  0  0.117928  0.119681  0  1.029538  0
H  H26  1  0.51244390  0.49329883  0.22838560  1  0  0.094675  0  0.88893  0  0  0.115453  0  0.937224  0  0  0.115997  0  0.937703  0  0  0.123656  0.114964  0  0.936883  0
H  H27  1  0.48755338  0.50670662  0.77161261  1  0  0.094677  0  0.888946  0  0  0.11547  0  0.93723  0  0  0.11601  0  0.937708  0  0  0.123641  0.114984  0  0.936892  0
H  H28  1  0.74226885  0.55468805  0.60300270  1  0  0.1125  0  0.910211  0  0  0.126998  0  0.966865  0  0  0.128322  0  0.966485  0  0  0.124203  0.125635  0  0.967629  0
H  H29  1  0.25772727  0.44530973  0.39699671  1  0  0.11251  0  0.910191  0  0  0.126969  0  0.966878  0  0  0.128291  0  0.966505  0  0  0.124194  0.12561  0  0.967643  0
H  H30  1  0.68962610  0.34900215  0.65750936  1  0  0.088193  0  0.945014  0  0  0.096499  0  1.016246  0  0  0.098644  0  1.014355  0  0  0.113377  0.094885  0  1.017634  0
H  H31  1  0.31036963  0.65099814  0.34249233  1  0  0.088177  0  0.945082  0  0  0.096443  0  1.016356  0  0  0.09859  0  1.014464  0  0  0.113344  0.094828  0  1.017745  0
H  H32  1  0.08584728  0.07257421  0.77713889  1  0  0.295461  0  0.908591  0  0  0.276519  0  0.96942  0  0  0.284955  0  0.963916  0  0  0.305133  0.270712  0  0.973319  0
H  H33  1  0.91415373  0.92742354  0.22286254  1  0  0.295509  0  0.908643  0  0  0.276579  0  0.96944  0  0  0.285016  0  0.963935  0  0  0.305148  0.270771  0  0.97334  0
C  C34  1  0.30451610  0.88504933  0.88443202  1  0  -0.339199  0  3.523096  0  0  -0.378578  0  3.773795  0  0  -0.383391  0  3.779431  0  0  -0.075297  -0.374963  0  3.770215  0
C  C35  1  0.69548344  0.11494975  0.11556665  1  0  -0.339103  0  3.523075  0  0  -0.378517  0  3.773792  0  0  -0.383325  0  3.779417  0  0  -0.07528  -0.374903  0  3.770213  0
C  C36  1  0.81279839  0.48624429  0.34306311  1  0  -0.325969  0  3.501515  0  0  -0.361693  0  3.748454  0  0  -0.367091  0  3.755326  0  0  -0.072972  -0.357832  0  3.743678  0
C  C37  1  0.18719263  0.51376239  0.65693711  1  0  -0.32589  0  3.501444  0  0  -0.361632  0  3.748419  0  0  -0.367027  0  3.755287  0  0  -0.07294  -0.357783  0  3.743655  0
C  C38  1  0.14767207  0.05893456  0.01077346  1  0  -0.035108  0  3.527119  0  0  -0.090156  0  3.774625  0  0  -0.087847  0  3.7852  0  0  -0.062326  -0.091504  0  3.767713  0
C  C39  1  0.85232894  0.94106319  0.98922797  1  0  -0.03524  0  3.527378  0  0  -0.090216  0  3.774818  0  0  -0.087911  0  3.785393  0  0  -0.062363  -0.091566  0  3.767914  0
C  C40  1  0.01963293  0.85063884  0.97088412  1  0  -0.026782  0  3.51826  0  0  -0.084501  0  3.769653  0  0  -0.081738  0  3.779702  0  0  -0.056571  -0.085638  0  3.763306  0
C  C41  1  0.98036906  0.14936022  0.02911556  1  0  -0.026746  0  3.518258  0  0  -0.084481  0  3.769674  0  0  -0.081722  0  3.779727  0  0  -0.056601  -0.085608  0  3.763331  0
C  C42  1  0.51622655  0.45078634  0.36503173  1  0  -0.030243  0  3.528003  0  0  -0.088861  0  3.779286  0  0  -0.08609  0  3.789336  0  0  -0.061008  -0.09052  0  3.772257  0
C  C43  1  0.48377446  0.54921142  0.63496969  1  0  -0.030302  0  3.527959  0  0  -0.088959  0  3.7793  0  0  -0.086175  0  3.789335  0  0  -0.061036  -0.090637  0  3.772296  0
C  C44  1  0.65055155  0.48815046  0.58432020  1  0  -0.025327  0  3.528522  0  0  -0.082275  0  3.778427  0  0  -0.079395  0  3.788374  0  0  -0.058204  -0.084092  0  3.772066  0
C  C45  1  0.34944700  0.51184732  0.41567909  1  0  -0.025367  0  3.528567  0  0  -0.082279  0  3.778457  0  0  -0.079399  0  3.788407  0  0  -0.058213  -0.084109  0  3.77209  0
N  N46  1  0.64637500  0.52910966  0.40202559  1  0  -0.070658  0  3.355339  0  0  0.011438  0  3.567705  0  0  -0.001167  0  3.587727  0  0  -0.342879  0.019506  0  3.55414  0
N  N47  1  0.35361831  0.47089062  0.59797622  1  0  -0.070597  0  3.355235  0  0  0.011537  0  3.567551  0  0  -0.001072  0  3.587571  0  0  -0.342844  0.019614  0  3.553989  0
N  N48  1  0.13796559  0.97457667  0.89968797  1  0  -0.068611  0  3.353434  0  0  0.013341  0  3.562607  0  0  0.00089  0  3.581979  0  0  -0.342265  0.021409  0  3.549247  0
N  N49  1  0.86203564  0.02541981  0.10031401  1  0  -0.068807  0  3.353728  0  0  0.013145  0  3.562853  0  0  0.000697  0  3.582221  0  0  -0.342295  0.021211  0  3.549498  0
O  O50  1  0.37389028  0.12090783  0.57155460  1  0  -0.902484  0  2.084997  0  0  -0.808891  0  2.395413  0  0  -0.835786  0  2.368265  0  0  -0.390728  -0.788576  0  2.413381  0
O  O51  1  0.62611387  0.87909257  0.42844101  1  0  -0.902497  0  2.085085  0  0  -0.808882  0  2.39551  0  0  -0.8358  0  2.368384  0  0  -0.390681  -0.788539  0  2.413415  0
O  O52  1  0.60536692  0.89409177  0.77617769  1  0  -0.863432  0  1.966923  0  0  -0.76843  0  2.254266  0  0  -0.795969  0  2.229139  0  0  -0.387908  -0.748632  0  2.271552  0
O  O53  1  0.39463364  0.10590857  0.22382149  1  0  -0.86346  0  1.966731  0  0  -0.768453  0  2.254075  0  0  -0.795999  0  2.228947  0  0  -0.387927  -0.748655  0  2.271356  0
O  O54  1  0.06272606  0.26411388  0.33061815  1  0  -0.871595  0  1.963688  0  0  -0.781727  0  2.24986  0  0  -0.808588  0  2.223934  0  0  -0.392459  -0.762541  0  2.26792  0
O  O55  1  0.93728087  0.73589167  0.66937504  1  0  -0.871609  0  1.963909  0  0  -0.781669  0  2.250007  0  0  -0.808534  0  2.224085  0  0  -0.392419  -0.762487  0  2.268068  0
O  O56  1  0.79708796  0.15146727  0.45054309  1  0  -0.898665  0  2.069234  0  0  -0.80644  0  2.378939  0  0  -0.833499  0  2.351174  0  0  -0.388386  -0.786979  0  2.397106  0
O  O57  1  0.20291505  0.84853306  0.54945709  1  0  -0.898716  0  2.069186  0  0  -0.806506  0  2.378886  0  0  -0.833565  0  2.351121  0  0  -0.388407  -0.787042  0  2.397047  0
O  O58  1  0.46584160  0.15803309  0.81337667  1  0  -0.817203  0  1.92893  0  0  -0.743023  0  2.175272  0  0  -0.768349  0  2.160293  0  0  -0.379472  -0.724687  0  2.186257  0
O  O59  1  0.53416041  0.84196596  0.18662413  1  0  -0.817223  0  1.92903  0  0  -0.743016  0  2.175346  0  0  -0.768334  0  2.160361  0  0  -0.379469  -0.724683  0  2.186333  0
O  O60  1  0.97848569  0.22616930  0.62719557  1  0  -0.853093  0  1.946044  0  0  -0.784008  0  2.201113  0  0  -0.808825  0  2.184431  0  0  -0.387555  -0.766187  0  2.212709  0
O  O61  1  0.02152295  0.77383362  0.37280320  1  0  -0.853097  0  1.946079  0  0  -0.783988  0  2.201114  0  0  -0.808806  0  2.184429  0  0  -0.387532  -0.766173  0  2.212716  0
