# generated using pymatgen
data_CuH2C6(NO2)2
_symmetry_space_group_name_H-M   'P 1'
_cell_length_a   6.86148778
_cell_length_b   6.86147988
_cell_length_c   7.42036109
_cell_angle_alpha   86.69538152
_cell_angle_beta   86.69521447
_cell_angle_gamma   66.38481162
_symmetry_Int_Tables_number   1
_chemical_formula_structural   CuH2C6(NO2)2
_chemical_formula_sum   'Cu2 H4 C12 N4 O8'
_cell_volume   319.33415133
_cell_formula_units_Z   2
loop_
 _symmetry_equiv_pos_site_id
 _symmetry_equiv_pos_as_xyz
  1  'x, y, z'
loop_
 _atom_site_type_symbol
 _atom_site_label
 _atom_site_symmetry_multiplicity
 _atom_site_fract_x
 _atom_site_fract_y
 _atom_site_fract_z
 _atom_site_occupancy
 _atom_site_hle17_ddec_charge
 _atom_site_hle17_ddec_spin_density
 _atom_site_hle17_ddec_sum_bond_order
 _atom_site_hle17_magmom
 _atom_site_hse06_10hf_ddec_charge
 _atom_site_hse06_10hf_ddec_spin_density
 _atom_site_hse06_10hf_ddec_sum_bond_order
 _atom_site_hse06_10hf_magmom
 _atom_site_hse06_ddec_charge
 _atom_site_hse06_ddec_spin_density
 _atom_site_hse06_ddec_sum_bond_order
 _atom_site_hse06_magmom
 _atom_site_pbe_cm5_charge
 _atom_site_pbe_ddec_charge
 _atom_site_pbe_ddec_spin_density
 _atom_site_pbe_ddec_sum_bond_order
 _atom_site_pbe_magmom
Cu  Cu0  1  0.00000080  0.50000144  0.00000125  1  0.853822  0.684445  1.905233  0.512  0.841684  0.774346  2.293465  0.625  0.923539  0.839042  2.228212  0.713  0.776269  0.794743  0.724109  2.336269  0.563
Cu  Cu1  1  0.49999880  0.00000030  0.49999933  1  0.853779  0.684441  1.905232  0.512  0.84166  0.774341  2.293456  0.625  0.923531  0.839052  2.22822  0.713  0.776276  0.79473  0.724108  2.336255  0.563
H  H2  1  0.46048675  0.34662534  0.84585346  1  0.13015  0.001136  0.940861  0.002  0.134502  0.001035  1.003065  0.002  0.138261  0.000762  0.999895  0.001  0.133466  0.131326  0.001254  1.005984  0.002
H  H3  1  0.65337334  0.53951438  0.65415034  1  0.130173  0.00114  0.94086  0.002  0.134525  0.001035  1.003054  0.002  0.138282  0.000763  0.999886  0.001  0.133484  0.131348  0.001254  1.005973  0.002
H  H4  1  0.53951728  0.65337337  0.15414635  1  0.130158  0.001146  0.940823  0.002  0.134503  0.001035  1.003038  0.002  0.138263  0.000762  0.999865  0.001  0.133466  0.131325  0.001254  1.005957  0.002
H  H5  1  0.34662795  0.46048751  0.34584944  1  0.130188  0.001148  0.940864  0.002  0.13454  0.001035  1.003056  0.002  0.1383  0.000762  0.999884  0.001  0.133492  0.131364  0.001253  1.005975  0.002
C  C6  1  0.38077213  0.51319656  0.80194709  1  0.124142  -0.001293  3.566512  0.001  0.094172  0.000842  3.822815  0.002  0.10157  -0.000569  3.832785  0.001  0.079072  0.088774  0.002112  3.817884  0.003
C  C7  1  0.48680257  0.61923098  0.69805558  1  0.123984  -0.001377  3.566636  0.001  0.094058  0.000843  3.822978  0.002  0.101456  -0.000569  3.832953  0.001  0.078984  0.088662  0.002112  3.818047  0.003
C  C8  1  0.61923189  0.48680215  0.19805407  1  0.124034  -0.001362  3.56665  0.001  0.094094  0.000842  3.822995  0.002  0.101492  -0.000569  3.83297  0.001  0.079015  0.0887  0.002112  3.81806  0.003
C  C9  1  0.51319681  0.38077569  0.30194271  1  0.124013  -0.001381  3.566582  0.001  0.094063  0.000842  3.822919  0.002  0.101464  -0.00057  3.832893  0.001  0.07901  0.088667  0.002112  3.817988  0.003
C  C10  1  0.06583903  0.82126739  0.79279182  1  0.074689  -0.00182  3.610652  -0.001  0.075595  0.000566  3.846831  0.001  0.077563  -0.000385  3.86173  0.0  0.133425  0.07307  0.001727  3.83922  0.001
C  C11  1  0.17873116  0.93415899  0.70721200  1  0.074535  -0.001903  3.610561  -0.001  0.075518  0.000567  3.846749  0.001  0.077485  -0.000384  3.861651  0.0  0.133373  0.072995  0.001727  3.839141  0.001
C  C12  1  0.93416061  0.17873132  0.20720957  1  0.074592  -0.001845  3.610592  -0.001  0.075535  0.000565  3.846777  0.001  0.077505  -0.000385  3.861676  0.0  0.133392  0.073009  0.001727  3.839167  0.001
C  C13  1  0.82126785  0.06584131  0.29278799  1  0.074589  -0.001862  3.610649  -0.001  0.075567  0.000566  3.846807  0.001  0.077536  -0.000385  3.861709  0.0  0.133407  0.073042  0.001727  3.839199  0.001
C  C14  1  0.82583264  0.89531876  0.82301977  1  0.618945  -0.00804  3.90539  -0.006  0.574049  -0.001303  4.21581  -0.001  0.61206  -0.001263  4.208324  0.0  0.207694  0.547963  -0.000959  4.220278  -0.001
C  C15  1  0.10468195  0.17416031  0.67698326  1  0.619044  -0.008006  3.905395  -0.006  0.574135  -0.001305  4.215808  -0.001  0.612148  -0.001265  4.208321  0.0  0.207706  0.548046  -0.000961  4.220277  -0.001
C  C16  1  0.17416409  0.10467994  0.17698312  1  0.619001  -0.008053  3.90525  -0.006  0.574099  -0.001305  4.215672  -0.001  0.612111  -0.001264  4.208183  0.0  0.207746  0.548012  -0.00096  4.220141  -0.001
C  C17  1  0.89531770  0.82583839  0.32301543  1  0.619019  -0.008058  3.905315  -0.006  0.57409  -0.001304  4.215752  -0.001  0.612103  -0.001264  4.208263  0.0  0.207735  0.548003  -0.00096  4.220222  -0.001
N  N18  1  0.17390285  0.61526244  0.84423600  1  -0.239288  0.057886  3.321864  0.076  -0.200533  0.044039  3.608196  0.061  -0.220375  0.035605  3.622174  0.053  -0.323586  -0.190294  0.04858  3.601989  0.063
N  N19  1  0.38474010  0.82609442  0.65576722  1  -0.239111  0.057926  3.321718  0.076  -0.200483  0.04404  3.608134  0.061  -0.220334  0.035605  3.622127  0.053  -0.32356  -0.190251  0.048581  3.601929  0.063
N  N20  1  0.82609343  0.38474104  0.15576397  1  -0.239146  0.05791  3.321738  0.076  -0.200482  0.044039  3.608146  0.061  -0.220331  0.035606  3.622132  0.053  -0.323563  -0.190243  0.048581  3.601935  0.063
N  N21  1  0.61526246  0.17390429  0.34423267  1  -0.239155  0.057917  3.321688  0.076  -0.200476  0.044039  3.608056  0.061  -0.22033  0.035606  3.622053  0.053  -0.323574  -0.190244  0.048581  3.601852  0.063
O  O22  1  0.76768034  0.77066588  0.92904206  1  -0.56772  0.088879  2.031788  0.124  -0.55009  0.057916  2.31385  0.088  -0.592494  0.042642  2.307168  0.07  -0.320758  -0.522198  0.068022  2.318463  0.097
O  O23  1  0.22933437  0.23231972  0.57096052  1  -0.567768  0.088881  2.031729  0.124  -0.550132  0.057921  2.313794  0.088  -0.592545  0.042644  2.30712  0.07  -0.32078  -0.522243  0.068028  2.318408  0.097
O  O24  1  0.23232077  0.22933282  0.07096194  1  -0.567726  0.088883  2.031621  0.124  -0.550101  0.057918  2.3137  0.088  -0.592508  0.042642  2.30702  0.07  -0.320775  -0.522209  0.068025  2.318315  0.097
O  O25  1  0.77066337  0.76768375  0.42903802  1  -0.567721  0.088879  2.031721  0.124  -0.550063  0.057916  2.313765  0.088  -0.592472  0.042641  2.307087  0.07  -0.320759  -0.522176  0.068022  2.318381  0.097
O  O26  1  0.70251500  0.05583206  0.73970153  1  -0.567779  0.021095  2.027788  0.03  -0.548484  0.009732  2.284546  0.016  -0.578297  0.003685  2.276009  0.008  -0.297406  -0.525959  0.017208  2.288753  0.024
O  O27  1  0.94416520  0.29748670  0.76029485  1  -0.567831  0.021082  2.027847  0.03  -0.548526  0.009733  2.2846  0.016  -0.578339  0.003685  2.276059  0.008  -0.297405  -0.526002  0.017209  2.288811  0.024
O  O28  1  0.29748610  0.94416664  0.26029978  1  -0.567797  0.021103  2.027766  0.03  -0.548507  0.009732  2.284546  0.016  -0.57832  0.003685  2.276005  0.008  -0.297423  -0.525975  0.017208  2.288741  0.024
O  O29  1  0.05583318  0.70251519  0.23969970  1  -0.567813  0.021104  2.027782  0.03  -0.548511  0.009732  2.284567  0.016  -0.578325  0.003684  2.276026  0.008  -0.297425  -0.525986  0.017207  2.28877  0.024
