# generated using pymatgen
data_CuH10C11S2(NCl)2
_symmetry_space_group_name_H-M   'P 1'
_cell_length_a   10.95383193
_cell_length_b   10.95397305
_cell_length_c   12.16424242
_cell_angle_alpha   64.16412755
_cell_angle_beta   64.16871853
_cell_angle_gamma   61.20950856
_symmetry_Int_Tables_number   1
_chemical_formula_structural   CuH10C11S2(NCl)2
_chemical_formula_sum   'Cu2 H20 C22 S4 N4 Cl4'
_cell_volume   1103.08896346
_cell_formula_units_Z   2
loop_
 _symmetry_equiv_pos_site_id
 _symmetry_equiv_pos_as_xyz
  1  'x, y, z'
loop_
 _atom_site_type_symbol
 _atom_site_label
 _atom_site_symmetry_multiplicity
 _atom_site_fract_x
 _atom_site_fract_y
 _atom_site_fract_z
 _atom_site_occupancy
 _atom_site_hle17_ddec_charge
 _atom_site_hle17_ddec_spin_density
 _atom_site_hle17_ddec_sum_bond_order
 _atom_site_hle17_magmom
 _atom_site_hse06_10hf_ddec_charge
 _atom_site_hse06_10hf_ddec_spin_density
 _atom_site_hse06_10hf_ddec_sum_bond_order
 _atom_site_hse06_10hf_magmom
 _atom_site_hse06_ddec_charge
 _atom_site_hse06_ddec_spin_density
 _atom_site_hse06_ddec_sum_bond_order
 _atom_site_hse06_magmom
 _atom_site_pbe_cm5_charge
 _atom_site_pbe_ddec_charge
 _atom_site_pbe_ddec_spin_density
 _atom_site_pbe_ddec_sum_bond_order
 _atom_site_pbe_magmom
Cu  Cu0  1  0.49999568  0.00000063  0.49999924  1  0.709198  -0.613003  1.904703  -0.434  0.660708  -0.704248  2.338295  -0.54  0.74901  -0.770335  2.262112  -0.618  0.602066  0.610969  -0.663651  2.387742  -0.496
Cu  Cu1  1  0.00000108  0.50000103  0.00000069  1  0.709305  -0.612974  1.904004  -0.434  0.660743  -0.704238  2.337562  -0.54  0.749044  -0.77035  2.261406  -0.618  0.602044  0.611024  -0.66365  2.38704  -0.496
H  H2  1  0.41405463  0.48832355  0.75558814  1  0.127442  -7.3e-05  0.970161  0.0  0.139602  -0.000211  1.035184  0.0  0.141456  -0.000149  1.034506  0.0  0.096896  0.138383  -0.000252  1.03575  0.0
H  H3  1  0.51167118  0.58591867  0.74438514  1  0.127474  -7.4e-05  0.970483  0.0  0.139616  -0.000211  1.035497  0.0  0.141467  -0.000149  1.034822  0.0  0.096863  0.138391  -0.000251  1.036073  0.0
H  H4  1  0.58595270  0.51167171  0.24441186  1  0.127435  -7.4e-05  0.970099  0.0  0.139634  -0.000211  1.035087  0.0  0.141488  -0.000149  1.034407  0.0  0.096893  0.13841  -0.000252  1.035666  0.0
H  H5  1  0.48833196  0.41408316  0.25561143  1  0.127479  -7.3e-05  0.970447  0.0  0.139637  -0.00021  1.035435  0.0  0.141489  -0.000149  1.034759  0.0  0.096882  0.138415  -0.000251  1.036012  0.0
H  H6  1  0.70995248  0.15224909  0.36368193  1  0.077871  -0.000749  0.937725  -0.001  0.088035  -0.000772  0.998103  -0.001  0.089547  -0.000548  0.996337  -0.001  0.112055  0.086663  -0.000936  0.999793  -0.001
H  H7  1  0.84773741  0.29003059  0.13633360  1  0.078056  -0.00075  0.937584  -0.001  0.088198  -0.000772  0.997951  -0.001  0.089712  -0.000548  0.996182  -0.001  0.112086  0.086822  -0.000936  0.99965  -0.001
H  H8  1  0.29004380  0.84774553  0.63631871  1  0.077903  -0.000749  0.937821  -0.001  0.08815  -0.000772  0.998094  -0.001  0.089662  -0.000548  0.996327  -0.001  0.112082  0.086773  -0.000936  0.999788  -0.001
H  H9  1  0.15226886  0.70996791  0.86366469  1  0.077978  -0.00075  0.937564  -0.001  0.088106  -0.000773  0.99797  -0.001  0.089619  -0.000549  0.996202  -0.001  0.112014  0.086728  -0.000937  0.999666  -0.001
H  H10  1  0.77426690  0.31741803  0.40039174  1  0.118647  -0.001242  0.971149  -0.001  0.12937  -0.001264  1.030458  -0.001  0.13328  -0.000965  1.028391  -0.001  0.094858  0.126566  -0.00148  1.032172  -0.001
H  H11  1  0.68256384  0.22572743  0.09960188  1  0.118705  -0.001241  0.971124  -0.001  0.129422  -0.001264  1.030435  -0.001  0.13333  -0.000964  1.028371  -0.001  0.094823  0.126615  -0.001479  1.032159  -0.001
H  H12  1  0.22573563  0.68256992  0.59961154  1  0.118698  -0.001241  0.97107  -0.001  0.12942  -0.001264  1.03039  -0.001  0.133329  -0.000965  1.028322  -0.001  0.094849  0.126611  -0.00148  1.032104  -0.001
H  H13  1  0.31744275  0.77426996  0.90039509  1  0.118713  -0.00124  0.97134  -0.001  0.129452  -0.001263  1.030534  -0.001  0.133361  -0.000964  1.028466  -0.001  0.094854  0.126647  -0.001479  1.032253  -0.001
H  H14  1  0.43867385  0.28516599  0.76399706  1  0.114049  -0.000567  0.976234  -0.001  0.126306  -0.000623  1.032395  -0.001  0.129624  -0.000476  1.030837  0.0  0.098586  0.123999  -0.000715  1.033562  -0.001
H  H15  1  0.71482420  0.56131042  0.73599572  1  0.114178  -0.000566  0.976414  -0.001  0.126395  -0.000623  1.032586  -0.001  0.129712  -0.000475  1.031026  0.0  0.098639  0.124091  -0.000715  1.033741  -0.001
H  H16  1  0.56131757  0.71483739  0.23600117  1  0.114121  -0.000566  0.976255  -0.001  0.12634  -0.000623  1.032448  -0.001  0.129659  -0.000476  1.030885  0.0  0.098623  0.124041  -0.000715  1.033621  -0.001
H  H17  1  0.28517081  0.43869834  0.26401038  1  0.114129  -0.000566  0.976512  -0.001  0.126354  -0.000622  1.0326  -0.001  0.12967  -0.000475  1.031046  0.0  0.098642  0.124062  -0.000715  1.033748  -0.001
H  H18  1  0.39750161  0.11684308  0.71416381  1  0.086812  -0.000789  0.929475  -0.001  0.096313  -0.000768  0.987323  -0.001  0.098362  -0.000539  0.984585  -0.001  0.115201  0.094596  -0.000947  0.989581  -0.001
H  H19  1  0.88315152  0.60247966  0.78584281  1  0.08678  -0.000789  0.929551  -0.001  0.096293  -0.000768  0.987389  -0.001  0.09834  -0.000539  0.984646  -0.001  0.115194  0.094587  -0.000947  0.989647  -0.001
H  H20  1  0.60247841  0.88317041  0.28583248  1  0.086813  -0.00079  0.929605  -0.001  0.09632  -0.000768  0.987452  -0.001  0.09837  -0.000539  0.984712  -0.001  0.115205  0.094602  -0.000947  0.989709  -0.001
H  H21  1  0.11684724  0.39752675  0.21416025  1  0.086798  -0.00079  0.929632  -0.001  0.0963  -0.000767  0.987482  -0.001  0.098347  -0.000539  0.984739  -0.001  0.115196  0.094591  -0.000947  0.989739  -0.001
C  C22  1  0.52117817  0.47880977  0.74999124  1  -0.227913  -0.00038  3.640497  -0.001  -0.256083  -0.000479  3.90373  -0.001  -0.255018  -0.000295  3.91347  0.0  -0.145721  -0.257154  -0.000598  3.897198  -0.001
C  C23  1  0.47882710  0.52118880  0.25000908  1  -0.227953  -0.00038  3.640673  -0.001  -0.256107  -0.000479  3.903722  -0.001  -0.255036  -0.000293  3.913453  0.0  -0.145726  -0.257184  -0.000598  3.897213  -0.001
C  C24  1  0.65595587  0.18220043  0.45234320  1  0.130379  0.008658  3.723289  0.006  0.101884  0.001126  3.974337  0.001  0.111465  0.002968  3.995365  0.002  0.037133  0.095803  -0.000325  3.960604  0.0
C  C25  1  0.81778287  0.34403814  0.04766373  1  0.130315  0.008671  3.723167  0.006  0.101829  0.001122  3.974213  0.001  0.111409  0.002972  3.995232  0.002  0.037208  0.095752  -0.000325  3.960481  0.0
C  C26  1  0.34403907  0.81779858  0.54765949  1  0.130365  0.008677  3.723242  0.006  0.10181  0.001124  3.974284  0.001  0.111391  0.002968  3.995308  0.002  0.037181  0.09573  -0.000324  3.960544  0.0
C  C27  1  0.18222034  0.65596054  0.95233820  1  0.13027  0.008678  3.723626  0.006  0.101888  0.00112  3.974298  0.001  0.111466  0.002976  3.995323  0.002  0.037284  0.095813  -0.000325  3.960563  0.0
C  C28  1  0.69109887  0.27393986  0.47370579  1  -0.170425  -0.009795  3.716864  -0.01  -0.185625  -0.004606  3.958122  -0.005  -0.194617  -0.004152  3.977672  -0.005  -0.095138  -0.17967  -0.004935  3.944884  -0.005
C  C29  1  0.72603520  0.30890359  0.02629657  1  -0.170514  -0.009808  3.717116  -0.01  -0.185691  -0.004602  3.958366  -0.005  -0.194679  -0.004161  3.977918  -0.005  -0.095146  -0.179733  -0.004935  3.945126  -0.005
C  C30  1  0.30890227  0.72604921  0.52629678  1  -0.170528  -0.009818  3.716801  -0.01  -0.185751  -0.004604  3.958082  -0.005  -0.194734  -0.004157  3.977635  -0.005  -0.095197  -0.179789  -0.004936  3.944833  -0.005
C  C31  1  0.27397040  0.69110033  0.97370227  1  -0.172021  -0.00982  3.715974  -0.01  -0.185739  -0.004603  3.958532  -0.005  -0.194726  -0.004165  3.978079  -0.005  -0.095189  -0.17978  -0.004936  3.945294  -0.005
C  C32  1  0.61270705  0.31642443  0.58665245  1  0.088719  0.010076  3.796044  0.007  0.101829  0.003122  4.057681  0.002  0.111129  0.004048  4.076674  0.003  0.008408  0.095562  0.002366  4.044537  0.002
C  C33  1  0.68356197  0.38728754  0.91334525  1  0.088786  0.010092  3.79632  0.007  0.101871  0.003116  4.057987  0.002  0.111167  0.004061  4.076978  0.003  0.008488  0.095607  0.002365  4.044842  0.002
C  C34  1  0.38729031  0.68357019  0.41335104  1  0.088757  0.010105  3.796062  0.007  0.101909  0.003125  4.057637  0.002  0.111189  0.004056  4.076644  0.003  0.008469  0.095642  0.002366  4.044499  0.002
C  C35  1  0.31644193  0.61271540  0.08665549  1  0.093741  0.010103  3.78877  0.007  0.101863  0.003117  4.057929  0.002  0.111162  0.004065  4.07692  0.003  0.00849  0.095599  0.002364  4.044789  0.002
C  C36  1  0.50577380  0.25764587  0.67499117  1  -0.16805  -0.010316  3.727131  -0.01  -0.187422  -0.004683  3.97188  -0.005  -0.196103  -0.004223  3.991363  -0.004  -0.094998  -0.181672  -0.004951  3.958541  -0.005
C  C37  1  0.74234430  0.49421317  0.82500472  1  -0.168152  -0.010332  3.727527  -0.01  -0.187466  -0.004677  3.972266  -0.005  -0.196149  -0.004231  3.991762  -0.004  -0.095051  -0.181717  -0.00495  3.95893  -0.005
C  C38  1  0.49422068  0.74235733  0.32500342  1  -0.168112  -0.01034  3.727027  -0.01  -0.187455  -0.004685  3.971783  -0.005  -0.196133  -0.004228  3.991284  -0.004  -0.095047  -0.181716  -0.004952  3.958459  -0.005
C  C39  1  0.25765374  0.50579540  0.17499693  1  -0.16957  -0.010341  3.725964  -0.01  -0.187384  -0.004678  3.972034  -0.005  -0.196056  -0.004234  3.991502  -0.004  -0.095003  -0.181644  -0.004951  3.958714  -0.005
C  C40  1  0.47924229  0.16456810  0.64666955  1  0.146047  0.009834  3.704835  0.007  0.116921  0.001649  3.954745  0.001  0.128043  0.003597  3.972945  0.003  0.04523  0.109846  0.000145  3.942789  0.0
C  C41  1  0.83541542  0.52074354  0.85333929  1  0.146064  0.009853  3.704805  0.007  0.116898  0.001643  3.954752  0.001  0.128025  0.003602  3.972941  0.003  0.045292  0.10981  0.000144  3.942813  0.0
C  C42  1  0.52074809  0.83543532  0.35332827  1  0.146015  0.009858  3.704904  0.007  0.116864  0.001654  3.954835  0.001  0.127985  0.003598  3.973033  0.003  0.045218  0.109793  0.000145  3.94288  0.0
C  C43  1  0.16457922  0.47925983  0.14666586  1  0.145957  0.009864  3.705139  0.007  0.116899  0.001643  3.954703  0.001  0.128026  0.003606  3.972895  0.003  0.04529  0.109818  0.000144  3.942767  0.0
S  S44  1  0.65311971  0.44217829  0.60293331  1  0.059109  0.002043  2.381605  0.001  0.05544  0.000965  2.694182  0.001  0.047684  0.001489  2.697755  0.001  0.034179  0.061326  0.000374  2.692169  0.0
S  S45  1  0.55780013  0.34687606  0.89705342  1  0.05899  0.002043  2.381633  0.001  0.055334  0.00096  2.694212  0.001  0.04757  0.00149  2.697794  0.001  0.034104  0.061225  0.000373  2.692202  0.0
S  S46  1  0.34688871  0.55781053  0.39707134  1  0.059081  0.002046  2.381709  0.001  0.055396  0.00096  2.694279  0.001  0.047637  0.00149  2.697863  0.001  0.034159  0.061288  0.000374  2.692271  0.0
S  S47  1  0.44220310  0.65312586  0.10294884  1  0.057249  0.002045  2.37972  0.001  0.055295  0.00096  2.694286  0.001  0.047522  0.001489  2.697873  0.001  0.034082  0.061193  0.000373  2.692282  0.0
N  N48  1  0.55116937  0.12787005  0.53684158  1  -0.308458  -0.083386  3.381603  -0.104  -0.250593  -0.059428  3.671659  -0.078  -0.28378  -0.050651  3.695806  -0.071  -0.361293  -0.231215  -0.06394  3.657481  -0.081
N  N49  1  0.87212197  0.44881728  0.96317065  1  -0.308527  -0.083372  3.381383  -0.104  -0.250613  -0.059413  3.671438  -0.078  -0.283795  -0.050637  3.695561  -0.071  -0.361361  -0.231243  -0.063923  3.657285  -0.081
N  N50  1  0.44882068  0.87213124  0.46315724  1  -0.308413  -0.083399  3.381582  -0.104  -0.25055  -0.059431  3.671683  -0.078  -0.283738  -0.050649  3.695832  -0.071  -0.361328  -0.231171  -0.063941  3.657499  -0.081
N  N51  1  0.12788399  0.55118557  0.03682929  1  -0.308516  -0.083375  3.381649  -0.104  -0.250588  -0.059411  3.67165  -0.078  -0.283774  -0.050638  3.695779  -0.071  -0.361362  -0.231217  -0.063922  3.657492  -0.081
Cl  Cl52  1  0.48436028  0.16058513  0.30546060  1  -0.542832  -0.117027  0.928253  -0.139  -0.534414  -0.082145  1.193353  -0.103  -0.563121  -0.065094  1.166553  -0.088  -0.319322  -0.51714  -0.092283  1.212628  -0.11
Cl  Cl53  1  0.83942022  0.51561813  0.19455233  1  -0.542808  -0.11704  0.928028  -0.139  -0.534379  -0.082152  1.193108  -0.103  -0.563088  -0.065093  1.166306  -0.088  -0.319285  -0.517107  -0.092291  1.212394  -0.11
Cl  Cl54  1  0.51563665  0.83941371  0.69453642  1  -0.54282  -0.117023  0.928247  -0.139  -0.5344  -0.082143  1.193359  -0.103  -0.563106  -0.065091  1.166558  -0.088  -0.319313  -0.517127  -0.092283  1.212632  -0.11
Cl  Cl55  1  0.16058333  0.48437945  0.80544909  1  -0.542813  -0.117043  0.928035  -0.139  -0.534382  -0.082154  1.193116  -0.103  -0.563091  -0.065094  1.166313  -0.088  -0.319282  -0.517111  -0.092294  1.212401  -0.11
