# generated using pymatgen
data_CdH14C14N2O7
_symmetry_space_group_name_H-M   'P 1'
_cell_length_a   9.27432677
_cell_length_b   10.32676261
_cell_length_c   19.78494092
_cell_angle_alpha   90.00261946
_cell_angle_beta   89.99998950
_cell_angle_gamma   109.06287514
_symmetry_Int_Tables_number   1
_chemical_formula_structural   CdH14C14N2O7
_chemical_formula_sum   'Cd4 H56 C56 N8 O28'
_cell_volume   1790.96465778
_cell_formula_units_Z   4
loop_
 _symmetry_equiv_pos_site_id
 _symmetry_equiv_pos_as_xyz
  1  'x, y, z'
loop_
 _atom_site_type_symbol
 _atom_site_label
 _atom_site_symmetry_multiplicity
 _atom_site_fract_x
 _atom_site_fract_y
 _atom_site_fract_z
 _atom_site_occupancy
 _atom_site_pbe_bader_charge
 _atom_site_pbe_bader_spin_density
 _atom_site_pbe_cm5_charge
 _atom_site_pbe_ddec_charge
 _atom_site_pbe_ddec_spin_density
 _atom_site_pbe_ddec_sum_bond_order
 _atom_site_pbe_magmom
Cd  Cd0  1  0.76452087  0.61904959  0.01168415  1  1.272134  0  0.769914  0.940104  0  2.042849  0
Cd  Cd1  1  0.73547807  0.88094861  0.51168541  1  1.272037  0  0.769955  0.940106  0  2.042623  0
Cd  Cd2  1  0.23546014  0.38093031  0.98831213  1  1.272274  0  0.769898  0.940034  0  2.042997  0
Cd  Cd3  1  0.26453554  0.11902264  0.48831895  1  1.271855  0  0.76992  0.940042  0  2.042825  0
H  H4  1  0.53374713  0.41157556  0.08203758  1  0.622993  0  0.290858  0.394675  0  0.933877  0
H  H5  1  0.96626441  0.08842802  0.58203868  1  0.622947  0  0.290807  0.39465  0  0.93397  0
H  H6  1  0.46624354  0.58841978  0.91796678  1  0.623129  0  0.290847  0.394675  0  0.933866  0
H  H7  1  0.03376589  0.91158527  0.41795961  1  0.623195  0  0.290755  0.394476  0  0.934129  0
H  H8  1  0.49478186  0.54473962  0.08831807  1  0.648432  0  0.28461  0.381238  0  0.961915  0
H  H9  1  0.00522878  0.95526960  0.58832255  1  0.648458  0  0.284583  0.38117  0  0.962006  0
H  H10  1  0.50521529  0.45525888  0.91167972  1  0.64844  0  0.284549  0.381159  0  0.962011  0
H  H11  1  0.99477630  0.04473309  0.41168535  1  0.648424  0  0.284628  0.381177  0  0.961993  0
H  H12  1  0.07616288  0.72150724  0.96347310  1  0.648202  0  0.287807  0.384224  0  0.963088  0
H  H13  1  0.42382256  0.77848369  0.46347505  1  0.648245  0  0.287779  0.384169  0  0.96317  0
H  H14  1  0.92383060  0.27849934  0.03652115  1  0.647828  0  0.287832  0.384239  0  0.96307  0
H  H15  1  0.57619188  0.22152425  0.53652274  1  0.648087  0  0.287754  0.384172  0  0.963163  0
H  H16  1  0.98493656  0.83344566  0.96345913  1  0.632039  0  0.304273  0.397534  0  0.920657  0
H  H17  1  0.51504452  0.66654253  0.46345115  1  0.631877  0  0.30436  0.397613  0  0.920484  0
H  H18  1  0.01502813  0.16654314  0.03654068  1  0.631831  0  0.304252  0.397417  0  0.920693  0
H  H19  1  0.48495086  0.33345084  0.53654310  1  0.631871  0  0.304271  0.397477  0  0.920686  0
H  H20  1  0.46672963  0.75787725  0.35779558  1  0.657278  0  0.311048  0.347757  0  0.956436  0
H  H21  1  0.03326702  0.74211478  0.85779434  1  0.65737  0  0.311077  0.347834  0  0.956458  0
H  H22  1  0.53325695  0.24213432  0.64219513  1  0.657022  0  0.310969  0.347878  0  0.956332  0
H  H23  1  0.96673368  0.25789396  0.14219890  1  0.657369  0  0.311012  0.347846  0  0.956435  0
H  H24  1  0.93617364  0.49764382  0.11286882  1  0.166956  0  0.116739  0.094419  0  1.027927  0
H  H25  1  0.56379953  0.00236774  0.61287050  1  0.166774  0  0.11672  0.094384  0  1.028268  0
H  H26  1  0.06381448  0.50235351  0.88713706  1  0.166905  0  0.116708  0.094405  0  1.028124  0
H  H27  1  0.43621362  0.99761776  0.38712223  1  0.167293  0  0.11667  0.094311  0  1.028303  0
H  H28  1  0.13212911  0.56072750  0.20300029  1  0.133495  0  0.113627  0.124287  0  1.010998  0
H  H29  1  0.36784917  0.93928729  0.70299355  1  0.133141  0  0.11356  0.124108  0  1.011127  0
H  H30  1  0.86784366  0.43929404  0.79700710  1  0.133021  0  0.11356  0.124151  0  1.010942  0
H  H31  1  0.63214903  0.06071733  0.29699261  1  0.133021  0  0.113541  0.12413  0  1.011048  0
H  H32  1  0.12196767  0.97605580  0.18899372  1  0.103241  0  0.113666  0.124597  0  0.976933  0
H  H33  1  0.37800806  0.52395596  0.68897528  1  0.103539  0  0.113745  0.124688  0  0.976932  0
H  H34  1  0.87800246  0.02393003  0.81100963  1  0.103064  0  0.113749  0.1247  0  0.976595  0
H  H35  1  0.62199237  0.47603953  0.31103110  1  0.103631  0  0.113731  0.124553  0  0.976913  0
H  H36  1  0.92833522  0.89533135  0.09666159  1  0.145696  0  0.11734  0.100459  0  1.018682  0
H  H37  1  0.57165785  0.60467365  0.59665035  1  0.145775  0  0.117285  0.100257  0  1.018613  0
H  H38  1  0.07163478  0.10467283  0.90334327  1  0.145886  0  0.117413  0.100449  0  1.018537  0
H  H39  1  0.42836464  0.39532015  0.40336463  1  0.1461  0  0.117289  0.100239  0  1.018749  0
H  H40  1  0.32910191  0.93614382  0.25364636  1  0.127821  0  0.1179  0.092485  0  1.000664  0
H  H41  1  0.17091350  0.56387726  0.75363715  1  0.12957  0  0.11785  0.092486  0  1.000745  0
H  H42  1  0.67088469  0.06386469  0.74636255  1  0.127926  0  0.117948  0.092653  0  1.000381  0
H  H43  1  0.82909295  0.43613565  0.24636165  1  0.129668  0  0.117949  0.092599  0  1.000588  0
H  H44  1  0.48668453  0.24916734  0.86876961  1  0.093438  0  0.109405  0.113641  0  0.990233  0
H  H45  1  0.01332181  0.25081125  0.36876497  1  0.093024  0  0.109376  0.113587  0  0.990265  0
H  H46  1  0.51330079  0.75081874  0.13122666  1  0.093308  0  0.109377  0.1136  0  0.990248  0
H  H47  1  0.98667324  0.74917804  0.63124040  1  0.093054  0  0.109391  0.113639  0  0.990179  0
H  H48  1  0.36739922  0.00906979  0.82856745  1  0.082778  0  0.099871  0.094141  0  1.028249  0
H  H49  1  0.13260722  0.49090635  0.32855799  1  0.082506  0  0.09988  0.094145  0  1.028317  0
H  H50  1  0.63257888  0.99091413  0.17143994  1  0.082851  0  0.099784  0.094034  0  1.028198  0
H  H51  1  0.86741928  0.50908345  0.67143980  1  0.082816  0  0.099806  0.094059  0  1.028214  0
H  H52  1  0.45767927  0.82413085  0.87214177  1  0.101921  0  0.103634  0.104177  0  1.009377  0
H  H53  1  0.04234574  0.67584839  0.37214220  1  0.101954  0  0.10362  0.104145  0  1.009651  0
H  H54  1  0.54231396  0.17585943  0.12786714  1  0.101954  0  0.103613  0.104207  0  1.009472  0
H  H55  1  0.95769920  0.32414170  0.62786065  1  0.10197  0  0.103617  0.104179  0  1.009647  0
H  H56  1  0.77392085  0.11132426  0.00209966  1  0.090185  0  0.102902  0.091446  0  1.069147  0
H  H57  1  0.72612231  0.38868419  0.50209591  1  0.090606  0  0.102851  0.091442  0  1.068854  0
H  H58  1  0.22607805  0.88868241  0.99789964  1  0.09023  0  0.10287  0.091475  0  1.069217  0
H  H59  1  0.27390861  0.61129346  0.49790491  1  0.090374  0  0.102934  0.091534  0  1.068894  0
C  C60  1  0.97972106  0.60239459  0.13147413  1  0.37704  0  0.041367  0.092434  0  3.9542  0
C  C61  1  0.52027194  0.89763208  0.63145894  1  0.377368  0  0.041399  0.092507  0  3.953961  0
C  C62  1  0.02026519  0.39761289  0.86852467  1  0.377566  0  0.041302  0.092102  0  3.954113  0
C  C63  1  0.47971654  0.10236627  0.36853177  1  0.377112  0  0.041472  0.092471  0  3.954228  0
C  C64  1  0.08804792  0.63801565  0.18240891  1  0.04474  0  -0.078082  -0.165592  0  3.922371  0
C  C65  1  0.41191805  0.86199965  0.68239098  1  0.044897  0  -0.078165  -0.165555  0  3.921813  0
C  C66  1  0.91190794  0.36199440  0.81759444  1  0.044332  0  -0.077978  -0.165283  0  3.921675  0
C  C67  1  0.58806866  0.13799359  0.31759974  1  0.044241  0  -0.078101  -0.165493  0  3.922001  0
C  C68  1  0.14471513  0.77517358  0.20378544  1  -0.042082  0  0.01318  0.12108  0  4.026182  0
C  C69  1  0.35526684  0.72484246  0.70377222  1  -0.042992  0  0.013332  0.121482  0  4.026112  0
C  C70  1  0.85524655  0.22483148  0.79621437  1  -0.042585  0  0.013281  0.121486  0  4.026482  0
C  C71  1  0.64475092  0.27515637  0.29622860  1  -0.042555  0  0.013285  0.121423  0  4.026073  0
C  C72  1  0.08262518  0.86860497  0.17393402  1  -0.018888  0  -0.078625  -0.167765  0  3.934932  0
C  C73  1  0.41737602  0.63141317  0.67393329  1  -0.018616  0  -0.078776  -0.168218  0  3.935076  0
C  C74  1  0.91733471  0.13139802  0.82606023  1  -0.018298  0  -0.078892  -0.168373  0  3.934993  0
C  C75  1  0.58265225  0.36858175  0.32607562  1  -0.019019  0  -0.078863  -0.168077  0  3.93474  0
C  C76  1  0.97484873  0.82495504  0.12286429  1  0.435547  0  0.043402  0.091905  0  3.95069  0
C  C77  1  0.52512431  0.67505522  0.62285265  1  0.434974  0  0.043473  0.092346  0  3.950234  0
C  C78  1  0.02510033  0.17504472  0.87713501  1  0.435445  0  0.043382  0.092127  0  3.950159  0
C  C79  1  0.47489378  0.32494769  0.37715474  1  0.435374  0  0.043508  0.092331  0  3.950147  0
C  C80  1  0.27148412  0.82523818  0.25066561  1  0.574892  0  0.043934  -0.018758  0  3.963955  0
C  C81  1  0.22850788  0.67477781  0.75065023  1  0.573903  0  0.044098  -0.018708  0  3.963844  0
C  C82  1  0.72848544  0.17477719  0.74933875  1  0.5758  0  0.044207  -0.018514  0  3.963711  0
C  C83  1  0.77148990  0.32523496  0.24934149  1  0.573625  0  0.04405  -0.018798  0  3.963919  0
C  C84  1  0.71121211  0.33955642  0.96575926  1  1.535473  0  0.206199  0.573856  0  4.205497  0
C  C85  1  0.78881080  0.16044655  0.46575725  1  1.535258  0  0.206015  0.573464  0  4.205926  0
C  C86  1  0.28876413  0.66043461  0.03423853  1  1.53556  0  0.206241  0.573833  0  4.205593  0
C  C87  1  0.21120813  0.83954007  0.53423549  1  1.535406  0  0.206014  0.573517  0  4.20572  0
C  C88  1  0.63976008  0.19808292  0.93840450  1  -0.010723  0  -0.021869  -0.050071  0  3.992433  0
C  C89  1  0.86026830  0.30191329  0.43840020  1  -0.010643  0  -0.021843  -0.049785  0  3.992423  0
C  C90  1  0.36022806  0.80191135  0.06159076  1  -0.011159  0  -0.021927  -0.050035  0  3.992409  0
C  C91  1  0.13973470  0.69807715  0.56159203  1  -0.010776  0  -0.021953  -0.050026  0  3.992638  0
C  C92  1  0.52448749  0.16762623  0.88912750  1  -0.114728  0  -0.074657  -0.071225  0  3.92452  0
C  C93  1  0.97552596  0.33236231  0.38911992  1  -0.11471  0  -0.07461  -0.071154  0  3.924431  0
C  C94  1  0.47550650  0.83235999  0.11086776  1  -0.114681  0  -0.074591  -0.071091  0  3.924513  0
C  C95  1  0.02447263  0.66763723  0.61087787  1  -0.114596  0  -0.074626  -0.071244  0  3.92425  0
C  C96  1  0.45852867  0.03336513  0.86607245  1  0.013278  0  -0.089001  -0.085681  0  3.993657  0
C  C97  1  0.04149932  0.46662953  0.36607420  1  0.013602  0  -0.088998  -0.085725  0  3.993712  0
C  C98  1  0.54147437  0.96661919  0.13392231  1  0.013331  0  -0.089005  -0.085589  0  3.993563  0
C  C99  1  0.95852454  0.53337448  0.63392510  1  0.013525  0  -0.089058  -0.085619  0  3.993635  0
C  C100  1  0.50898697  0.92866677  0.89050444  1  -0.065124  0  -0.074805  -0.075038  0  3.934378  0
C  C101  1  0.99105316  0.57133638  0.39050649  1  -0.065028  0  -0.07492  -0.075206  0  3.934628  0
C  C102  1  0.49102537  0.07133197  0.10949587  1  -0.065169  0  -0.074781  -0.075194  0  3.934474  0
C  C103  1  0.00899673  0.42866806  0.60950696  1  -0.065147  0  -0.074673  -0.075002  0  3.934548  0
C  C104  1  0.62596463  0.95863114  0.93873771  1  -0.054833  0  -0.020984  -0.041985  0  3.987003  0
C  C105  1  0.87406900  0.54137708  0.43873548  1  -0.054802  0  -0.020822  -0.041423  0  3.986408  0
C  C106  1  0.37404478  0.04137163  0.06126513  1  -0.054963  0  -0.020904  -0.041682  0  3.986988  0
C  C107  1  0.12597151  0.45862517  0.56127697  1  -0.055344  0  -0.020898  -0.041731  0  3.986785  0
C  C108  1  0.68782456  0.09231562  0.96289028  1  0.054346  0  -0.077913  -0.100361  0  3.961845  0
C  C109  1  0.81222257  0.40769528  0.46288753  1  0.05444  0  -0.077888  -0.100647  0  3.961468  0
C  C110  1  0.31215706  0.90768161  0.03711560  1  0.054607  0  -0.077882  -0.100596  0  3.962204  0
C  C111  1  0.18781178  0.59230789  0.53711633  1  0.054518  0  -0.077906  -0.100533  0  3.961686  0
C  C112  1  0.68959568  0.85361795  0.96608926  1  1.541201  0  0.199165  0.572624  0  4.214373  0
C  C113  1  0.81043612  0.64639504  0.46608715  1  1.540299  0  0.198978  0.572207  0  4.214926  0
C  C114  1  0.31040365  0.14638058  0.03391611  1  1.541257  0  0.199075  0.572482  0  4.214614  0
C  C115  1  0.18959388  0.35361111  0.53391822  1  1.541245  0  0.199021  0.572403  0  4.214836  0
N  N116  1  0.92592695  0.69420977  0.10102172  1  -1.235889  0  -0.337561  -0.253198  0  3.538111  0
N  N117  1  0.57407090  0.80579929  0.60101301  1  -1.235384  0  -0.337577  -0.253361  0  3.537985  0
N  N118  1  0.07406003  0.30579671  0.89898516  1  -1.235662  0  -0.337534  -0.253086  0  3.537775  0
N  N119  1  0.42593130  0.19420132  0.39898781  1  -1.235563  0  -0.337584  -0.253313  0  3.538021  0
N  N120  1  0.32043554  0.74261415  0.28580087  1  -0.570549  0  -0.214319  -0.07139  0  3.194934  0
N  N121  1  0.17955725  0.75740730  0.78579165  1  -0.570492  0  -0.214383  -0.071517  0  3.194357  0
N  N122  1  0.67956494  0.25742514  0.71420349  1  -0.572608  0  -0.214516  -0.071837  0  3.193543  0
N  N123  1  0.82042324  0.24259602  0.21420311  1  -0.570254  0  -0.214294  -0.071353  0  3.193904  0
O  O124  1  0.58197197  0.50932053  0.09408032  1  -1.24017  0  -0.59874  -0.765837  0  2.012291  0
O  O125  1  0.91804244  0.99069649  0.59409337  1  -1.240093  0  -0.598675  -0.76583  0  2.012245  0
O  O126  1  0.41801616  0.49067680  0.90592152  1  -1.24033  0  -0.598662  -0.765758  0  2.012322  0
O  O127  1  0.08197552  0.00932475  0.40590695  1  -1.240377  0  -0.598663  -0.765613  0  2.012377  0
O  O128  1  0.99103540  0.74908348  0.94244627  1  -1.251093  0  -0.563997  -0.752897  0  2.089729  0
O  O129  1  0.50894816  0.75090435  0.44244216  1  -1.250981  0  -0.564024  -0.752909  0  2.089727  0
O  O130  1  0.00893400  0.25090336  0.05755557  1  -1.250649  0  -0.563949  -0.752718  0  2.089838  0
O  O131  1  0.49106956  0.24910058  0.55755512  1  -1.250911  0  -0.563896  -0.752754  0  2.089959  0
O  O132  1  0.45413472  0.81448500  0.31876839  1  -0.77923  0  -0.266388  -0.348689  0  2.310141  0
O  O133  1  0.04587919  0.68549797  0.81877328  1  -0.779631  0  -0.266424  -0.348709  0  2.309976  0
O  O134  1  0.54581879  0.18549955  0.68122131  1  -0.777742  0  -0.266396  -0.348779  0  2.308545  0
O  O135  1  0.95413554  0.31452016  0.18122097  1  -0.779809  0  -0.266506  -0.348934  0  2.309325  0
O  O136  1  0.67033345  0.43690197  0.94033286  1  -1.167387  0  -0.322455  -0.559456  0  2.305161  0
O  O137  1  0.82966955  0.06308304  0.44033690  1  -1.167573  0  -0.32236  -0.55919  0  2.305213  0
O  O138  1  0.32967023  0.56309357  0.05965533  1  -1.167141  0  -0.322402  -0.559456  0  2.305182  0
O  O139  1  0.17033858  0.93689729  0.55966038  1  -1.166923  0  -0.322335  -0.559229  0  2.305128  0
O  O140  1  0.80885328  0.36234605  0.01306113  1  -1.186663  0  -0.315135  -0.557593  0  2.200098  0
O  O141  1  0.69119232  0.13768719  0.51306880  1  -1.186267  0  -0.315097  -0.557514  0  2.199998  0
O  O142  1  0.19113617  0.63766760  0.98693262  1  -1.186949  0  -0.315183  -0.557528  0  2.200037  0
O  O143  1  0.30884239  0.86231700  0.48693151  1  -1.186871  0  -0.315043  -0.557451  0  2.200107  0
O  O144  1  0.61572476  0.72588055  0.95586570  1  -1.167464  0  -0.328617  -0.572974  0  2.277614  0
O  O145  1  0.88430706  0.77413027  0.45586234  1  -1.167389  0  -0.328575  -0.572832  0  2.277633  0
O  O146  1  0.38428072  0.27411706  0.04413714  1  -1.167525  0  -0.328618  -0.572949  0  2.277496  0
O  O147  1  0.11573451  0.22587505  0.54413646  1  -1.167611  0  -0.328567  -0.572885  0  2.277757  0
O  O148  1  0.81412735  0.89367702  0.99854838  1  -1.198279  0  -0.327711  -0.578652  0  2.189824  0
O  O149  1  0.68591428  0.60635222  0.49854964  1  -1.197914  0  -0.327631  -0.578501  0  2.189944  0
O  O150  1  0.18588698  0.10634620  0.00144537  1  -1.198125  0  -0.327638  -0.57857  0  2.189992  0
O  O151  1  0.31411543  0.39364374  0.50145068  1  -1.198065  0  -0.327612  -0.578513  0  2.189853  0
