# generated using pymatgen
data_CoNiH14C18(NO5)2
_symmetry_space_group_name_H-M   'P 1'
_cell_length_a   9.69366990
_cell_length_b   10.90574198
_cell_length_c   21.97924977
_cell_angle_alpha   90.00174939
_cell_angle_beta   89.94145836
_cell_angle_gamma   89.99786201
_symmetry_Int_Tables_number   1
_chemical_formula_structural   CoNiH14C18(NO5)2
_chemical_formula_sum   'Co4 Ni4 H56 C72 N8 O40'
_cell_volume   2323.57172064
_cell_formula_units_Z   4
loop_
 _symmetry_equiv_pos_site_id
 _symmetry_equiv_pos_as_xyz
  1  'x, y, z'
loop_
 _atom_site_type_symbol
 _atom_site_label
 _atom_site_symmetry_multiplicity
 _atom_site_fract_x
 _atom_site_fract_y
 _atom_site_fract_z
 _atom_site_occupancy
 _atom_site_pbe_bader_charge
 _atom_site_pbe_bader_spin_density
 _atom_site_pbe_cm5_charge
 _atom_site_pbe_ddec_charge
 _atom_site_pbe_ddec_spin_density
 _atom_site_pbe_ddec_sum_bond_order
 _atom_site_pbe_magmom
Co  Co0  1  0.24623886  0.19711454  0.01555538  1  1.475007  2.867153  0.7825  1.100633  3.398787  2.579407  2.839
Co  Co1  1  0.25385946  0.30234688  0.51613572  1  1.470417  2.858363  0.780027  1.095159  3.388722  2.582417  2.831
Co  Co2  1  0.75380186  0.19711505  0.48445003  1  1.474658  2.867234  0.782432  1.100711  3.398787  2.57882  2.839
Co  Co3  1  0.74612653  0.30233678  0.98386868  1  1.470222  2.858386  0.780095  1.095382  3.388741  2.582398  2.831
Ni  Ni4  1  0.27794753  0.70414966  0.02202481  1  1.291023  0.777713  0.756426  0.944411  0.879954  2.754088  0.766
Ni  Ni5  1  0.22153196  0.79568262  0.52161957  1  1.289551  -0.743292  0.756978  0.942964  -0.911474  2.759698  -0.732
Ni  Ni6  1  0.72204041  0.70413749  0.47796570  1  1.291102  0.777663  0.75631  0.944032  0.879889  2.754532  0.765
Ni  Ni7  1  0.77846947  0.79568586  0.97837168  1  1.289204  -0.74312  0.757122  0.942984  -0.911264  2.760659  -0.732
H  H8  1  0.36484279  0.40416251  0.89603426  1  0.053313  0.013753  0.106208  0.071831  0.005827  0.962792  0.009
H  H9  1  0.12202112  0.38429258  0.86738554  1  0.035477  0.000664  0.101279  0.124782  0.00017  0.967366  0.0
H  H10  1  0.14016332  0.51564924  0.91468200  1  0.077538  0.003486  0.110508  0.147199  0.001296  0.989886  0.002
H  H11  1  0.10357404  0.38418087  0.09685037  1  0.167125  0.002072  0.123601  0.09791  0.000773  1.021359  0.002
H  H12  1  0.98746480  0.39360519  0.19802492  1  0.08989  0.001048  0.109172  0.113584  0.00045  1.002146  0.0
H  H13  1  0.10008282  0.01300926  0.22332105  1  0.067942  0.001347  0.110319  0.116897  0.000564  0.997011  0.001
H  H14  1  0.20543284  0.01879687  0.11966955  1  0.15791  0.002414  0.121267  0.09921  0.001165  1.028323  0.001
H  H15  1  0.13640497  0.09826950  0.39515271  1  0.055985  0.013776  0.105667  0.071317  0.005837  0.965289  0.009
H  H16  1  0.37992538  0.11844654  0.36718608  1  0.064637  -0.000481  0.101697  0.12528  -0.000339  0.968139  -0.001
H  H17  1  0.36034252  0.98608297  0.41372027  1  0.096433  0.003468  0.110847  0.14724  0.001458  0.98862  0.002
H  H18  1  0.39558496  0.11545831  0.59717221  1  0.168956  0.001883  0.12381  0.097931  0.000635  1.021521  0.001
H  H19  1  0.51235110  0.10620852  0.69811584  1  0.091172  0.00102  0.109138  0.113442  0.000443  1.002124  0.0
H  H20  1  0.39995587  0.48695258  0.72343572  1  0.067255  0.001278  0.110142  0.116612  0.000542  0.996714  0.001
H  H21  1  0.29388191  0.48089413  0.62002382  1  0.159304  0.001462  0.121319  0.099518  0.000352  1.027355  0.001
H  H22  1  0.63515878  0.40414874  0.60396525  1  0.053484  0.013741  0.106223  0.071838  0.005822  0.962838  0.009
H  H23  1  0.87798570  0.38429190  0.63262296  1  0.035499  0.000661  0.10129  0.124792  0.000168  0.967394  0.0
H  H24  1  0.85980272  0.51564638  0.58533361  1  0.077342  0.003488  0.1105  0.147163  0.001297  0.99013  0.002
H  H25  1  0.89637056  0.38416907  0.40312789  1  0.167561  0.00207  0.123692  0.097888  0.000772  1.02135  0.002
H  H26  1  0.01248138  0.39364030  0.30195476  1  0.089607  0.001048  0.109197  0.113606  0.00045  1.001623  0.0
H  H27  1  0.89993810  0.01299505  0.27665011  1  0.067303  0.001347  0.110219  0.116771  0.000564  0.996963  0.001
H  H28  1  0.79458816  0.01876281  0.38031666  1  0.15724  0.00241  0.121221  0.099279  0.001163  1.02808  0.001
H  H29  1  0.86361146  0.09826332  0.10484123  1  0.055967  0.013778  0.105659  0.071277  0.005837  0.965387  0.009
H  H30  1  0.62009191  0.11842742  0.13282116  1  0.064744  -0.000483  0.101603  0.125085  -0.00034  0.967944  -0.001
H  H31  1  0.63967326  0.98608329  0.08625863  1  0.09657  0.003469  0.110764  0.147041  0.001459  0.988689  0.002
H  H32  1  0.60443527  0.11544885  0.90282795  1  0.168869  0.001883  0.12384  0.097991  0.000635  1.02131  0.001
H  H33  1  0.48767063  0.10620197  0.80187881  1  0.091238  0.001021  0.109129  0.113408  0.000443  1.001968  0.0
H  H34  1  0.59996323  0.48697143  0.77657246  1  0.067036  0.001277  0.110192  0.116684  0.000542  0.996736  0.001
H  H35  1  0.70604435  0.48091516  0.87998660  1  0.159406  0.001462  0.121269  0.099585  0.000352  1.02705  0.001
H  H36  1  0.65075550  0.60835025  0.09963058  1  0.059405  0.005413  0.111476  0.083554  0.002339  0.949804  0.004
H  H37  1  0.89179097  0.63008712  0.12994209  1  0.074888  0.000559  0.105548  0.132036  0.000213  0.962729  0.0
H  H38  1  0.87884593  0.49506936  0.08502061  1  0.057281  -0.000185  0.110326  0.141908  -0.000203  0.990734  0.0
H  H39  1  0.90986451  0.62564075  0.90222895  1  0.180718  0.00047  0.129224  0.10663  0.000346  1.022815  0.0
H  H40  1  0.01693608  0.62187550  0.79990259  1  0.092375  0.000119  0.113122  0.118771  3.6e-05  0.99607  0.0
H  H41  1  0.90613303  0.00489734  0.78140022  1  0.077367  1.9e-05  0.113211  0.121144  -9e-06  0.990249  0.0
H  H42  1  0.81038478  0.99438857  0.88693785  1  0.191365  0.00069  0.126294  0.108709  0.000561  1.03675  0.0
H  H43  1  0.84770659  0.89080783  0.59981082  1  0.069689  -0.004039  0.111121  0.082953  -0.00189  0.949955  -0.003
H  H44  1  0.60662746  0.86837985  0.62969747  1  0.041751  0.000798  0.105558  0.132102  0.00036  0.962189  0.0
H  H45  1  0.61980091  0.00390221  0.58517627  1  0.065595  -5e-05  0.110292  0.141577  -0.00013  0.990316  0.0
H  H46  1  0.59132648  0.87483426  0.40193339  1  0.179267  0.000226  0.129516  0.107104  9.4e-05  1.022301  0.0
H  H47  1  0.48360539  0.87840929  0.29989173  1  0.087483  2.9e-05  0.113311  0.119072  1.6e-05  0.996327  0.0
H  H48  1  0.59414662  0.49536029  0.28127530  1  0.078389  3.9e-05  0.113156  0.120638  2.3e-05  0.990184  0.0
H  H49  1  0.69045860  0.50589967  0.38652923  1  0.19236  0.000421  0.12644  0.109008  0.000321  1.035364  0.0
H  H50  1  0.34922723  0.60828006  0.40037669  1  0.059996  0.005417  0.111499  0.083643  0.002341  0.949517  0.004
H  H51  1  0.10819134  0.63002762  0.37006758  1  0.075027  0.000558  0.105566  0.132084  0.000213  0.962682  0.0
H  H52  1  0.12114162  0.49502066  0.41499239  1  0.056708  -0.000185  0.110284  0.141822  -0.000203  0.990814  0.0
H  H53  1  0.09009519  0.62565458  0.59776817  1  0.180904  0.00047  0.129188  0.106495  0.000346  1.023128  0.0
H  H54  1  0.98312324  0.62187701  0.70010768  1  0.091615  0.000119  0.113125  0.118821  3.6e-05  0.996171  0.0
H  H55  1  0.09396586  0.00486852  0.71861296  1  0.077088  1.9e-05  0.113262  0.121053  -9e-06  0.990352  0.0
H  H56  1  0.18965787  0.99437149  0.61306451  1  0.191894  0.000689  0.126383  0.108777  0.00056  1.036772  0.0
H  H57  1  0.15231661  0.89087141  0.90020142  1  0.069677  -0.004035  0.11133  0.083121  -0.001889  0.949931  -0.003
H  H58  1  0.39336741  0.86838910  0.87029918  1  0.041863  0.000798  0.105564  0.132049  0.00036  0.962223  0.0
H  H59  1  0.38022596  0.00392247  0.91481507  1  0.065386  -5e-05  0.110282  0.14148  -0.00013  0.990381  0.0
H  H60  1  0.40866077  0.87484461  0.09806855  1  0.179182  0.000225  0.12948  0.107087  9.4e-05  1.022179  0.0
H  H61  1  0.51637714  0.87841719  0.20011615  1  0.08677  2.9e-05  0.113286  0.119155  1.6e-05  0.996126  0.0
H  H62  1  0.40585742  0.49536333  0.21871496  1  0.078364  3.9e-05  0.113103  0.120625  2.2e-05  0.990151  0.0
H  H63  1  0.30952723  0.50592936  0.11346199  1  0.178966  0.00042  0.126508  0.108895  0.000321  1.035527  0.0
C  C64  1  0.33094237  0.43655749  0.99193829  1  1.589938  0.014846  0.21956  0.580787  0.010533  4.113807  0.012
C  C65  1  0.29223214  0.37308671  0.93155815  1  0.557074  0.018882  -0.010161  0.100453  0.014704  3.949315  0.009
C  C66  1  0.14494039  0.41470162  0.91407579  1  -0.018645  0.031206  -0.160471  -0.355273  0.017816  3.869458  0.024
C  C67  1  0.03195560  0.36329155  0.95526681  1  1.560837  -0.003799  0.218545  0.659659  -0.000968  4.085075  -0.004
C  C68  1  0.10072506  0.30459119  0.12676021  1  0.470717  0.001067  0.062215  0.124836  0.000656  3.909034  0.0
C  C69  1  0.03737772  0.30902097  0.18346171  1  -0.019911  0.00496  -0.081435  -0.175837  0.002861  3.934983  0.004
C  C70  1  0.03406839  0.20360575  0.21997688  1  -0.064812  -0.000678  0.011058  0.102011  -0.000523  3.999477  -0.001
C  C71  1  0.09724020  0.09747986  0.19688456  1  -0.018435  0.005524  -0.084681  -0.184186  0.00305  3.954395  0.004
C  C72  1  0.15842442  0.10013066  0.13968525  1  0.493145  0.002857  0.056059  0.10608  0.002091  3.930727  0.002
C  C73  1  0.17008731  0.06273993  0.49092453  1  1.598311  0.003718  0.220236  0.579417  0.000653  4.114919  0.002
C  C74  1  0.20841634  0.12850069  0.43097394  1  0.56388  0.009629  -0.010824  0.100281  0.009111  3.955353  0.002
C  C75  1  0.35605245  0.08702250  0.41361611  1  -0.068223  0.029428  -0.16002  -0.354102  0.01671  3.868429  0.023
C  C76  1  0.46839942  0.13695585  0.45547400  1  1.559398  -0.003734  0.218718  0.661096  -0.000897  4.083599  -0.004
C  C77  1  0.39860330  0.19506660  0.62706558  1  0.477351  0.001223  0.061481  0.124207  0.000745  3.910342  0.0
C  C78  1  0.46235840  0.19076722  0.68360721  1  -0.02519  0.004795  -0.081147  -0.175264  0.002776  3.934193  0.003
C  C79  1  0.46582838  0.29629614  0.72005175  1  0.002201  -0.000677  0.010844  0.101612  -0.000513  3.999837  -0.001
C  C80  1  0.40256332  0.40237662  0.69705561  1  -0.04847  0.005329  -0.084617  -0.183736  0.002943  3.955118  0.004
C  C81  1  0.34095320  0.39958161  0.64000493  1  0.49905  0.001784  0.05586  0.105091  0.001446  3.931568  0.001
C  C82  1  0.66904471  0.43650681  0.50805731  1  1.590603  0.014819  0.21945  0.580617  0.010517  4.114028  0.012
C  C83  1  0.70776722  0.37306830  0.56843982  1  0.55675  0.018851  -0.010168  0.100527  0.014681  3.949327  0.009
C  C84  1  0.85505224  0.41470770  0.58593652  1  -0.018192  0.031211  -0.160409  -0.355202  0.017818  3.869767  0.024
C  C85  1  0.96803809  0.36330404  0.54474658  1  1.561392  -0.003802  0.218349  0.659517  -0.000966  4.085467  -0.004
C  C86  1  0.89923958  0.30459306  0.37322215  1  0.469987  0.001065  0.061849  0.124726  0.000655  3.909499  0.0
C  C87  1  0.96257588  0.30903934  0.31652477  1  -0.019043  0.004956  -0.081302  -0.175673  0.002859  3.934109  0.004
C  C88  1  0.96591767  0.20359499  0.28001037  1  -0.02183  -0.000683  0.011023  0.101766  -0.000522  3.999396  -0.001
C  C89  1  0.90278464  0.09747123  0.30309254  1  -0.019038  0.005517  -0.084506  -0.184026  0.003046  3.954395  0.004
C  C90  1  0.84160101  0.10010204  0.36029641  1  0.494146  0.002857  0.056223  0.106253  0.00209  3.929431  0.002
C  C91  1  0.82993795  0.06275142  0.00906511  1  1.597971  0.003728  0.220169  0.57941  0.000654  4.114781  0.002
C  C92  1  0.79159934  0.12851770  0.06902562  1  0.563986  0.009618  -0.010791  0.100217  0.009107  3.955517  0.002
C  C93  1  0.64395548  0.08703134  0.08637777  1  -0.068108  0.029442  -0.159828  -0.35362  0.016718  3.867823  0.023
C  C94  1  0.53159735  0.13698115  0.04453381  1  1.559673  -0.003733  0.218726  0.661081  -0.000897  4.084134  -0.004
C  C95  1  0.60139584  0.19505762  0.87293685  1  0.477243  0.001221  0.061372  0.124182  0.000743  3.910303  0.0
C  C96  1  0.53766207  0.19076977  0.81639110  1  -0.025459  0.004792  -0.081102  -0.175319  0.002774  3.934351  0.003
C  C97  1  0.53414826  0.29630123  0.77995671  1  -0.040271  -0.000675  0.010899  0.102065  -0.000514  3.999522  -0.001
C  C98  1  0.59737042  0.40240713  0.80295892  1  -0.047636  0.005329  -0.084638  -0.184035  0.002944  3.954665  0.004
C  C99  1  0.65898823  0.39959318  0.86000685  1  0.498091  0.001783  0.055996  0.105308  0.001444  3.931149  0.001
C  C100  1  0.68768115  0.56985865  0.00509686  1  1.589239  0.014973  0.226493  0.58649  0.010183  4.085189  0.014
C  C101  1  0.72500456  0.63690174  0.06409184  1  0.541098  0.004765  -0.015481  0.081511  0.003269  3.983721  0.003
C  C102  1  0.87097679  0.59579948  0.08375012  1  -0.050479  0.006705  -0.161555  -0.364633  0.004113  3.891118  0.005
C  C103  1  0.98386969  0.64658694  0.04264783  1  1.551823  0.0011  0.23352  0.658584  0.000356  4.040623  0.0
C  C104  1  0.91109067  0.70724591  0.87370979  1  0.462325  0.003148  0.062937  0.114823  0.001783  3.889527  0.002
C  C105  1  0.96930887  0.70620406  0.81612652  1  -0.015885  0.000171  -0.077744  -0.169519  6.1e-05  3.932491  0.0
C  C106  1  0.96966291  0.81330183  0.78076295  1  -0.03383  0.003105  0.010391  0.097591  0.001696  4.005732  0.002
C  C107  1  0.91028267  0.91874118  0.80645799  1  0.030292  -6.3e-05  -0.080309  -0.178147  -6.2e-05  3.942563  0.0
C  C108  1  0.85372506  0.91391465  0.86456918  1  0.399126  0.003797  0.06042  0.102647  0.002056  3.897462  0.003
C  C109  1  0.81244281  0.93009232  0.50526043  1  1.591228  0.005967  0.226863  0.586868  0.006531  4.08463  0.003
C  C110  1  0.77404855  0.86241691  0.56405538  1  0.51732  0.007899  -0.015417  0.081256  0.004247  3.979745  0.007
C  C111  1  0.62777205  0.90319378  0.58361461  1  -0.010023  -0.000583  -0.160736  -0.363102  -0.000802  3.889008  0.0
C  C112  1  0.51515610  0.85286249  0.54231502  1  1.561873  -0.001109  0.232297  0.656925  -0.00063  4.042455  0.0
C  C113  1  0.59002908  0.79320423  0.37341830  1  0.462458  -0.00281  0.063035  0.11501  -0.001736  3.88842  -0.002
C  C114  1  0.53140158  0.79410825  0.31597358  1  -0.007139  0.000121  -0.077539  -0.169426  4.5e-05  3.932823  0.0
C  C115  1  0.53066589  0.68691980  0.28067237  1  -0.042096  -0.003041  0.010641  0.098317  -0.001828  4.004298  -0.002
C  C116  1  0.59015040  0.58153897  0.30629846  1  -0.026803  0.00039  -0.080202  -0.177442  0.000175  3.942109  0.0
C  C117  1  0.64715188  0.58645662  0.36427397  1  0.462374  -0.001801  0.060404  0.10168  -0.001073  3.898388  -0.001
C  C118  1  0.31231705  0.56984705  0.49491247  1  1.589582  0.014977  0.226502  0.586454  0.010191  4.085484  0.014
C  C119  1  0.27497770  0.63685627  0.43591195  1  0.539465  0.004761  -0.015513  0.08149  0.003268  3.983611  0.003
C  C120  1  0.12900383  0.59574588  0.41625526  1  -0.049434  0.006693  -0.161469  -0.364372  0.004107  3.890941  0.005
C  C121  1  0.01611512  0.64656269  0.45735874  1  1.551253  0.001104  0.233294  0.658106  0.000355  4.040659  0.0
C  C122  1  0.08891983  0.70723043  0.62629141  1  0.462256  0.003143  0.062987  0.114827  0.00178  3.889954  0.002
C  C123  1  0.03073482  0.70619357  0.68387695  1  -0.015643  0.000172  -0.07777  -0.169533  6.2e-05  3.931706  0.0
C  C124  1  0.03040371  0.81331047  0.71925977  1  0.007636  0.003082  0.010101  0.09712  0.001695  4.005057  0.002
C  C125  1  0.08976492  0.91873802  0.69356305  1  0.033863  -6.2e-05  -0.080362  -0.1778  -6.1e-05  3.942428  0.0
C  C126  1  0.14629959  0.91390450  0.63543864  1  0.395319  0.003797  0.060358  0.102292  0.002056  3.897525  0.003
C  C127  1  0.18757922  0.93010886  0.99475568  1  1.591906  0.005979  0.227075  0.586637  0.00654  4.084668  0.003
C  C128  1  0.22598130  0.86247115  0.93594897  1  0.516869  0.007891  -0.015904  0.080938  0.004241  3.979676  0.007
C  C129  1  0.37225434  0.90321555  0.91638360  1  -0.010678  -0.000578  -0.160849  -0.363027  -0.000799  3.889183  0.0
C  C130  1  0.48485777  0.85285126  0.95768382  1  1.562433  -0.001108  0.232301  0.656999  -0.000627  4.042872  0.0
C  C131  1  0.40995585  0.79320560  0.12658227  1  0.462321  -0.002809  0.06307  0.115011  -0.001735  3.888545  -0.002
C  C132  1  0.46857081  0.79410980  0.18403201  1  -0.007229  0.000119  -0.077524  -0.169391  4.4e-05  3.933026  0.0
C  C133  1  0.46933926  0.68691760  0.21932078  1  0.000856  -0.003018  0.010598  0.097917  -0.001826  4.004888  -0.002
C  C134  1  0.40983976  0.58155074  0.19369228  1  -0.026387  0.000388  -0.08014  -0.177505  0.000174  3.942386  0.0
C  C135  1  0.35283335  0.58648019  0.13571770  1  0.476059  -0.001799  0.060479  0.102169  -0.001071  3.898629  -0.001
N  N136  1  0.16011751  0.20201843  0.10531282  1  -1.230811  0.08358  -0.309482  -0.224309  0.04917  3.496521  0.066
N  N137  1  0.33898699  0.29756384  0.60572036  1  -1.236884  0.081554  -0.310238  -0.22438  0.048179  3.500287  0.064
N  N138  1  0.83990285  0.20201242  0.39467487  1  -1.230886  0.083535  -0.30945  -0.22438  0.04914  3.495632  0.066
N  N139  1  0.66097914  0.29757072  0.89428401  1  -1.236603  0.081544  -0.310239  -0.224583  0.048174  3.500423  0.064
N  N140  1  0.85389163  0.80952908  0.89716325  1  -1.18457  0.003494  -0.319583  -0.17931  0.000984  3.58256  0.001
N  N141  1  0.64744003  0.69096376  0.39675031  1  -1.187578  -0.004405  -0.319536  -0.178881  -0.001737  3.584954  -0.001
N  N142  1  0.14611683  0.80950281  0.60284399  1  -1.184843  0.003495  -0.319619  -0.179152  0.000985  3.582556  0.001
N  N143  1  0.35256138  0.69097213  0.10324149  1  -1.187607  -0.004416  -0.319679  -0.179276  -0.001744  3.585503  -0.001
O  O144  1  0.32273176  0.37084217  0.03962927  1  -1.117423  0.116549  -0.291123  -0.531945  0.064894  2.311396  0.104
O  O145  1  0.29797308  0.24602848  0.93858436  1  -0.967224  0.440498  -0.327245  -0.458406  0.241334  2.191181  0.369
O  O146  1  0.05892705  0.28794609  0.99711515  1  -1.133058  0.099114  -0.28846  -0.548129  0.055957  2.385227  0.092
O  O147  1  0.36312176  0.54834988  0.98881839  1  -1.12807  0.085184  -0.298675  -0.513589  0.046585  2.367388  0.072
O  O148  1  0.90861339  0.40073105  0.94457803  1  -1.148911  0.10389  -0.319242  -0.587228  0.058941  2.268003  0.09
O  O149  1  0.17859438  0.12660529  0.53911100  1  -1.124492  0.090007  -0.290877  -0.531186  0.050539  2.311767  0.081
O  O150  1  0.20225363  0.25501957  0.43885369  1  -0.974982  0.427779  -0.327772  -0.459217  0.234449  2.201114  0.359
O  O151  1  0.44100541  0.21161597  0.49757902  1  -1.136185  0.098382  -0.288238  -0.548226  0.055671  2.387699  0.091
O  O152  1  0.14000706  0.95066002  0.48625953  1  -1.123333  -0.019314  -0.296356  -0.508611  -0.012841  2.366907  -0.018
O  O153  1  0.59173507  0.09887915  0.44510961  1  -1.145451  0.103977  -0.319665  -0.588743  0.058947  2.268016  0.09
O  O154  1  0.67727274  0.37079800  0.46035937  1  -1.116898  0.116593  -0.291145  -0.532086  0.064915  2.311407  0.104
O  O155  1  0.70206632  0.24598884  0.56144019  1  -0.966882  0.440515  -0.327181  -0.458444  0.241327  2.190654  0.369
O  O156  1  0.94107156  0.28796007  0.50290009  1  -1.133017  0.099109  -0.288457  -0.548113  0.055963  2.385519  0.092
O  O157  1  0.63682462  0.54829939  0.51116373  1  -1.129192  0.085236  -0.298614  -0.513377  0.046613  2.367167  0.072
O  O158  1  0.09137531  0.40074803  0.55543056  1  -1.149778  0.103924  -0.31914  -0.587076  0.058953  2.267843  0.09
O  O159  1  0.82141582  0.12661397  0.96087876  1  -1.124423  0.089996  -0.291004  -0.531383  0.050538  2.311943  0.081
O  O160  1  0.79774062  0.25502700  0.06115751  1  -0.975002  0.427704  -0.327783  -0.459194  0.2344  2.201365  0.359
O  O161  1  0.55901026  0.21165246  0.00243785  1  -1.136213  0.098389  -0.288352  -0.548357  0.055674  2.388412  0.091
O  O162  1  0.85999688  0.95067290  0.01372645  1  -1.123255  -0.019338  -0.29621  -0.508489  -0.012855  2.366812  -0.018
O  O163  1  0.40826268  0.09893190  0.05488979  1  -1.145848  0.103985  -0.319516  -0.588553  0.058951  2.268748  0.09
O  O164  1  0.69646722  0.63288727  0.95623967  1  -1.075507  -0.076235  -0.280035  -0.493865  -0.046744  2.30348  -0.069
O  O165  1  0.71575551  0.76369115  0.05611351  1  -0.927099  0.061637  -0.341979  -0.465577  0.031893  2.197583  0.051
O  O166  1  0.95589423  0.71898777  0.99927525  1  -1.061999  -0.04366  -0.261847  -0.47378  -0.027088  2.412392  -0.04
O  O167  1  0.65587283  0.45784060  0.00629487  1  -1.139994  0.107341  -0.29447  -0.514244  0.059917  2.398298  0.089
O  O168  1  0.10763630  0.61333337  0.05425196  1  -1.097853  0.046163  -0.288488  -0.524719  0.025827  2.263269  0.042
O  O169  1  0.80347984  0.86772243  0.45623097  1  -1.079222  0.118647  -0.279538  -0.494131  0.065222  2.303637  0.106
O  O170  1  0.78386794  0.73562853  0.55571459  1  -0.93268  -0.028407  -0.341897  -0.46645  -0.015766  2.19723  -0.023
O  O171  1  0.54362370  0.78099170  0.49883626  1  -1.069423  0.048729  -0.261389  -0.473806  0.02758  2.410931  0.044
O  O172  1  0.84550016  0.04189617  0.50715595  1  -1.140374  0.118229  -0.294699  -0.515677  0.066101  2.389128  0.098
O  O173  1  0.39132464  0.88605008  0.55410264  1  -1.096236  -0.043464  -0.287935  -0.523122  -0.026833  2.263049  -0.04
O  O174  1  0.30352431  0.63288484  0.54376613  1  -1.07566  -0.076132  -0.280042  -0.493816  -0.046684  2.303506  -0.069
O  O175  1  0.28421874  0.76365896  0.44386051  1  -0.926268  0.061702  -0.341917  -0.46571  0.031923  2.19722  0.051
O  O176  1  0.04408241  0.71900554  0.50071830  1  -1.062028  -0.043745  -0.261609  -0.473399  -0.027137  2.412361  -0.04
O  O177  1  0.34414340  0.45783449  0.49372519  1  -1.140163  0.10734  -0.294422  -0.51414  0.059912  2.398487  0.089
O  O178  1  0.89234356  0.61330451  0.44575625  1  -1.097475  0.046052  -0.288417  -0.52463  0.025766  2.263314  0.042
O  O179  1  0.19655909  0.86771531  0.04378002  1  -1.079081  0.118527  -0.279511  -0.493945  0.065161  2.303609  0.106
O  O180  1  0.21615967  0.73567476  0.94426994  1  -0.931875  -0.028486  -0.341732  -0.466388  -0.015809  2.196642  -0.023
O  O181  1  0.45636010  0.78099522  0.00115970  1  -1.069611  0.048875  -0.261371  -0.473837  0.02766  2.411018  0.044
O  O182  1  0.15449474  0.04189950  0.99286973  1  -1.140904  0.118095  -0.294806  -0.515453  0.066027  2.388897  0.098
O  O183  1  0.60869625  0.88600395  0.94590366  1  -1.09632  -0.043379  -0.287915  -0.523129  -0.026784  2.263866  -0.04
