# generated using pymatgen
data_HgH8C12(NO2)2
_symmetry_space_group_name_H-M   'P 1'
_cell_length_a   5.70469556
_cell_length_b   7.70311928
_cell_length_c   12.52589938
_cell_angle_alpha   90.00082215
_cell_angle_beta   89.99924545
_cell_angle_gamma   92.77071525
_symmetry_Int_Tables_number   1
_chemical_formula_structural   HgH8C12(NO2)2
_chemical_formula_sum   'Hg2 H16 C24 N4 O8'
_cell_volume   549.79402524
_cell_formula_units_Z   2
loop_
 _symmetry_equiv_pos_site_id
 _symmetry_equiv_pos_as_xyz
  1  'x, y, z'
loop_
 _atom_site_type_symbol
 _atom_site_label
 _atom_site_symmetry_multiplicity
 _atom_site_fract_x
 _atom_site_fract_y
 _atom_site_fract_z
 _atom_site_occupancy
 _atom_site_hle17_bader_spin_density
 _atom_site_hle17_ddec_charge
 _atom_site_hle17_ddec_spin_density
 _atom_site_hle17_ddec_sum_bond_order
 _atom_site_hle17_magmom
 _atom_site_hse06_10hf_bader_spin_density
 _atom_site_hse06_10hf_ddec_charge
 _atom_site_hse06_10hf_ddec_spin_density
 _atom_site_hse06_10hf_ddec_sum_bond_order
 _atom_site_hse06_10hf_magmom
 _atom_site_hse06_bader_spin_density
 _atom_site_hse06_ddec_charge
 _atom_site_hse06_ddec_spin_density
 _atom_site_hse06_ddec_sum_bond_order
 _atom_site_hse06_magmom
 _atom_site_pbe_bader_spin_density
 _atom_site_pbe_cm5_charge
 _atom_site_pbe_ddec_charge
 _atom_site_pbe_ddec_spin_density
 _atom_site_pbe_ddec_sum_bond_order
 _atom_site_pbe_magmom
Hg  Hg0  1  0.00000746  0.99999417  0.00000214  1  0  0.920348  0  1.783711  0  0  0.745164  0  2.21943  0  0  0.806027  0  2.180307  0  0  0.701277  0.702444  0  2.246023  0
Hg  Hg1  1  0.00000853  0.50000781  0.49999830  1  0  0.920552  0  1.78371  0  0  0.745255  0  2.219493  0  0  0.80611  0  2.18037  0  0  0.701322  0.70254  0  2.246076  0
H  H2  1  0.56465623  0.80140221  0.29707022  1  0  0.116613  0  0.95423  0  0  0.124629  0  1.019398  0  0  0.12827  0  1.017396  0  0  0.109188  0.12194  0  1.02105  0
H  H3  1  0.43532802  0.69860300  0.79705984  1  0  0.116585  0  0.954242  0  0  0.12457  0  1.01943  0  0  0.128213  0  1.017428  0  0  0.109157  0.121897  0  1.021068  0
H  H4  1  0.43535826  0.19859602  0.70294457  1  0  0.116664  0  0.954323  0  0  0.124651  0  1.019514  0  0  0.128291  0  1.017513  0  0  0.109182  0.12196  0  1.021168  0
H  H5  1  0.56464410  0.30138974  0.20292621  1  0  0.116571  0  0.954241  0  0  0.1246  0  1.019406  0  0  0.128239  0  1.017411  0  0  0.109184  0.121925  0  1.021047  0
H  H6  1  0.32697342  0.89536031  0.45119850  1  0  0.110849  0  0.961719  0  0  0.118877  0  1.024171  0  0  0.122986  0  1.020382  0  0  0.109027  0.11578  0  1.027076  0
H  H7  1  0.67301443  0.60465351  0.95119046  1  0  0.110839  0  0.96185  0  0  0.118903  0  1.024266  0  0  0.123009  0  1.020483  0  0  0.108985  0.115806  0  1.02717  0
H  H8  1  0.67304070  0.10466389  0.54881230  1  0  0.110736  0  0.961885  0  0  0.118891  0  1.024188  0  0  0.123001  0  1.020397  0  0  0.108999  0.115794  0  1.027093  0
H  H9  1  0.32693380  0.39531829  0.04880118  1  0  0.110892  0  0.961648  0  0  0.118899  0  1.024107  0  0  0.123006  0  1.020317  0  0  0.109029  0.115802  0  1.027012  0
H  H10  1  0.95351412  0.05365502  0.41345318  1  0  0.120114  0  0.95282  0  0  0.13131  0  1.010679  0  0  0.134365  0  1.009725  0  0  0.113209  0.129055  0  1.011612  0
H  H11  1  0.04648268  0.44635872  0.91344606  1  0  0.120183  0  0.95286  0  0  0.131368  0  1.010749  0  0  0.134424  0  1.009793  0  0  0.11323  0.129114  0  1.011678  0
H  H12  1  0.04650681  0.94636533  0.58654804  1  0  0.120148  0  0.952801  0  0  0.131401  0  1.010608  0  0  0.134455  0  1.009651  0  0  0.113189  0.129145  0  1.011542  0
H  H13  1  0.95349092  0.55362884  0.08655117  1  0  0.120191  0  0.952844  0  0  0.131403  0  1.010682  0  0  0.134462  0  1.009721  0  0  0.113199  0.129148  0  1.011614  0
H  H14  1  0.83778535  0.09800720  0.22520222  1  0  0.092709  0  0.933286  0  0  0.102834  0  0.996863  0  0  0.105281  0  0.99434  0  0  0.122086  0.101002  0  0.998716  0
H  H15  1  0.16220469  0.40198805  0.72519311  1  0  0.092648  0  0.93325  0  0  0.10282  0  0.996737  0  0  0.105269  0  0.994211  0  0  0.122058  0.100936  0  0.998677  0
H  H16  1  0.16221267  0.90197792  0.77480060  1  0  0.092692  0  0.933584  0  0  0.102945  0  0.99699  0  0  0.105393  0  0.99446  0  0  0.122119  0.101102  0  0.998874  0
H  H17  1  0.83779450  0.59801916  0.27480092  1  0  0.092627  0  0.933267  0  0  0.102803  0  0.996775  0  0  0.10525  0  0.994248  0  0  0.122025  0.100902  0  0.998727  0
C  C18  1  0.32583809  0.89415588  0.17983994  1  0  0.092207  0  3.706934  0  0  0.094114  0  3.940829  0  0  0.097116  0  3.96198  0  0  0.113606  0.091964  0  3.926734  0
C  C19  1  0.67414695  0.60584156  0.67984308  1  0  0.092188  0  3.707048  0  0  0.093927  0  3.941026  0  0  0.096923  0  3.962194  0  0  0.113519  0.091775  0  3.926939  0
C  C20  1  0.67416140  0.10582405  0.82016687  1  0  0.091939  0  3.707299  0  0  0.094063  0  3.940934  0  0  0.097055  0  3.962101  0  0  0.113469  0.091915  0  3.926843  0
C  C21  1  0.32586775  0.39416056  0.32015096  1  0  0.092359  0  3.706667  0  0  0.094283  0  3.940474  0  0  0.097296  0  3.961632  0  0  0.113637  0.092132  0  3.926386  0
C  C22  1  0.45775589  0.82580752  0.08353872  1  0  0.603867  0  3.98411  0  0  0.554015  0  4.285212  0  0  0.587734  0  4.27944  0  0  0.1915  0.531134  0  4.288022  0
C  C23  1  0.54226303  0.67418803  0.58352021  1  0  0.603661  0  3.984674  0  0  0.553879  0  4.285725  0  0  0.587598  0  4.279954  0  0  0.191378  0.530998  0  4.288539  0
C  C24  1  0.54225784  0.17417641  0.91646809  1  0  0.603881  0  3.984129  0  0  0.554026  0  4.285137  0  0  0.587749  0  4.279362  0  0  0.191474  0.531142  0  4.287953  0
C  C25  1  0.45775243  0.32582839  0.41646504  1  0  0.603889  0  3.984208  0  0  0.55412  0  4.285155  0  0  0.587806  0  4.279425  0  0  0.191498  0.531241  0  4.287974  0
C  C26  1  0.40338104  0.86772244  0.28395424  1  0  -0.100496  0  3.680825  0  0  -0.126075  0  3.933881  0  0  -0.131489  0  3.954174  0  0  -0.073393  -0.122635  0  3.920504  0
C  C27  1  0.59660879  0.63228252  0.78393738  1  0  -0.10038  0  3.680885  0  0  -0.125783  0  3.933833  0  0  -0.131197  0  3.954123  0  0  -0.07336  -0.122358  0  3.92045  0
C  C28  1  0.59662186  0.13228870  0.71605496  1  0  -0.10039  0  3.680448  0  0  -0.125995  0  3.933434  0  0  -0.131402  0  3.953723  0  0  -0.073314  -0.122556  0  3.920062  0
C  C29  1  0.40337091  0.36772067  0.21604787  1  0  -0.100522  0  3.681041  0  0  -0.126127  0  3.934082  0  0  -0.131546  0  3.95437  0  0  -0.073433  -0.122701  0  3.920699  0
C  C30  1  0.27036920  0.92224142  0.36991922  1  0  0.009203  0  3.668428  0  0  -0.009772  0  3.920847  0  0  -0.005806  0  3.936107  0  0  -0.060148  -0.012219  0  3.910628  0
C  C31  1  0.72961751  0.57777840  0.86991295  1  0  0.009206  0  3.66797  0  0  -0.009856  0  3.920401  0  0  -0.005885  0  3.935655  0  0  -0.06002  -0.012306  0  3.910188  0
C  C32  1  0.72966857  0.07776605  0.63008998  1  0  0.009205  0  3.668468  0  0  -0.009838  0  3.920896  0  0  -0.005876  0  3.936161  0  0  -0.060078  -0.012282  0  3.91067  0
C  C33  1  0.27035091  0.42221042  0.13007630  1  0  0.009236  0  3.667823  0  0  -0.009696  0  3.920262  0  0  -0.005718  0  3.935508  0  0  -0.059995  -0.012149  0  3.910053  0
C  C34  1  0.06326927  0.00576892  0.35002019  1  0  -0.10338  0  3.686545  0  0  -0.11677  0  3.937284  0  0  -0.123449  0  3.957352  0  0  -0.075915  -0.11259  0  3.923992  0
C  C35  1  0.93672534  0.49423951  0.85000752  1  0  -0.103523  0  3.686691  0  0  -0.11696  0  3.937539  0  0  -0.123646  0  3.957608  0  0  -0.076011  -0.112766  0  3.924223  0
C  C36  1  0.93673013  0.99424219  0.64998582  1  0  -0.103364  0  3.686536  0  0  -0.116858  0  3.937359  0  0  -0.123535  0  3.95743  0  0  -0.075932  -0.112671  0  3.924061  0
C  C37  1  0.06323599  0.50574797  0.14998812  1  0  -0.103417  0  3.686497  0  0  -0.116866  0  3.937279  0  0  -0.123551  0  3.95734  0  0  -0.075965  -0.112675  0  3.923966  0
C  C38  1  0.99616268  0.03158737  0.24482872  1  0  0.135307  0  3.674001  0  0  0.096421  0  3.92853  0  0  0.105187  0  3.947092  0  0  0.053614  0.090714  0  3.915985  0
C  C39  1  0.00382919  0.46841873  0.74482447  1  0  0.13539  0  3.674046  0  0  0.09652  0  3.928572  0  0  0.105288  0  3.947133  0  0  0.053642  0.090834  0  3.916024  0
C  C40  1  0.00386893  0.96840317  0.75518368  1  0  0.135274  0  3.673361  0  0  0.096327  0  3.928042  0  0  0.1051  0  3.946589  0  0  0.053529  0.090616  0  3.9155  0
C  C41  1  0.99617533  0.53158982  0.25517355  1  0  0.135349  0  3.67416  0  0  0.096463  0  3.928716  0  0  0.105233  0  3.947278  0  0  0.053644  0.090792  0  3.916177  0
N  N42  1  0.12519250  0.97592076  0.16297114  1  0  -0.285437  0  3.373545  0  0  -0.189921  0  3.614916  0  0  -0.214187  0  3.640463  0  0  -0.300611  -0.173776  0  3.597582  0
N  N43  1  0.87481048  0.52407643  0.66296421  1  0  -0.285504  0  3.373237  0  0  -0.189915  0  3.614619  0  0  -0.214184  0  3.640167  0  0  -0.300582  -0.173763  0  3.597275  0
N  N44  1  0.87480060  0.02407082  0.83703647  1  0  -0.285126  0  3.373173  0  0  -0.18982  0  3.614671  0  0  -0.214086  0  3.640219  0  0  -0.300463  -0.173672  0  3.597341  0
N  N45  1  0.12520518  0.47594389  0.33703223  1  0  -0.285647  0  3.373068  0  0  -0.190134  0  3.614472  0  0  -0.214406  0  3.640012  0  0  -0.300695  -0.173981  0  3.597123  0
O  O46  1  0.66337003  0.77927040  0.10167225  1  0  -0.635143  0  1.963294  0  0  -0.590209  0  2.212067  0  0  -0.616581  0  2.204532  0  0  -0.328661  -0.571247  0  2.216382  0
O  O47  1  0.33662208  0.72072407  0.60167230  1  0  -0.635352  0  1.962881  0  0  -0.590422  0  2.21163  0  0  -0.616806  0  2.204096  0  0  -0.328761  -0.571443  0  2.215928  0
O  O48  1  0.33661116  0.22069512  0.89833456  1  0  -0.635236  0  1.962963  0  0  -0.590324  0  2.211741  0  0  -0.616701  0  2.204197  0  0  -0.328733  -0.571352  0  2.216058  0
O  O49  1  0.66339401  0.27930405  0.39832493  1  0  -0.635283  0  1.962908  0  0  -0.590436  0  2.211713  0  0  -0.616804  0  2.204184  0  0  -0.328781  -0.571453  0  2.215996  0
O  O50  1  0.35081162  0.81729963  0.99452033  1  0  -0.616645  0  1.96287  0  0  -0.562107  0  2.208417  0  0  -0.592514  0  2.20171  0  0  -0.324157  -0.540413  0  2.211976  0
O  O51  1  0.64918670  0.68270093  0.49452508  1  0  -0.616211  0  1.96394  0  0  -0.5617  0  2.209476  0  0  -0.59209  0  2.202765  0  0  -0.323887  -0.540017  0  2.213033  0
O  O52  1  0.64919713  0.18268946  0.00547929  1  0  -0.616521  0  1.963256  0  0  -0.561947  0  2.208712  0  0  -0.592349  0  2.202001  0  0  -0.324038  -0.540256  0  2.212274  0
O  O53  1  0.35081893  0.31732842  0.50546576  1  0  -0.616542  0  1.963522  0  0  -0.561949  0  2.208901  0  0  -0.592328  0  2.202198  0  0  -0.324043  -0.540267  0  2.212463  0
