# generated using pymatgen
data_ZnH12C22N3O8
_symmetry_space_group_name_H-M   'P 1'
_cell_length_a   15.91450904
_cell_length_b   17.26625766
_cell_length_c   17.97687735
_cell_angle_alpha   89.77969964
_cell_angle_beta   92.40685019
_cell_angle_gamma   95.69395666
_symmetry_Int_Tables_number   1
_chemical_formula_structural   ZnH12C22N3O8
_chemical_formula_sum   'Zn2 H24 C44 N6 O16'
_cell_volume   4911.04940940
_cell_formula_units_Z   2
loop_
 _symmetry_equiv_pos_site_id
 _symmetry_equiv_pos_as_xyz
  1  'x, y, z'
loop_
 _atom_site_type_symbol
 _atom_site_label
 _atom_site_symmetry_multiplicity
 _atom_site_fract_x
 _atom_site_fract_y
 _atom_site_fract_z
 _atom_site_occupancy
 _atom_site_pbe_bader_charge
 _atom_site_pbe_bader_spin_density
 _atom_site_pbe_cm5_charge
 _atom_site_pbe_ddec_charge
 _atom_site_pbe_ddec_spin_density
 _atom_site_pbe_ddec_sum_bond_order
 _atom_site_pbe_magmom
Zn  Zn0  1  0.41089545  0.49612654  0.49661001  1  1.280488  0  0.667197  0.814502  0  2.435757  0
Zn  Zn1  1  0.58933379  0.50381842  0.50331343  1  1.286445  0  0.667479  0.815006  0  2.43376  0
H  H2  1  0.71697004  0.42671472  0.42383703  1  0.121225  0  0.133138  0.108124  0  0.961517  0
H  H3  1  0.87625065  0.42961906  0.42438077  1  0.136015  0  0.122224  0.130312  0  0.995059  0
H  H4  1  0.88878951  0.60101917  0.59959693  1  0.12858  0  0.126481  0.137513  0  0.970373  0
H  H5  1  0.72840991  0.59098433  0.59188585  1  0.138919  0  0.133755  0.109134  0  0.959713  0
H  H6  1  0.11146480  0.40031180  0.39927725  1  0.14506  0  0.126603  0.137892  0  0.969675  0
H  H7  1  0.12394581  0.56950643  0.57647774  1  0.135992  0  0.123212  0.132255  0  0.992936  0
H  H8  1  0.28318772  0.57236571  0.57707403  1  0.12335  0  0.133447  0.109999  0  0.959723  0
H  H9  1  0.27176278  0.41028820  0.40701092  1  0.126094  0  0.134482  0.109354  0  0.959288  0
H  H10  1  0.62109277  0.25908529  0.50501047  1  0.114087  0  0.104331  0.109161  0  0.998521  0
H  H11  1  0.61380481  0.11283336  0.50513267  1  0.10562  0  0.105112  0.105329  0  1.017121  0
H  H12  1  0.34267790  0.10000682  0.49342311  1  0.115  0  0.107239  0.10918  0  0.994102  0
H  H13  1  0.35017667  0.24669627  0.49292458  1  0.098052  0  0.10463  0.109622  0  0.997214  0
H  H14  1  0.65712344  0.89988202  0.50610175  1  0.115971  0  0.107103  0.109332  0  0.993836  0
H  H15  1  0.38600314  0.88700512  0.49613249  1  0.107183  0  0.105181  0.105276  0  1.017934  0
H  H16  1  0.37871301  0.74079238  0.49637140  1  0.110797  0  0.104356  0.108881  0  0.998236  0
H  H17  1  0.64959053  0.75319074  0.50605719  1  0.09766  0  0.104712  0.109614  0  0.997476  0
H  H18  1  0.36473986  0.48307707  0.73366533  1  0.141522  0  0.120502  0.131804  0  0.985683  0
H  H19  1  0.63624154  0.51572129  0.74422038  1  0.128751  0  0.119301  0.130154  0  0.989138  0
H  H20  1  0.36551155  0.50573415  0.25606244  1  0.145641  0  0.119825  0.131078  0  0.985854  0
H  H21  1  0.63440614  0.49500231  0.26588592  1  0.150686  0  0.11903  0.130519  0  0.989556  0
H  H22  1  0.61485727  0.58843720  0.96227734  1  0.600266  0  0.319971  0.353799  0  0.915405  0
H  H23  1  0.38373427  0.40925373  0.95221335  1  0.604337  0  0.32244  0.356892  0  0.90843  0
H  H24  1  0.60466965  0.42041991  0.04584472  1  0.621245  0  0.318898  0.352758  0  0.915968  0
H  H25  1  0.39357434  0.58182313  0.03959476  1  0.596817  0  0.321937  0.355168  0  0.909982  0
C  C26  1  0.49086990  0.34823600  0.49830930  1  1.525929  0  0.213945  0.590206  0  4.172347  0
C  C27  1  0.50000110  0.50018905  0.35367874  1  1.61407  0  0.216017  0.587505  0  4.180901  0
C  C28  1  0.50892726  0.65167301  0.50163871  1  1.522296  0  0.21435  0.590871  0  4.172812  0
C  C29  1  0.50066823  0.49958117  0.64624229  1  1.619048  0  0.216697  0.588748  0  4.182112  0
C  C30  1  0.75803094  0.46403767  0.46174440  1  0.524531  0  0.067336  0.117301  0  3.901624  0
C  C31  1  0.84527833  0.46554411  0.46225879  1  -0.0258  0  -0.064652  -0.176078  0  3.903671  0
C  C32  1  0.89326836  0.51555963  0.51276720  1  0.36998  0  0.109401  0.202073  0  4.02469  0
C  C33  1  0.85207327  0.56194536  0.56032107  1  0.048928  0  -0.059969  -0.174746  0  3.898847  0
C  C34  1  0.76421723  0.55656539  0.55623356  1  0.422044  0  0.069577  0.117001  0  3.897895  0
C  C35  1  0.14813971  0.43899274  0.43891679  1  0.029366  0  -0.059232  -0.174104  0  3.898581  0
C  C36  1  0.10693348  0.48471076  0.48709323  1  0.357135  0  0.10876  0.201654  0  4.025821  0
C  C37  1  0.15492406  0.53397240  0.53824751  1  -0.006114  0  -0.065934  -0.178845  0  3.903692  0
C  C38  1  0.24216926  0.53547006  0.53877407  1  0.494987  0  0.067159  0.115298  0  3.903148  0
C  C39  1  0.23597693  0.44432543  0.44303590  1  0.433556  0  0.068796  0.11606  0  3.899494  0
C  C40  1  0.48602527  0.26115886  0.49847058  1  0.060192  0  -0.013349  -0.025176  0  3.945986  0
C  C41  1  0.56053711  0.22348890  0.50209339  1  -0.116731  0  -0.082488  -0.082601  0  3.975141  0
C  C42  1  0.55677551  0.14294056  0.50232439  1  0.08083  0  -0.083206  -0.138446  0  3.948889  0
C  C43  1  0.47755453  0.09850414  0.49908935  1  0.256111  0  0.0866  0.170636  0  4.043693  0
C  C44  1  0.40307744  0.13593061  0.49575228  1  -0.042419  0  -0.079271  -0.139282  0  3.961308  0
C  C45  1  0.40730200  0.21673066  0.49537753  1  -0.028274  0  -0.084104  -0.086258  0  3.980347  0
C  C46  1  0.59672234  0.86396146  0.50403619  1  -0.038835  0  -0.079271  -0.139792  0  3.960772  0
C  C47  1  0.52224592  0.90139437  0.50123038  1  0.256564  0  0.086725  0.171684  0  4.043061  0
C  C48  1  0.44304516  0.85693498  0.49846004  1  0.079444  0  -0.082714  -0.138331  0  3.950905  0
C  C49  1  0.43925872  0.77639569  0.49875464  1  -0.118879  0  -0.083363  -0.082813  0  3.976387  0
C  C50  1  0.51376154  0.73873555  0.50166953  1  0.057763  0  -0.013217  -0.025666  0  3.947525  0
C  C51  1  0.59247315  0.78316029  0.50419920  1  -0.025095  0  -0.083823  -0.085664  0  3.979779  0
C  C52  1  0.50050392  0.49954388  0.73000754  1  -0.036162  0  0.000407  -0.002347  0  3.930269  0
C  C53  1  0.42426166  0.48996011  0.76624383  1  -0.024919  0  -0.05851  -0.078611  0  3.909852  0
C  C54  1  0.42296455  0.48755282  0.84373797  1  0.017702  0  -0.007773  -0.091665  0  3.94399  0
C  C55  1  0.50015164  0.49997144  0.88698262  1  0.09661  0  -0.001525  0.072439  0  4.104397  0
C  C56  1  0.57756526  0.51225431  0.84966804  1  -0.063794  0  -0.007445  -0.090752  0  3.938714  0
C  C57  1  0.57652894  0.50929143  0.77212464  1  0.051145  0  -0.057269  -0.076763  0  3.910173  0
C  C58  1  0.49981900  0.50006066  0.96582741  1  -0.123337  0  -0.041612  -0.134762  0  4.185617  0
C  C59  1  0.49975371  0.49985494  0.03408499  1  -0.341081  0  -0.041939  -0.135971  0  4.186155  0
C  C60  1  0.49980016  0.49984720  0.11294339  1  0.120989  0  -0.001048  0.072879  0  4.10417  0
C  C61  1  0.42364158  0.50598731  0.15041226  1  -0.093656  0  -0.006992  -0.09016  0  3.941775  0
C  C62  1  0.42454635  0.50367023  0.22797709  1  0.046756  0  -0.057563  -0.077917  0  3.909862  0
C  C63  1  0.49991448  0.50020248  0.26992030  1  -0.034855  0  0.000764  -0.000924  0  3.930069  0
C  C64  1  0.57521110  0.49659413  0.23351941  1  -0.041776  0  -0.05778  -0.079132  0  3.912029  0
C  C65  1  0.57602994  0.49371373  0.15604048  1  0.026553  0  -0.006959  -0.088776  0  3.938918  0
C  C66  1  0.66382588  0.52887641  0.88745608  1  1.538338  0  0.229258  0.569058  0  4.126365  0
C  C67  1  0.33662877  0.47235351  0.87519532  1  1.529685  0  0.229606  0.571147  0  4.128659  0
C  C68  1  0.66084480  0.48409448  0.12476434  1  1.528572  0  0.227528  0.565933  0  4.130322  0
C  C69  1  0.33871337  0.51416148  0.11254950  1  1.551103  0  0.22811  0.567669  0  4.130959  0
N  N70  1  0.71844943  0.50866926  0.50778259  1  -1.236147  0  -0.313259  -0.191879  0  3.50522  0
N  N71  1  0.98287890  0.52431627  0.51901728  1  -0.459323  0  -0.125991  -0.11151  0  3.222792  0
N  N72  1  0.01731364  0.47604503  0.48079155  1  -0.492748  0  -0.125753  -0.111128  0  3.224221  0
N  N73  1  0.28174241  0.49151202  0.49209533  1  -1.214035  0  -0.312647  -0.19033  0  3.506838  0
N  N74  1  0.46593488  0.01635581  0.49905606  1  -0.559445  0  -0.150514  -0.139429  0  3.283503  0
N  N75  1  0.53385268  0.98355171  0.50135219  1  -0.501249  0  -0.150826  -0.140464  0  3.283504  0
O  O76  1  0.42118352  0.37895685  0.49368755  1  -1.167597  0  -0.318069  -0.55085  0  2.335022  0
O  O77  1  0.56436412  0.38520099  0.50295978  1  -1.165902  0  -0.318342  -0.550278  0  2.333763  0
O  O78  1  0.57156965  0.50088371  0.38786318  1  -1.166779  0  -0.311323  -0.540191  0  2.315119  0
O  O79  1  0.42837427  0.49945619  0.38251397  1  -1.160265  0  -0.311704  -0.539806  0  2.312398  0
O  O80  1  0.57860970  0.62097360  0.50228350  1  -1.164293  0  -0.318078  -0.550287  0  2.334369  0
O  O81  1  0.43542516  0.61468777  0.50076838  1  -1.167971  0  -0.318575  -0.55137  0  2.335338  0
O  O82  1  0.42886387  0.49413390  0.61196097  1  -1.166979  0  -0.312442  -0.541335  0  2.314168  0
O  O83  1  0.57259742  0.50513723  0.61748801  1  -1.168124  0  -0.311184  -0.539436  0  2.31527  0
O  O84  1  0.67076127  0.57616442  0.94819664  1  -1.096337  0  -0.334159  -0.456243  0  2.228807  0
O  O85  1  0.72622838  0.50475135  0.86283562  1  -1.092789  0  -0.275954  -0.434198  0  2.029953  0
O  O86  1  0.32844565  0.42403957  0.93493843  1  -1.093813  0  -0.331789  -0.455915  0  2.228539  0
O  O87  1  0.27520789  0.49895893  0.84656000  1  -1.091999  0  -0.277058  -0.435831  0  2.028415  0
O  O88  1  0.66229322  0.43725844  0.06426902  1  -1.110844  0  -0.332077  -0.453763  0  2.230785  0
O  O89  1  0.72636455  0.51340195  0.15433557  1  -1.107706  0  -0.276406  -0.434258  0  2.030739  0
O  O90  1  0.33627479  0.56226044  0.05259122  1  -1.087098  0  -0.330277  -0.452702  0  2.230008  0
O  O91  1  0.27378386  0.48225584  0.13632375  1  -1.102862  0  -0.276187  -0.434036  0  2.028594  0
