# generated using pymatgen
data_MgH12C16(N5O2)2
_symmetry_space_group_name_H-M   'P 1'
_cell_length_a   8.54338194
_cell_length_b   9.75389100
_cell_length_c   12.11440137
_cell_angle_alpha   112.15996629
_cell_angle_beta   110.62989604
_cell_angle_gamma   89.99107857
_symmetry_Int_Tables_number   1
_chemical_formula_structural   MgH12C16(N5O2)2
_chemical_formula_sum   'Mg2 H24 C32 N20 O8'
_cell_volume   864.66554619
_cell_formula_units_Z   2
loop_
 _symmetry_equiv_pos_site_id
 _symmetry_equiv_pos_as_xyz
  1  'x, y, z'
loop_
 _atom_site_type_symbol
 _atom_site_label
 _atom_site_symmetry_multiplicity
 _atom_site_fract_x
 _atom_site_fract_y
 _atom_site_fract_z
 _atom_site_occupancy
 _atom_site_hle17_bader_spin_density
 _atom_site_hle17_ddec_charge
 _atom_site_hle17_ddec_spin_density
 _atom_site_hle17_ddec_sum_bond_order
 _atom_site_hle17_magmom
 _atom_site_hse06_10hf_bader_spin_density
 _atom_site_hse06_10hf_ddec_charge
 _atom_site_hse06_10hf_ddec_spin_density
 _atom_site_hse06_10hf_ddec_sum_bond_order
 _atom_site_hse06_10hf_magmom
 _atom_site_hse06_bader_spin_density
 _atom_site_hse06_ddec_charge
 _atom_site_hse06_ddec_spin_density
 _atom_site_hse06_ddec_sum_bond_order
 _atom_site_hse06_magmom
 _atom_site_pbe_bader_spin_density
 _atom_site_pbe_cm5_charge
 _atom_site_pbe_ddec_charge
 _atom_site_pbe_ddec_spin_density
 _atom_site_pbe_ddec_sum_bond_order
 _atom_site_pbe_magmom
Mg  Mg0  1  0.54661270  0.24995156  0.00003893  1  0  1.416132  0  1.248327  0  0  1.308577  0  1.493975  0  0  1.333053  0  1.460555  0  0  0.823932  1.291767  0  1.516408  0
Mg  Mg1  1  0.45338639  0.75004966  0.99996158  1  0  1.416101  0  1.248447  0  0  1.308551  0  1.494033  0  0  1.33303  0  1.460606  0  0  0.823916  1.29174  0  1.516464  0
H  H2  1  0.29079788  0.26441133  0.16120829  1  0  0.133253  0  0.946253  0  0  0.138455  0  1.018093  0  0  0.141406  0  1.015833  0  0  0.127969  0.136383  0  1.019765  0
H  H3  1  0.12990252  0.23560970  0.83886834  1  0  0.133871  0  0.945754  0  0  0.138896  0  1.017723  0  0  0.141884  0  1.0154  0  0  0.128039  0.136783  0  1.019459  0
H  H4  1  0.70920122  0.73558989  0.83879305  1  0  0.133684  0  0.944829  0  0  0.138472  0  1.01809  0  0  0.141423  0  1.01583  0  0  0.12799  0.1364  0  1.019762  0
H  H5  1  0.87010033  0.76439152  0.16113229  1  0  0.133837  0  0.945744  0  0  0.138931  0  1.017682  0  0  0.141886  0  1.015391  0  0  0.128049  0.136817  0  1.019419  0
H  H6  1  0.09129004  0.15215904  0.05062259  1  0  0.135646  0  0.918817  0  0  0.141982  0  0.98795  0  0  0.144673  0  0.985784  0  0  0.131005  0.140053  0  0.989592  0
H  H7  1  0.04100064  0.34793625  0.94953730  1  0  0.135808  0  0.918908  0  0  0.141886  0  0.988292  0  0  0.144584  0  0.986116  0  0  0.130968  0.139958  0  0.989914  0
H  H8  1  0.90870780  0.84784218  0.94937762  1  0  0.136075  0  0.917313  0  0  0.142008  0  0.987946  0  0  0.144698  0  0.985782  0  0  0.131033  0.140079  0  0.989588  0
H  H9  1  0.95899990  0.65206609  0.05046309  1  0  0.135851  0  0.918891  0  0  0.141924  0  0.98827  0  0  0.144621  0  0.986092  0  0  0.130975  0.139995  0  0.989892  0
H  H10  1  0.55283699  0.25705056  0.56811107  1  0  0.110498  0  0.955642  0  0  0.119085  0  1.018778  0  0  0.121867  0  1.018905  0  0  0.107751  0.117164  0  1.01876  0
H  H11  1  0.98454303  0.24259644  0.43187046  1  0  0.109571  0  0.95652  0  0  0.117999  0  1.019758  0  0  0.120853  0  1.019744  0  0  0.10726  0.116003  0  1.01988  0
H  H12  1  0.44716403  0.74294730  0.43188893  1  0  0.110502  0  0.955739  0  0  0.119099  0  1.018786  0  0  0.121878  0  1.018915  0  0  0.107764  0.117178  0  1.018768  0
H  H13  1  0.01545550  0.75740140  0.56812560  1  0  0.109588  0  0.956532  0  0  0.118024  0  1.019738  0  0  0.120871  0  1.01973  0  0  0.107267  0.116029  0  1.01986  0
H  H14  1  0.65076800  0.31516482  0.80329874  1  0  0.080254  0  0.972408  0  0  0.081957  0  1.04659  0  0  0.08459  0  1.044377  0  0  0.116919  0.080079  0  1.048117  0
H  H15  1  0.84724721  0.18429422  0.19664609  1  0  0.079698  0  0.973561  0  0  0.08169  0  1.047293  0  0  0.084271  0  1.045156  0  0  0.116705  0.079777  0  1.048937  0
H  H16  1  0.34923571  0.68483417  0.19670144  1  0  0.080215  0  0.972439  0  0  0.081997  0  1.04656  0  0  0.084635  0  1.044333  0  0  0.116918  0.080087  0  1.048119  0
H  H17  1  0.15274939  0.81570698  0.80335215  1  0  0.079726  0  0.973551  0  0  0.081709  0  1.047294  0  0  0.084291  0  1.045155  0  0  0.11671  0.079795  0  1.04894  0
H  H18  1  0.24656173  0.02982995  0.74690832  1  0  0.081236  0  0.969682  0  0  0.084867  0  1.043072  0  0  0.087612  0  1.04053  0  0  0.115972  0.082578  0  1.045541  0
H  H19  1  0.49961486  0.46999579  0.25316544  1  0  0.081582  0  0.96854  0  0  0.08477  0  1.042665  0  0  0.087556  0  1.040111  0  0  0.115935  0.082491  0  1.045109  0
H  H20  1  0.75343967  0.97017015  0.25309161  1  0  0.081258  0  0.969687  0  0  0.084886  0  1.043103  0  0  0.087631  0  1.040559  0  0  0.115979  0.082596  0  1.04557  0
H  H21  1  0.50038298  0.53000543  0.74683559  1  0  0.081588  0  0.968591  0  0  0.084758  0  1.0427  0  0  0.087544  0  1.040145  0  0  0.115938  0.082478  0  1.045144  0
H  H22  1  0.12927116  0.95927010  0.50862384  1  0  0.110214  0  0.964714  0  0  0.115368  0  1.036399  0  0  0.118686  0  1.035099  0  0  0.106694  0.112942  0  1.037549  0
H  H23  1  0.62054136  0.54064677  0.49147022  1  0  0.109811  0  0.965332  0  0  0.115148  0  1.036724  0  0  0.118465  0  1.035426  0  0  0.106895  0.112729  0  1.037855  0
H  H24  1  0.87072880  0.04072888  0.49137622  1  0  0.110233  0  0.964763  0  0  0.115401  0  1.036399  0  0  0.118724  0  1.035097  0  0  0.106704  0.112975  0  1.037549  0
H  H25  1  0.37946149  0.45935446  0.50853206  1  0  0.109801  0  0.965295  0  0  0.115144  0  1.036727  0  0  0.118462  0  1.035426  0  0  0.106893  0.112725  0  1.037857  0
C  C26  1  0.30145005  0.03968814  0.03087763  1  0  0.741531  0  3.851412  0  0  0.685384  0  4.165397  0  0  0.718794  0  4.154844  0  0  0.232954  0.662732  0  4.171818  0
C  C27  1  0.27078410  0.46034748  0.96910773  1  0  0.741136  0  3.853285  0  0  0.686066  0  4.165618  0  0  0.719433  0  4.1551  0  0  0.23267  0.663461  0  4.172023  0
C  C28  1  0.69855173  0.96031422  0.96912720  1  0  0.742176  0  3.8491  0  0  0.685521  0  4.165018  0  0  0.718929  0  4.15447  0  0  0.233007  0.66287  0  4.171442  0
C  C29  1  0.72921567  0.53965037  0.03089112  1  0  0.741069  0  3.853395  0  0  0.685976  0  4.165749  0  0  0.719346  0  4.155224  0  0  0.232609  0.66337  0  4.172154  0
C  C30  1  0.21961211  0.15141358  0.11432600  1  0  -0.230083  0  3.58898  0  0  -0.288373  0  3.842458  0  0  -0.290182  0  3.846851  0  0  -0.046535  -0.287133  0  3.839665  0
C  C31  1  0.10556463  0.34862550  0.88573441  1  0  -0.231157  0  3.587641  0  0  -0.289157  0  3.840521  0  0  -0.290948  0  3.84486  0  0  -0.046519  -0.287966  0  3.837865  0
C  C32  1  0.78038466  0.84858878  0.88567758  1  0  -0.217307  0  3.597431  0  0  -0.288439  0  3.842349  0  0  -0.290245  0  3.846738  0  0  -0.046601  -0.287196  0  3.839553  0
C  C33  1  0.89443697  0.65137571  0.11426508  1  0  -0.231229  0  3.587583  0  0  -0.289272  0  3.840478  0  0  -0.291037  0  3.844845  0  0  -0.046558  -0.28808  0  3.837822  0
C  C34  1  0.25637118  0.08268119  0.38404187  1  0  0.235659  0  3.798518  0  0  0.218013  0  4.073773  0  0  0.224921  0  4.088747  0  0  0.217425  0.213351  0  4.06352  0
C  C35  1  0.87222439  0.41712073  0.61597700  1  0  0.235379  0  3.799043  0  0  0.217711  0  4.074506  0  0  0.224648  0  4.089428  0  0  0.217651  0.213024  0  4.064309  0
C  C36  1  0.74363003  0.91731780  0.61595933  1  0  0.237433  0  3.793  0  0  0.217993  0  4.073689  0  0  0.224903  0  4.088658  0  0  0.217376  0.213332  0  4.063439  0
C  C37  1  0.12777683  0.58287824  0.38402172  1  0  0.235435  0  3.799015  0  0  0.217799  0  4.074493  0  0  0.224739  0  4.089415  0  0  0.217663  0.213118  0  4.064285  0
C  C38  1  0.32955761  0.10626903  0.51946962  1  0  0.057982  0  3.796643  0  0  0.074106  0  4.023171  0  0  0.077119  0  4.04518  0  0  0.013743  0.072072  0  4.0081  0
C  C39  1  0.80992632  0.39345195  0.48054585  1  0  0.057971  0  3.795414  0  0  0.073607  0  4.022801  0  0  0.076594  0  4.044826  0  0  0.013177  0.071579  0  4.007793  0
C  C40  1  0.67044485  0.89372995  0.48053024  1  0  0.058063  0  3.796704  0  0  0.074126  0  4.023219  0  0  0.07714  0  4.045226  0  0  0.013795  0.07209  0  4.008151  0
C  C41  1  0.19007239  0.60654703  0.51945307  1  0  0.057946  0  3.795384  0  0  0.073498  0  4.022883  0  0  0.07648  0  4.044915  0  0  0.01314  0.07147  0  4.007873  0
C  C42  1  0.48105527  0.20430084  0.60390582  1  0  -0.1517  0  3.702991  0  0  -0.172636  0  3.952164  0  0  -0.180405  0  3.974495  0  0  -0.084348  -0.167483  0  3.937398  0
C  C43  1  0.87700461  0.29535290  0.39608366  1  0  -0.150233  0  3.700173  0  0  -0.170634  0  3.949225  0  0  -0.178362  0  3.971507  0  0  -0.08339  -0.165466  0  3.934542  0
C  C44  1  0.51894845  0.79569814  0.39609436  1  0  -0.151794  0  3.703194  0  0  -0.172734  0  3.952265  0  0  -0.180498  0  3.974592  0  0  -0.084419  -0.167579  0  3.937489  0
C  C45  1  0.12299431  0.70464717  0.60391234  1  0  -0.150304  0  3.700178  0  0  -0.170701  0  3.949248  0  0  -0.178422  0  3.971534  0  0  -0.083407  -0.165533  0  3.934566  0
C  C46  1  0.53581809  0.23690458  0.73464829  1  0  0.143591  0  3.69729  0  0  0.112658  0  3.957017  0  0  0.119365  0  3.973159  0  0  0.049343  0.108389  0  3.946254  0
C  C47  1  0.80099404  0.26264589  0.26532245  1  0  0.143733  0  3.699733  0  0  0.112484  0  3.959739  0  0  0.119219  0  3.975832  0  0  0.049256  0.108195  0  3.949091  0
C  C48  1  0.46418544  0.76309328  0.26535150  1  0  0.143573  0  3.697315  0  0  0.112574  0  3.957051  0  0  0.119282  0  3.973192  0  0  0.049309  0.10833  0  3.946298  0
C  C49  1  0.19900092  0.73735307  0.73467471  1  0  0.143783  0  3.699779  0  0  0.112524  0  3.959761  0  0  0.119261  0  3.975848  0  0  0.049287  0.108235  0  3.949116  0
C  C50  1  0.30985803  0.07810524  0.70314846  1  0  0.140377  0  3.705649  0  0  0.109789  0  3.96422  0  0  0.116461  0  3.980441  0  0  0.051011  0.10538  0  3.953707  0
C  C51  1  0.60669503  0.42168032  0.29690345  1  0  0.140191  0  3.703517  0  0  0.109974  0  3.96211  0  0  0.116615  0  3.978326  0  0  0.050811  0.105521  0  3.951673  0
C  C52  1  0.69014443  0.92189374  0.29685140  1  0  0.140318  0  3.705691  0  0  0.109729  0  3.964293  0  0  0.1164  0  3.980514  0  0  0.051004  0.105319  0  3.953779  0
C  C53  1  0.39330406  0.57832091  0.70309789  1  0  0.140163  0  3.703577  0  0  0.109973  0  3.962099  0  0  0.116615  0  3.978314  0  0  0.050817  0.105521  0  3.951665  0
C  C54  1  0.24526722  0.03886464  0.57085354  1  0  -0.145873  0  3.686261  0  0  -0.168915  0  3.937695  0  0  -0.175999  0  3.958321  0  0  -0.081823  -0.164063  0  3.923739  0
C  C55  1  0.67432423  0.46097088  0.42921436  1  0  -0.144592  0  3.684875  0  0  -0.167444  0  3.936119  0  0  -0.174586  0  3.956842  0  0  -0.081359  -0.162543  0  3.922157  0
C  C56  1  0.75473313  0.96113659  0.42914729  1  0  -0.145883  0  3.686386  0  0  -0.168924  0  3.937712  0  0  -0.176015  0  3.958345  0  0  -0.081847  -0.164071  0  3.923758  0
C  C57  1  0.32567593  0.53902922  0.57078609  1  0  -0.144522  0  3.684795  0  0  -0.167354  0  3.936044  0  0  -0.174493  0  3.956767  0  0  -0.081334  -0.162452  0  3.922081  0
N  N58  1  0.20483741  0.10912423  0.21301544  1  0  0.263324  0  3.544764  0  0  0.309951  0  3.822949  0  0  0.307317  0  3.84293  0  0  0.002986  0.311424  0  3.8098  0
N  N59  1  0.99203735  0.39095902  0.78708024  1  0  0.265525  0  3.541306  0  0  0.312271  0  3.819354  0  0  0.309657  0  3.839319  0  0  0.004719  0.313734  0  3.806183  0
N  N60  1  0.79516062  0.89087812  0.78698680  1  0  0.217279  0  3.609331  0  0  0.309871  0  3.822942  0  0  0.307237  0  3.842923  0  0  0.002961  0.311343  0  3.809797  0
N  N61  1  0.00796676  0.60904219  0.21291906  1  0  0.265536  0  3.541198  0  0  0.312271  0  3.81928  0  0  0.309659  0  3.839236  0  0  0.004704  0.313732  0  3.806109  0
N  N62  1  0.32209866  0.15470976  0.33122790  1  0  -0.282863  0  2.787435  0  0  -0.273195  0  3.053239  0  0  -0.27745  0  3.064782  0  0  -0.18617  -0.270221  0  3.045397  0
N  N63  1  0.99090733  0.34518534  0.66879098  1  0  -0.283645  0  2.786402  0  0  -0.273781  0  3.052048  0  0  -0.27811  0  3.063625  0  0  -0.186595  -0.270835  0  3.044274  0
N  N64  1  0.67790005  0.84528922  0.66877268  1  0  -0.268806  0  2.799655  0  0  -0.27312  0  3.053135  0  0  -0.277372  0  3.064668  0  0  -0.186142  -0.270147  0  3.045295  0
N  N65  1  0.00909408  0.65481474  0.33120731  1  0  -0.283619  0  2.786282  0  0  -0.273754  0  3.051924  0  0  -0.278082  0  3.063497  0  0  -0.186569  -0.270809  0  3.044148  0
N  N66  1  0.10478216  0.99588034  0.29840388  1  0  -0.262371  0  2.932411  0  0  -0.247338  0  3.223973  0  0  -0.254215  0  3.234645  0  0  -0.191393  -0.242576  0  3.21668  0
N  N67  1  0.80634022  0.50400552  0.70167692  1  0  -0.262104  0  2.931947  0  0  -0.246949  0  3.223742  0  0  -0.253832  0  3.234384  0  0  -0.19121  -0.242188  0  3.21644  0
N  N68  1  0.89521819  0.00412088  0.70159695  1  0  -0.260763  0  2.927022  0  0  -0.247303  0  3.22392  0  0  -0.254179  0  3.234597  0  0  -0.191385  -0.242542  0  3.216627  0
N  N69  1  0.19366138  0.49599569  0.29832257  1  0  -0.262205  0  2.931981  0  0  -0.247042  0  3.223734  0  0  -0.253925  0  3.234375  0  0  -0.191246  -0.242282  0  3.216429  0
N  N70  1  0.07411350  0.01334265  0.19044695  1  0  -0.08948  0  2.84922  0  0  -0.078165  0  3.129662  0  0  -0.075238  0  3.138979  0  0  -0.059324  -0.080135  0  3.123733  0
N  N71  1  0.88378840  0.48667341  0.80969449  1  0  -0.090753  0  2.848437  0  0  -0.080062  0  3.129819  0  0  -0.07708  0  3.139009  0  0  -0.060635  -0.082022  0  3.123855  0
N  N72  1  0.92588559  0.98665858  0.80955440  1  0  -0.075702  0  2.860599  0  0  -0.07818  0  3.129688  0  0  -0.07526  0  3.139018  0  0  -0.059306  -0.080145  0  3.123752  0
N  N73  1  0.11621320  0.51332780  0.19030500  1  0  -0.090703  0  2.848274  0  0  -0.080008  0  3.129714  0  0  -0.077027  0  3.138906  0  0  -0.060612  -0.081968  0  3.12375  0
N  N74  1  0.45050369  0.17820170  0.78530447  1  0  -0.372154  0  3.183641  0  0  -0.312722  0  3.434359  0  0  -0.324496  0  3.448199  0  0  -0.342406  -0.304883  0  3.425036  0
N  N75  1  0.66516275  0.32147803  0.21471818  1  0  -0.372934  0  3.185862  0  0  -0.313599  0  3.436688  0  0  -0.325363  0  3.450508  0  0  -0.342506  -0.305804  0  3.427426  0
N  N76  1  0.54949897  0.82179841  0.21469660  1  0  -0.372026  0  3.183628  0  0  -0.312596  0  3.434382  0  0  -0.324368  0  3.448222  0  0  -0.342342  -0.304754  0  3.425044  0
N  N77  1  0.33483385  0.67852319  0.78528089  1  0  -0.372949  0  3.185945  0  0  -0.31362  0  3.436743  0  0  -0.325384  0  3.450564  0  0  -0.34253  -0.305826  0  3.427483  0
O  O78  1  0.36174439  0.08756460  0.96857857  1  0  -0.71393  0  2.05647  0  0  -0.660519  0  2.311652  0  0  -0.684585  0  2.300116  0  0  -0.346817  -0.643407  0  2.318991  0
O  O79  1  0.39319304  0.41249178  0.03157609  1  0  -0.713663  0  2.056781  0  0  -0.660744  0  2.311273  0  0  -0.684795  0  2.299731  0  0  -0.346944  -0.643717  0  2.318575  0
O  O80  1  0.63825181  0.91243438  0.03142137  1  0  -0.713959  0  2.056367  0  0  -0.660564  0  2.311514  0  0  -0.68463  0  2.299975  0  0  -0.346824  -0.643452  0  2.318853  0
O  O81  1  0.60680606  0.58750944  0.96842443  1  0  -0.7136  0  2.056773  0  0  -0.660706  0  2.311283  0  0  -0.684759  0  2.299738  0  0  -0.346916  -0.643679  0  2.318586  0
O  O82  1  0.29459887  0.90880733  0.02728154  1  0  -0.693242  0  2.025432  0  0  -0.644252  0  2.271839  0  0  -0.667  0  2.260643  0  0  -0.346958  -0.628573  0  2.279136  0
O  O83  1  0.26754562  0.59119321  0.97260827  1  0  -0.69321  0  2.026115  0  0  -0.644217  0  2.27168  0  0  -0.66702  0  2.260569  0  0  -0.346846  -0.628562  0  2.278948  0
O  O84  1  0.70539983  0.09119167  0.97272234  1  0  -0.69269  0  2.023871  0  0  -0.644314  0  2.271739  0  0  -0.667046  0  2.260514  0  0  -0.346986  -0.628635  0  2.279038  0
O  O85  1  0.73245492  0.40880913  0.02739377  1  0  -0.693158  0  2.026246  0  0  -0.644118  0  2.271758  0  0  -0.666921  0  2.260647  0  0  -0.346795  -0.628466  0  2.279031  0
