# generated using pymatgen
data_Zn2H28C28N2O11
_symmetry_space_group_name_H-M   'P 1'
_cell_length_a   10.85801706
_cell_length_b   12.78343768
_cell_length_c   13.93538684
_cell_angle_alpha   85.15421274
_cell_angle_beta   89.62122550
_cell_angle_gamma   86.72646051
_symmetry_Int_Tables_number   1
_chemical_formula_structural   Zn2H28C28N2O11
_chemical_formula_sum   'Zn2 H28 C28 N2 O11'
_cell_volume   1924.20879184
_cell_formula_units_Z   1
loop_
 _symmetry_equiv_pos_site_id
 _symmetry_equiv_pos_as_xyz
  1  'x, y, z'
loop_
 _atom_site_type_symbol
 _atom_site_label
 _atom_site_symmetry_multiplicity
 _atom_site_fract_x
 _atom_site_fract_y
 _atom_site_fract_z
 _atom_site_occupancy
 _atom_site_pbe_bader_charge
 _atom_site_pbe_bader_spin_density
 _atom_site_pbe_cm5_charge
 _atom_site_pbe_ddec_charge
 _atom_site_pbe_ddec_spin_density
 _atom_site_pbe_ddec_sum_bond_order
 _atom_site_pbe_magmom
Zn  Zn0  1  0.49214040  0.60826322  0.50244409  1  1.319252  0  0.674186  0.877054  0  2.42716  0
Zn  Zn1  1  0.50701517  0.39388536  0.49111117  1  1.326568  0  0.681366  0.875585  0  2.462094  0
H  H2  1  0.88550053  0.64600583  0.40981212  1  0.039041  0  0.088159  0.094591  0  0.99474  0
H  H3  1  0.11682673  0.34883450  0.43876159  1  0.053181  0  0.090682  0.095171  0  0.991644  0
H  H4  1  0.89682368  0.50125730  0.65629879  1  0.045364  0  0.098001  0.108228  0  0.975191  0
H  H5  1  0.04572963  0.60281129  0.76194339  1  0.023313  0  0.089677  0.042109  0  0.980043  0
H  H6  1  0.20833398  0.60410775  0.74103972  1  0.022291  0  0.087673  0.044087  0  0.979465  0
H  H7  1  0.23302983  0.42588228  0.83771202  1  0.036527  0  0.084584  0.118055  0  1.027299  0
H  H8  1  0.17093032  0.52714144  0.90680545  1  0.008316  0  0.088476  0.12035  0  1.00722  0
H  H9  1  0.07189261  0.43464023  0.86431201  1  0.034576  0  0.086643  0.117664  0  1.000602  0
H  H10  1  0.53394056  0.25068173  0.94480576  1  0.06186  0  0.102456  0.064315  0  0.965401  0
H  H11  1  0.37164855  0.28117752  0.94189278  1  0.044285  0  0.103125  0.066615  0  0.969432  0
H  H12  1  0.35364664  0.20122520  0.11292660  1  0.077785  0  0.096801  0.13207  0  0.98804  0
H  H13  1  0.11498492  0.33776602  0.56587264  1  0.015675  0  0.088992  0.092725  0  0.991271  0
H  H14  1  0.42067229  0.10807427  0.03670437  1  0.041369  0  0.094663  0.124512  0  0.99546  0
H  H15  1  0.51585907  0.17060350  0.11575614  1  0.055781  0  0.093214  0.125295  0  0.9939  0
H  H16  1  0.20881304  0.64548496  0.26192061  1  0.019684  0  0.088646  0.045955  0  0.982938  0
H  H17  1  0.04739193  0.64443924  0.23764046  1  0.028344  0  0.087879  0.040277  0  0.980393  0
H  H18  1  0.08262139  0.49212065  0.13941775  1  0.020458  0  0.085581  0.115999  0  1.002838  0
H  H19  1  0.17932479  0.59439021  0.09692924  1  0.034807  0  0.085541  0.113546  0  1.010205  0
H  H20  1  0.24313790  0.48323355  0.16855647  1  0.056551  0  0.090229  0.131839  0  1.004868  0
H  H21  1  0.89932340  0.33959095  0.56352625  1  0.023167  0  0.086516  0.085776  0  0.984036  0
H  H22  1  0.90141074  0.35222249  0.43674911  1  0.024555  0  0.08701  0.087278  0  0.986508  0
H  H23  1  0.51707556  0.61501337  0.97006818  1  0.094922  0  0.113726  0.134621  0  0.982262  0
H  H24  1  0.60226536  0.00140142  0.42136234  1  0.165039  0  0.15627  0.166824  0  0.922429  0
H  H25  1  0.39512062  0.00028984  0.57713775  1  0.151691  0  0.156261  0.167229  0  0.923275  0
H  H26  1  0.89754906  0.53153440  0.34566698  1  0.050059  0  0.1001  0.11078  0  0.974562  0
H  H27  1  0.10224748  0.64330492  0.41371249  1  0.057427  0  0.096561  0.032299  0  0.989394  0
H  H28  1  0.88321493  0.62809385  0.59345415  1  0.05492  0  0.08784  0.094482  0  0.997207  0
H  H29  1  0.10008964  0.62845951  0.58768433  1  0.057424  0  0.096343  0.032147  0  0.991033  0
C  C30  1  0.49890412  0.53461843  0.30950594  1  1.677949  0  0.214505  0.667354  0  4.246782  0
C  C31  1  0.50035181  0.54822448  0.20611699  1  0.157727  0  -0.046916  -0.202648  0  3.94882  0
C  C32  1  0.46262720  0.96914711  0.52695937  1  0.097469  0  -0.010571  -0.07821  0  3.949184  0
C  C33  1  0.73902139  0.50422068  0.49953929  1  1.534619  0  0.223644  0.600658  0  4.077687  0
C  C34  1  0.53486569  0.03268977  0.47155107  1  0.168658  0  -0.009756  -0.076453  0  3.948767  0
C  C35  1  0.52644045  0.14278204  0.47607275  1  0.848191  0  0.249562  0.322196  0  3.93455  0
C  C36  1  0.47147043  0.85908964  0.52198219  1  0.838448  0  0.246067  0.320154  0  3.938255  0
C  C37  1  0.50131968  0.46451424  0.68527189  1  1.700568  0  0.217078  0.658433  0  4.2573  0
C  C38  1  0.26114898  0.49887681  0.50109442  1  1.557135  0  0.225615  0.612312  0  4.104479  0
C  C39  1  0.92687676  0.56544771  0.41126354  1  -0.043683  0  -0.164  -0.259086  0  3.85659  0
C  C40  1  0.06974787  0.56323996  0.41160202  1  0.419013  0  0.007015  0.156082  0  3.807499  0
C  C41  1  0.12063492  0.49619182  0.50167178  1  0.045883  0  -0.017894  -0.085261  0  3.783893  0
C  C42  1  0.92572496  0.54833170  0.59109903  1  -0.074039  0  -0.16488  -0.259123  0  3.85581  0
C  C43  1  0.93491192  0.38643867  0.50071099  1  -0.053061  0  -0.166624  -0.176449  0  3.88611  0
C  C44  1  0.87995038  0.49996255  0.50093320  1  0.058153  0  -0.015202  0.045617  0  3.798286  0
C  C45  1  0.13082099  0.55214276  0.75477692  1  0.424821  0  -0.074511  0.089498  0  3.96587  0
C  C46  1  0.15267465  0.48044926  0.84621177  1  -0.03363  0  -0.248079  -0.393784  0  3.983362  0
C  C47  1  0.45263622  0.26844178  0.98953628  1  0.408179  0  -0.062498  0.080918  0  3.906693  0
C  C48  1  0.43460764  0.18215987  0.06871309  1  -0.114244  0  -0.240338  -0.394605  0  3.986487  0
C  C49  1  0.13350702  0.59409781  0.24756582  1  0.441323  0  -0.074669  0.086953  0  3.96413  0
C  C50  1  0.16105723  0.53710426  0.15802306  1  -0.073967  0  -0.248209  -0.395673  0  3.986049  0
C  C51  1  0.06860227  0.54764198  0.59084439  1  0.445688  0  0.006157  0.155173  0  3.80727  0
C  C52  1  0.07721840  0.38407630  0.50187119  1  0.034894  0  -0.170055  -0.174077  0  3.888014  0
C  C53  1  0.49882822  0.45364385  0.78930888  1  0.198369  0  -0.022553  -0.118678  0  3.925362  0
C  C54  1  0.48898700  0.45265178  0.97781862  1  0.523611  0  0.105262  0.280989  0  4.146929  0
C  C55  1  0.50345090  0.54539412  0.01885430  1  0.217455  0  -0.098886  -0.21781  0  4.079323  0
C  C56  1  0.50210183  0.55081919  0.11825128  1  -0.519721  0  -0.040009  0.023289  0  4.205866  0
C  C57  1  0.49425337  0.45009029  0.87696705  1  -0.45336  0  -0.040033  -0.1352  0  4.15295  0
N  N58  1  0.47799044  0.76853215  0.51826529  1  -1.048184  0  -0.234748  -0.236983  0  3.044587  0
N  N59  1  0.52082539  0.23341700  0.47898414  1  -1.076998  0  -0.233379  -0.232707  0  3.044095  0
O  O60  1  0.49414725  0.61747324  0.35510961  1  -1.146548  0  -0.32723  -0.561461  0  2.252876  0
O  O61  1  0.47028764  0.36393426  0.03553324  1  -1.041419  0  -0.163241  -0.179709  0  2.487932  0
O  O62  1  0.12153726  0.51830820  0.32836814  1  -1.037962  0  -0.229418  -0.257258  0  2.425507  0
O  O63  1  0.50280743  0.43950089  0.34578921  1  -1.135542  0  -0.316453  -0.545047  0  2.249784  0
O  O64  1  0.68187007  0.59355842  0.50421596  1  -1.167289  0  -0.324602  -0.559145  0  2.303652  0
O  O65  1  0.68855301  0.41757670  0.49320398  1  -1.168432  0  -0.316174  -0.551262  0  2.363873  0
O  O66  1  0.49429024  0.55923979  0.64800657  1  -1.138998  0  -0.315497  -0.549025  0  2.25961  0
O  O67  1  0.51010455  0.38055492  0.64247485  1  -1.1543  0  -0.318204  -0.546603  0  2.231476  0
O  O68  1  0.30606933  0.58871964  0.50293532  1  -1.169546  0  -0.324166  -0.569923  0  2.327154  0
O  O69  1  0.32280421  0.41174652  0.49835264  1  -1.160705  0  -0.311831  -0.539134  0  2.364455  0
O  O70  1  0.12025461  0.48931418  0.67518268  1  -1.03075  0  -0.231473  -0.261789  0  2.42472  0
