# generated using pymatgen
data_MnH21C20(NO3)2
_symmetry_space_group_name_H-M   'P 1'
_cell_length_a   6.68865156
_cell_length_b   14.52726626
_cell_length_c   21.51966729
_cell_angle_alpha   89.99790228
_cell_angle_beta   89.99799086
_cell_angle_gamma   97.91197193
_symmetry_Int_Tables_number   1
_chemical_formula_structural   MnH21C20(NO3)2
_chemical_formula_sum   'Mn4 H84 C80 N8 O24'
_cell_volume   2071.11420805
_cell_formula_units_Z   4
loop_
 _symmetry_equiv_pos_site_id
 _symmetry_equiv_pos_as_xyz
  1  'x, y, z'
loop_
 _atom_site_type_symbol
 _atom_site_label
 _atom_site_symmetry_multiplicity
 _atom_site_fract_x
 _atom_site_fract_y
 _atom_site_fract_z
 _atom_site_occupancy
 _atom_site_pbe_bader_charge
 _atom_site_pbe_bader_spin_density
 _atom_site_pbe_cm5_charge
 _atom_site_pbe_ddec_charge
 _atom_site_pbe_ddec_spin_density
 _atom_site_pbe_ddec_sum_bond_order
 _atom_site_pbe_magmom
Mn  Mn0  1  0.22879094  0.77239143  0.39355150  1  1.65511  -3.598147  0.816979  1.049648  -3.730652  2.975293  -3.579
Mn  Mn1  1  0.27122492  0.22761602  0.89355644  1  1.655254  -3.597908  0.817049  1.049798  -3.730303  2.975475  -3.579
Mn  Mn2  1  0.77116878  0.22761223  0.60644562  1  1.655254  -3.597898  0.816946  1.04939  -3.730634  2.976114  -3.579
Mn  Mn3  1  0.72878987  0.77239187  0.10644904  1  1.654996  -3.598168  0.816981  1.049643  -3.73067  2.975239  -3.579
H  H4  1  0.23969470  0.47150397  0.40071001  1  0.069554  -0.00052  0.106593  0.137323  -0.000234  1.013529  0.0
H  H5  1  0.26031106  0.52848704  0.90071135  1  0.069515  -0.000521  0.106629  0.137336  -0.000234  1.013538  0.0
H  H6  1  0.76030255  0.52849001  0.59928525  1  0.06957  -0.000521  0.10662  0.137361  -0.000234  1.013663  0.0
H  H7  1  0.73970156  0.47150834  0.09928902  1  0.069603  -0.00052  0.106587  0.137351  -0.000234  1.013453  0.0
H  H8  1  0.42660027  0.34575727  0.39822490  1  0.056571  -0.000278  0.103565  0.107385  -0.000166  0.986843  0.0
H  H9  1  0.07339908  0.65424153  0.89822844  1  0.056593  -0.000278  0.10355  0.107338  -0.000166  0.986856  0.0
H  H10  1  0.57340324  0.65424783  0.60177128  1  0.05659  -0.000278  0.103536  0.107312  -0.000166  0.986964  0.0
H  H11  1  0.92660191  0.34576009  0.10177286  1  0.056513  -0.000278  0.103549  0.107356  -0.000166  0.98681  0.0
H  H12  1  0.30885980  0.23527988  0.36998949  1  0.050104  -7e-05  0.100623  0.100442  -1.5e-05  1.005727  0.0
H  H13  1  0.19114499  0.76471651  0.86998714  1  0.050065  -7e-05  0.100625  0.100446  -1.5e-05  1.005733  0.0
H  H14  1  0.69114398  0.76472105  0.63000855  1  0.050051  -7e-05  0.100631  0.100424  -1.5e-05  1.005835  0.0
H  H15  1  0.80885478  0.23528094  0.13001137  1  0.050119  -7e-05  0.100637  0.100431  -1.5e-05  1.005733  0.0
H  H16  1  0.15673920  0.31714893  0.39992054  1  0.063162  -0.000277  0.100166  0.099887  -0.000164  1.011497  0.0
H  H17  1  0.34325592  0.68284628  0.89992040  1  0.063516  -0.000277  0.10013  0.099868  -0.000164  1.011521  0.0
H  H18  1  0.84325833  0.68285616  0.60007239  1  0.063428  -0.000277  0.100137  0.09986  -0.000164  1.011502  0.0
H  H19  1  0.65674187  0.31715464  0.10008276  1  0.063201  -0.000277  0.10014  0.099861  -0.000164  1.011586  0.0
H  H20  1  0.29013876  0.41748468  0.20372408  1  0.055271  -0.000192  0.101758  0.11926  -4.9e-05  0.999376  0.0
H  H21  1  0.20986277  0.58252901  0.70372371  1  0.055384  -0.000191  0.101679  0.119195  -5e-05  0.99926  0.0
H  H22  1  0.70987392  0.58252112  0.79627303  1  0.055457  -0.000191  0.101675  0.119132  -5e-05  0.999312  0.0
H  H23  1  0.79013992  0.41747330  0.29627619  1  0.055287  -0.000191  0.10172  0.119266  -4.9e-05  0.999364  0.0
H  H24  1  0.26485144  0.58401797  0.18217954  1  0.08493  -0.000107  0.109788  0.114307  0.000154  0.977432  0.0
H  H25  1  0.23513420  0.41598941  0.68218487  1  0.084996  -0.000108  0.109751  0.114238  0.000154  0.977612  0.0
H  H26  1  0.73515403  0.41598366  0.81781525  1  0.085031  -0.000108  0.109709  0.114243  0.000154  0.97753  0.0
H  H27  1  0.76485190  0.58400733  0.31781782  1  0.08496  -0.000107  0.109738  0.114265  0.000154  0.977579  0.0
H  H28  1  0.20628448  0.73183440  0.21280212  1  0.145526  0.00279  0.123838  0.098016  0.002707  1.023639  0.003
H  H29  1  0.29366278  0.26817102  0.71280488  1  0.145701  0.002785  0.123883  0.097994  0.002703  1.023877  0.003
H  H30  1  0.79372052  0.26817069  0.78719314  1  0.145659  0.002783  0.123858  0.098015  0.002702  1.023876  0.003
H  H31  1  0.70628491  0.73182220  0.28719642  1  0.145648  0.00279  0.123883  0.098018  0.002706  1.023745  0.003
H  H32  1  0.00065338  0.87438014  0.28950667  1  0.095317  5.1e-05  0.111892  0.092481  0.000416  1.013457  0.0
H  H33  1  0.49936236  0.12561780  0.78949860  1  0.094982  5.1e-05  0.1119  0.092471  0.000415  1.013428  0.0
H  H34  1  0.99934625  0.12562703  0.71049788  1  0.095211  5e-05  0.1119  0.092553  0.000415  1.013434  0.0
H  H35  1  0.50064938  0.87437966  0.21049665  1  0.095349  5.1e-05  0.111875  0.092485  0.000416  1.013432  0.0
H  H36  1  0.19651168  0.88416869  0.23237726  1  0.079659  0.001637  0.110444  0.091315  0.001566  1.010487  0.001
H  H37  1  0.30349320  0.11584184  0.73237485  1  0.079655  0.001637  0.110416  0.091335  0.001566  1.010416  0.001
H  H38  1  0.80347530  0.11582597  0.76762682  1  0.07956  0.001637  0.110398  0.091344  0.001566  1.01033  0.001
H  H39  1  0.69649970  0.88415769  0.26762273  1  0.079717  0.001636  0.110397  0.091359  0.001566  1.010451  0.001
H  H40  1  0.44198174  0.95534683  0.31134512  1  0.07143  9e-06  0.110245  0.091557  0.000268  0.997459  0.0
H  H41  1  0.05801932  0.04465529  0.81135043  1  0.071495  9e-06  0.110265  0.091653  0.000268  0.997393  0.0
H  H42  1  0.55802115  0.04464089  0.68865293  1  0.071477  1e-05  0.110271  0.091573  0.000269  0.99738  0.0
H  H43  1  0.94198364  0.95534285  0.18864948  1  0.071445  9e-06  0.110251  0.091601  0.000268  0.997409  0.0
H  H44  1  0.22400440  0.01296079  0.31947892  1  0.048822  0.001467  0.10622  0.08657  0.001365  0.974399  0.001
H  H45  1  0.27600125  0.98703458  0.81948035  1  0.048796  0.001468  0.106161  0.086528  0.001365  0.974376  0.001
H  H46  1  0.77601488  0.98703182  0.68052378  1  0.048731  0.001468  0.106157  0.08649  0.001366  0.974295  0.001
H  H47  1  0.72400797  0.01295940  0.18051629  1  0.048946  0.001467  0.10623  0.086592  0.001365  0.974411  0.001
H  H48  1  0.26528409  0.04190165  0.42340698  1  0.078945  0.002315  0.116619  0.075447  0.002092  0.979512  0.002
H  H49  1  0.23469519  0.95808930  0.92340913  1  0.078793  0.002312  0.116603  0.075441  0.002089  0.979471  0.002
H  H50  1  0.73471418  0.95809579  0.57659710  1  0.078841  0.002311  0.116659  0.075574  0.002089  0.979507  0.002
H  H51  1  0.76529098  0.04190258  0.07658380  1  0.078996  0.002315  0.116674  0.075545  0.002092  0.979393  0.002
H  H52  1  0.23940729  0.08558139  0.52418184  1  0.086966  -5.2e-05  0.105998  0.104191  0.000199  1.003569  0.0
H  H53  1  0.26058796  0.91440875  0.02419348  1  0.087697  -5.2e-05  0.105962  0.104151  0.000198  1.003628  0.0
H  H54  1  0.76059207  0.91441467  0.47581574  1  0.087763  -5.2e-05  0.105951  0.104143  0.000198  1.003688  0.0
H  H55  1  0.73940806  0.08558106  0.97580921  1  0.087357  -5.2e-05  0.105999  0.104161  0.000199  1.003569  0.0
H  H56  1  0.21680644  0.05589541  0.63659950  1  0.125264  -0.000178  0.104585  0.125648  0.000188  1.040975  0.0
H  H57  1  0.28318771  0.94409814  0.13660830  1  0.125486  -0.000178  0.104522  0.125539  0.000188  1.040979  0.0
H  H58  1  0.78319285  0.94410551  0.36339622  1  0.125733  -0.000178  0.104573  0.125624  0.000188  1.040969  0.0
H  H59  1  0.71680947  0.05590069  0.86339532  1  0.125569  -0.000178  0.10455  0.125634  0.000188  1.040951  0.0
H  H60  1  0.07731365  0.75828078  0.70259074  1  0.062195  -0.000202  0.098309  0.099824  -0.000109  1.022063  0.0
H  H61  1  0.42268552  0.24171422  0.20258145  1  0.062203  -0.000203  0.098318  0.099798  -0.000109  1.022221  0.0
H  H62  1  0.92268238  0.24172430  0.29741009  1  0.062138  -0.000203  0.09834  0.09987  -0.000109  1.022073  0.0
H  H63  1  0.57731248  0.75828739  0.79741334  1  0.062216  -0.000202  0.098325  0.099864  -0.000109  1.022093  0.0
H  H64  1  0.21868669  0.81645202  0.76500843  1  0.020071  -2e-06  0.102855  0.104942  3.4e-05  1.019419  0.0
H  H65  1  0.28131007  0.18354327  0.26500353  1  0.020104  -1e-06  0.102818  0.104918  3.4e-05  1.019334  0.0
H  H66  1  0.78131756  0.18354544  0.23499612  1  0.020129  -1e-06  0.102834  0.104899  3.4e-05  1.019381  0.0
H  H67  1  0.71869242  0.81645836  0.73499126  1  0.020399  -2e-06  0.102826  0.104944  3.4e-05  1.019414  0.0
H  H68  1  0.34840065  0.77760055  0.69961313  1  0.064586  -0.0002  0.09832  0.097784  -0.000109  1.011352  0.0
H  H69  1  0.15160931  0.22239952  0.19960870  1  0.064689  -0.0002  0.098339  0.097864  -0.000109  1.01132  0.0
H  H70  1  0.65160843  0.22240316  0.30038817  1  0.064584  -0.0002  0.09834  0.097844  -0.000109  1.011354  0.0
H  H71  1  0.84839611  0.77760697  0.80038702  1  0.064783  -0.0002  0.098259  0.097762  -0.000109  1.011469  0.0
H  H72  1  0.21694631  0.76151596  0.60056837  1  0.085723  -0.000397  0.102525  0.130383  -0.000173  1.028167  0.0
H  H73  1  0.28305620  0.23847706  0.10055234  1  0.085905  -0.000398  0.102572  0.130425  -0.000174  1.028274  0.0
H  H74  1  0.78305746  0.23848496  0.39944407  1  0.085884  -0.000398  0.102539  0.130386  -0.000174  1.02826  0.0
H  H75  1  0.71694744  0.76151831  0.89943362  1  0.085802  -0.000397  0.102581  0.130464  -0.000173  1.028103  0.0
H  H76  1  0.62058073  0.74484112  0.50093795  1  0.049923  -0.000163  0.094432  0.145547  2.5e-05  1.018529  0.0
H  H77  1  0.87941096  0.25517932  0.00096180  1  0.048986  -0.000163  0.094523  0.145658  2.5e-05  1.01872  0.0
H  H78  1  0.37941367  0.25517370  0.49904336  1  0.048885  -0.000162  0.094465  0.145642  2.6e-05  1.01872  0.0
H  H79  1  0.12059289  0.74484731  0.99905808  1  0.049952  -0.000163  0.094448  0.145532  2.5e-05  1.018514  0.0
H  H80  1  0.82482705  0.68154003  0.48084018  1  0.06058  6.7e-05  0.094358  0.149477  0.000143  1.011862  0.0
H  H81  1  0.67519119  0.31847347  0.98086903  1  0.060698  6.7e-05  0.094389  0.149628  0.000143  1.01185  0.0
H  H82  1  0.17517924  0.31844909  0.51915554  1  0.060509  6.7e-05  0.094403  0.149651  0.000143  1.011885  0.0
H  H83  1  0.32483563  0.68154485  0.01915504  1  0.060502  6.7e-05  0.094341  0.149437  0.000143  1.011883  0.0
H  H84  1  0.56738290  0.64173033  0.45786962  1  0.059158  -0.000103  0.099793  0.1584  -5e-06  0.993596  0.0
H  H85  1  0.93259829  0.35827553  0.95789232  1  0.058478  -0.000103  0.099775  0.158383  -6e-06  0.993806  0.0
H  H86  1  0.43259015  0.35826779  0.54210891  1  0.058641  -0.000102  0.099781  0.158454  -5e-06  0.99382  0.0
H  H87  1  0.06739081  0.64173650  0.04213268  1  0.059206  -0.000103  0.099805  0.158402  -6e-06  0.9936  0.0
C  C88  1  0.22919777  0.58895501  0.34138149  1  0.618827  -0.005358  0.106785  0.352671  -0.005245  4.077278  -0.005
C  C89  1  0.27080693  0.41104039  0.84138701  1  0.6194  -0.005365  0.106838  0.352616  -0.005254  4.077378  -0.005
C  C90  1  0.77076896  0.41103684  0.65861098  1  0.61945  -0.005362  0.106781  0.352588  -0.005252  4.077287  -0.005
C  C91  1  0.72919501  0.58895428  0.15861847  1  0.618793  -0.005359  0.106786  0.35259  -0.005247  4.077379  -0.005
C  C92  1  0.24644360  0.49450702  0.35255699  1  0.00635  -0.007443  -0.131225  -0.366181  -0.005333  3.962809  -0.003
C  C93  1  0.25355449  0.50549045  0.85256036  1  0.006149  -0.007456  -0.131318  -0.366193  -0.005343  3.963087  -0.003
C  C94  1  0.75354740  0.50549111  0.64743548  1  0.005941  -0.007458  -0.131247  -0.36611  -0.005345  3.962897  -0.003
C  C95  1  0.74644508  0.49450631  0.14744372  1  0.006367  -0.007443  -0.131246  -0.366223  -0.005333  3.962948  -0.003
C  C96  1  0.26765982  0.43461691  0.30334310  1  0.418301  -0.00645  0.087471  0.2868  -0.004957  4.08073  -0.003
C  C97  1  0.23233841  0.56538779  0.80335034  1  0.418428  -0.006454  0.08733  0.286667  -0.00496  4.081117  -0.003
C  C98  1  0.73233750  0.56538748  0.69664751  1  0.418788  -0.006454  0.087212  0.286528  -0.00496  4.081003  -0.003
C  C99  1  0.76765959  0.43461382  0.19665700  1  0.418258  -0.00645  0.087412  0.286786  -0.004956  4.081015  -0.003
C  C100  1  0.29453249  0.30935205  0.37365460  1  0.382286  -9.9e-05  -0.139231  -0.183794  -0.000145  3.935883  0.0
C  C101  1  0.20546815  0.69064689  0.87365718  1  0.381955  -9.9e-05  -0.139118  -0.183572  -0.000144  3.935642  0.0
C  C102  1  0.70547231  0.69065235  0.62634205  1  0.382128  -9.9e-05  -0.139131  -0.183535  -0.000145  3.935782  0.0
C  C103  1  0.79453243  0.30935334  0.12634690  1  0.382334  -9.9e-05  -0.139176  -0.183671  -0.000145  3.935976  0.0
C  C104  1  0.27242933  0.46595357  0.24119814  1  0.025114  -0.009542  -0.119061  -0.233951  -0.007635  4.041051  -0.005
C  C105  1  0.22756808  0.53405014  0.74120574  1  0.025877  -0.00955  -0.118784  -0.233727  -0.00764  4.040446  -0.005
C  C106  1  0.72757037  0.53404874  0.75879201  1  0.025732  -0.009549  -0.118775  -0.233594  -0.00764  4.040316  -0.005
C  C107  1  0.77242679  0.46594591  0.25880021  1  0.025538  -0.009544  -0.118991  -0.233926  -0.007636  4.04106  -0.005
C  C108  1  0.25945988  0.55814723  0.22984048  1  -0.044078  -0.005013  -0.075908  -0.059345  -0.003936  4.015437  -0.002
C  C109  1  0.24053289  0.44185162  0.72984418  1  -0.04497  -0.00502  -0.075941  -0.059328  -0.003941  4.015538  -0.002
C  C110  1  0.74053438  0.44184673  0.77015431  1  -0.044648  -0.005021  -0.075798  -0.059201  -0.003942  4.015292  -0.002
C  C111  1  0.75945756  0.55813956  0.27015712  1  -0.04454  -0.005014  -0.075876  -0.059375  -0.003937  4.015754  -0.002
C  C112  1  0.23934363  0.62186526  0.27847160  1  0.00122  -0.008278  -0.037941  -0.115169  -0.005923  4.054036  -0.004
C  C113  1  0.26064899  0.37813127  0.77847711  1  0.001091  -0.008282  -0.037985  -0.11516  -0.005928  4.054504  -0.004
C  C114  1  0.76063336  0.37812591  0.72152412  1  0.000587  -0.008279  -0.038007  -0.115139  -0.005925  4.054551  -0.004
C  C115  1  0.73933847  0.62185992  0.22152651  1  0.001294  -0.008276  -0.03796  -0.115145  -0.005922  4.054423  -0.004
C  C116  1  0.21736438  0.71519702  0.26238760  1  0.60885  -0.026936  0.087917  0.115641  -0.023274  3.912856  -0.02
C  C117  1  0.28262783  0.28481232  0.76238868  1  0.608479  -0.02696  0.088003  0.115726  -0.023292  3.912953  -0.02
C  C118  1  0.78261819  0.28480805  0.73761277  1  0.608475  -0.02696  0.087798  0.115363  -0.023292  3.913003  -0.02
C  C119  1  0.71735929  0.71518790  0.23761030  1  0.608687  -0.026942  0.088002  0.115741  -0.023279  3.913565  -0.02
C  C120  1  0.16259215  0.87281469  0.28197037  1  0.252971  -0.000348  -0.059144  -0.068745  0.000751  3.915162  0.0
C  C121  1  0.33742056  0.12719553  0.78197009  1  0.253305  -0.000347  -0.059035  -0.068647  0.000754  3.915059  0.0
C  C122  1  0.83740109  0.12719109  0.71803140  1  0.252924  -0.000347  -0.05914  -0.069012  0.000753  3.915405  0.0
C  C123  1  0.66258594  0.87280957  0.21802889  1  0.25301  -0.000349  -0.059108  -0.068861  0.00075  3.915223  0.0
C  C124  1  0.28078602  0.94560336  0.32370227  1  0.298902  -0.001135  -0.053774  -0.04704  0.000217  3.907147  -0.001
C  C125  1  0.21921901  0.05439661  0.82370741  1  0.299091  -0.001132  -0.053745  -0.047054  0.000221  3.906952  -0.001
C  C126  1  0.71922299  0.05438993  0.67629531  1  0.299071  -0.00113  -0.05364  -0.046756  0.000223  3.907022  -0.001
C  C127  1  0.78078844  0.94560154  0.17629342  1  0.298841  -0.001135  -0.053718  -0.046921  0.000217  3.906972  -0.001
C  C128  1  0.25581298  0.96727874  0.43370291  1  0.609202  -0.028094  0.088371  0.123363  -0.024377  3.975347  -0.021
C  C129  1  0.24418291  0.03271159  0.93370832  1  0.609021  -0.028109  0.088351  0.123316  -0.024386  3.975262  -0.021
C  C130  1  0.74419440  0.03270899  0.56629421  1  0.609854  -0.028107  0.088111  0.123079  -0.024389  3.97529  -0.021
C  C131  1  0.75582379  0.96727892  0.06629205  1  0.608648  -0.028101  0.088341  0.123365  -0.024376  3.975269  -0.021
C  C132  1  0.24023177  0.94250865  0.49777817  1  0.008567  -0.007072  -0.043388  -0.123175  -0.005058  4.074641  -0.003
C  C133  1  0.25976020  0.05748255  0.99777769  1  0.008575  -0.007075  -0.043392  -0.123155  -0.005062  4.074727  -0.003
C  C134  1  0.75975827  0.05748115  0.50222730  1  0.00813  -0.007072  -0.043259  -0.122868  -0.005058  4.074413  -0.003
C  C135  1  0.74024820  0.94250866  0.00221803  1  0.008379  -0.007069  -0.043449  -0.123257  -0.005057  4.074684  -0.003
C  C136  1  0.23408561  0.01470867  0.54139956  1  -0.072381  -0.005042  -0.079805  -0.059702  -0.003888  4.026264  -0.003
C  C137  1  0.26590590  0.98528039  0.04140428  1  -0.073094  -0.005045  -0.079742  -0.059597  -0.00389  4.026216  -0.003
C  C138  1  0.76590355  0.98528321  0.45860360  1  -0.072917  -0.00505  -0.07979  -0.059676  -0.003895  4.026041  -0.003
C  C139  1  0.73409291  0.01470872  0.95859377  1  -0.072857  -0.005042  -0.079732  -0.059521  -0.003887  4.026245  -0.003
C  C140  1  0.22081121  0.99863149  0.60429968  1  0.006517  -0.009582  -0.122893  -0.241538  -0.007404  4.024967  -0.005
C  C141  1  0.27918545  0.00136338  0.10430442  1  0.00638  -0.009585  -0.122901  -0.241494  -0.007406  4.024727  -0.005
C  C142  1  0.77918659  0.00136943  0.39570022  1  0.005821  -0.009583  -0.122925  -0.241658  -0.007405  4.02472  -0.005
C  C143  1  0.72081472  0.99863546  0.89569501  1  0.006513  -0.009579  -0.122909  -0.241617  -0.007402  4.024892  -0.005
C  C144  1  0.21617850  0.90666164  0.62590805  1  0.387039  -0.006409  0.080535  0.278308  -0.00491  4.099235  -0.003
C  C145  1  0.28381725  0.09333327  0.12590908  1  0.386991  -0.006411  0.080422  0.278103  -0.004911  4.099481  -0.003
C  C146  1  0.78382011  0.09334206  0.37409185  1  0.387631  -0.006416  0.080586  0.278427  -0.004916  4.099103  -0.003
C  C147  1  0.71618334  0.90666696  0.87409036  1  0.386565  -0.006408  0.080463  0.278271  -0.004909  4.099507  -0.003
C  C148  1  0.21295114  0.80665877  0.71470297  1  0.426397  8e-06  -0.142425  -0.179443  -5e-06  3.923226  0.0
C  C149  1  0.28704767  0.19333965  0.21469591  1  0.426037  8e-06  -0.142382  -0.17942  -5e-06  3.923105  0.0
C  C150  1  0.78705134  0.19334285  0.28530112  1  0.426486  8e-06  -0.14249  -0.179572  -5e-06  3.923314  0.0
C  C151  1  0.71295074  0.80666336  0.78529703  1  0.42562  8e-06  -0.142304  -0.179314  -5e-06  3.92331  0.0
C  C152  1  0.22180252  0.83293209  0.58467038  1  -0.04263  -0.007331  -0.138991  -0.383252  -0.00528  3.980463  -0.003
C  C153  1  0.27819676  0.16705915  0.08466871  1  -0.042524  -0.007337  -0.138968  -0.383112  -0.005286  3.980548  -0.003
C  C154  1  0.77819657  0.16706814  0.41533556  1  -0.042696  -0.007339  -0.139016  -0.383285  -0.005287  3.980455  -0.003
C  C155  1  0.72181116  0.83293553  0.91532701  1  -0.042535  -0.007328  -0.138958  -0.383248  -0.005277  3.980552  -0.003
C  C156  1  0.23203679  0.84874293  0.51961336  1  0.659204  -0.005386  0.103053  0.348693  -0.005237  4.089495  -0.005
C  C157  1  0.26795837  0.15125027  0.01961080  1  0.659191  -0.005392  0.103126  0.348718  -0.005243  4.089117  -0.005
C  C158  1  0.76795529  0.15125382  0.48039305  1  0.65956  -0.005394  0.102929  0.34847  -0.005247  4.089347  -0.005
C  C159  1  0.73205166  0.84874649  0.98038399  1  0.658982  -0.005388  0.102985  0.348615  -0.005238  4.089354  -0.005
C  C160  1  0.71200276  0.75897340  0.40576898  1  1.559339  -0.00717  0.211742  0.693568  -0.008391  4.13539  -0.009
C  C161  1  0.78799996  0.24105031  0.90580361  1  1.5587  -0.007168  0.211873  0.693597  -0.008379  4.136208  -0.009
C  C162  1  0.28804595  0.24103800  0.59420954  1  1.560183  -0.007148  0.212107  0.694359  -0.00837  4.134955  -0.009
C  C163  1  0.21200600  0.75897840  0.09422650  1  1.559283  -0.00717  0.21178  0.693554  -0.00839  4.135727  -0.009
C  C164  1  0.68198081  0.70251917  0.46516482  1  -0.104791  -0.001631  -0.247359  -0.537932  -0.000609  3.901615  -0.001
C  C165  1  0.81801385  0.29749458  0.96519353  1  -0.103528  -0.001628  -0.24753  -0.538267  -0.000607  3.902304  -0.001
C  C166  1  0.31801978  0.29748106  0.53481650  1  -0.103235  -0.001629  -0.247468  -0.538512  -0.000607  3.902324  -0.001
C  C167  1  0.18199095  0.70252510  0.03483332  1  -0.10482  -0.001631  -0.247341  -0.537874  -0.000609  3.901645  -0.001
N  N168  1  0.20597204  0.78171967  0.30213374  1  -1.199368  0.016106  -0.370735  -0.235097  0.031499  3.515942  0.042
N  N169  1  0.29403730  0.21828165  0.80213912  1  -1.199329  0.016105  -0.37089  -0.235334  0.031492  3.515644  0.042
N  N170  1  0.79399408  0.21827010  0.69786430  1  -1.199162  0.016097  -0.370605  -0.234733  0.031492  3.51551  0.042
N  N171  1  0.70595928  0.78171510  0.19786589  1  -1.199328  0.016105  -0.370813  -0.235192  0.031498  3.516289  0.042
N  N172  1  0.25973012  0.91048159  0.38738363  1  -1.195551  0.013086  -0.36738  -0.248566  0.027699  3.529812  0.04
N  N173  1  0.24028383  0.08952206  0.88738536  1  -1.195603  0.013064  -0.367405  -0.248741  0.027698  3.529659  0.04
N  N174  1  0.74030337  0.08951868  0.61262092  1  -1.196485  0.013072  -0.367384  -0.248827  0.027711  3.529812  0.04
N  N175  1  0.75973892  0.91048236  0.11261361  1  -1.195004  0.013089  -0.367395  -0.248738  0.027694  3.529879  0.04
O  O176  1  0.19888853  0.64093683  0.38964709  1  -1.097846  -0.063729  -0.322881  -0.475467  -0.043508  2.341127  -0.031
O  O177  1  0.30110955  0.35904930  0.88964799  1  -1.098113  -0.063797  -0.322927  -0.475487  -0.043562  2.341627  -0.031
O  O178  1  0.80102897  0.35904524  0.61034630  1  -1.098049  -0.06377  -0.322812  -0.475343  -0.043542  2.341776  -0.031
O  O179  1  0.69888587  0.64093842  0.11035191  1  -1.097856  -0.063725  -0.322873  -0.47539  -0.043503  2.341179  -0.031
O  O180  1  0.23477672  0.77701004  0.48264108  1  -1.120868  -0.061967  -0.320796  -0.48004  -0.043095  2.349416  -0.03
O  O181  1  0.26522130  0.22298072  0.98263458  1  -1.120846  -0.062015  -0.320884  -0.480092  -0.043131  2.349649  -0.03
O  O182  1  0.76523059  0.22298255  0.51736533  1  -1.120918  -0.062011  -0.320724  -0.479796  -0.043128  2.349579  -0.03
O  O183  1  0.73479546  0.77700842  0.01735789  1  -1.120451  -0.061939  -0.32078  -0.479989  -0.043081  2.349192  -0.03
O  O184  1  0.28460280  0.34247729  0.31127224  1  -1.085922  -0.003116  -0.186269  -0.172292  -0.002173  2.594969  -0.002
O  O185  1  0.21540385  0.65752346  0.81127088  1  -1.08592  -0.003119  -0.186245  -0.172386  -0.002175  2.595051  -0.002
O  O186  1  0.71540969  0.65752782  0.68872394  1  -1.086053  -0.003118  -0.186235  -0.172424  -0.002174  2.594942  -0.002
O  O187  1  0.78460190  0.34247400  0.18872763  1  -1.086093  -0.003116  -0.186233  -0.172307  -0.002173  2.595041  -0.002
O  O188  1  0.20703690  0.89709782  0.68900818  1  -1.075733  -0.003265  -0.191124  -0.166152  -0.002263  2.560439  -0.003
O  O189  1  0.29295758  0.10290150  0.18900468  1  -1.075939  -0.003265  -0.191101  -0.166165  -0.002264  2.560475  -0.003
O  O190  1  0.79296912  0.10291075  0.31099451  1  -1.076134  -0.003267  -0.191063  -0.166098  -0.002265  2.560607  -0.003
O  O191  1  0.70703655  0.89710220  0.81099057  1  -1.075493  -0.003264  -0.19119  -0.166349  -0.002263  2.560518  -0.003
O  O192  1  0.55721649  0.78113542  0.37766829  1  -1.203179  -0.085819  -0.321317  -0.602796  -0.068242  2.278948  -0.064
O  O193  1  0.94274658  0.21886986  0.87769479  1  -1.202607  -0.085805  -0.321253  -0.602727  -0.068231  2.278944  -0.064
O  O194  1  0.44280136  0.21880648  0.62228561  1  -1.203792  -0.08592  -0.321603  -0.603211  -0.068311  2.279112  -0.064
O  O195  1  0.05722164  0.78113728  0.12232835  1  -1.203114  -0.085809  -0.321368  -0.602867  -0.068235  2.279147  -0.064
O  O196  1  0.88918174  0.78357247  0.38536404  1  -1.195641  -0.070434  -0.31411  -0.599148  -0.056763  2.272005  -0.052
O  O197  1  0.61084879  0.21645671  0.88538404  1  -1.195159  -0.070439  -0.314277  -0.599145  -0.056779  2.272486  -0.052
O  O198  1  0.11092252  0.21650082  0.61466978  1  -1.195727  -0.070381  -0.314154  -0.599251  -0.056717  2.271744  -0.052
O  O199  1  0.38918191  0.78357482  0.11462841  1  -1.19566  -0.070447  -0.314125  -0.599104  -0.056767  2.272142  -0.052
