# generated using pymatgen
data_AgH18C26(NO)3
_symmetry_space_group_name_H-M   'P 1'
_cell_length_a   7.20242731
_cell_length_b   10.89227027
_cell_length_c   29.48348386
_cell_angle_alpha   90.00012962
_cell_angle_beta   89.99966249
_cell_angle_gamma   89.99995197
_symmetry_Int_Tables_number   1
_chemical_formula_structural   AgH18C26(NO)3
_chemical_formula_sum   'Ag4 H72 C104 N12 O12'
_cell_volume   2313.00244809
_cell_formula_units_Z   4
loop_
 _symmetry_equiv_pos_site_id
 _symmetry_equiv_pos_as_xyz
  1  'x, y, z'
loop_
 _atom_site_type_symbol
 _atom_site_label
 _atom_site_symmetry_multiplicity
 _atom_site_fract_x
 _atom_site_fract_y
 _atom_site_fract_z
 _atom_site_occupancy
 _atom_site_pbe_bader_charge
 _atom_site_pbe_bader_spin_density
 _atom_site_pbe_cm5_charge
 _atom_site_pbe_ddec_charge
 _atom_site_pbe_ddec_spin_density
 _atom_site_pbe_ddec_sum_bond_order
 _atom_site_pbe_magmom
Ag  Ag0  1  0.38444763  0.13227536  0.48548674  1  0.623951  0  0.476758  0.377465  0  1.852287  0
Ag  Ag1  1  0.88441717  0.36771480  0.98549120  1  0.623988  0  0.476854  0.37755  0  1.852104  0
Ag  Ag2  1  0.38442615  0.63228736  0.01451011  1  0.623922  0  0.476802  0.377427  0  1.852336  0
Ag  Ag3  1  0.88444151  0.86770844  0.51451084  1  0.623885  0  0.476794  0.377437  0  1.852219  0
H  H4  1  0.28325268  0.95361622  0.41006483  1  0.116379  0  0.117398  0.092624  0  1.01046  0
H  H5  1  0.78322742  0.54637789  0.91007001  1  0.11637  0  0.117456  0.092648  0  1.010573  0
H  H6  1  0.28325913  0.45361805  0.08992532  1  0.114954  0  0.117429  0.092649  0  1.010534  0
H  H7  1  0.78324636  0.04637696  0.58993388  1  0.116463  0  0.117412  0.092682  0  1.010443  0
H  H8  1  0.27950109  0.94500756  0.32536788  1  0.103736  0  0.107257  0.117533  0  1.022952  0
H  H9  1  0.77946908  0.55498969  0.82537412  1  0.103611  0  0.1072  0.1175  0  1.022954  0
H  H10  1  0.27949917  0.44499344  0.17462185  1  0.10336  0  0.107229  0.117471  0  1.022915  0
H  H11  1  0.77949631  0.05498751  0.67463046  1  0.10377  0  0.107255  0.117493  0  1.02291  0
H  H12  1  0.55502539  0.29048143  0.17430792  1  0.086569  0  0.098445  0.099407  0  1.031263  0
H  H13  1  0.05502428  0.20951761  0.67431662  1  0.08717  0  0.098439  0.099387  0  1.03129  0
H  H14  1  0.55502031  0.79047626  0.32568312  1  0.087261  0  0.098434  0.099366  0  1.031256  0
H  H15  1  0.05501087  0.70950968  0.82569080  1  0.086321  0  0.098427  0.099363  0  1.031285  0
H  H16  1  0.56126491  0.28568367  0.08963308  1  0.127586  0  0.100033  0.102907  0  1.035056  0
H  H17  1  0.06129724  0.21430738  0.58964214  1  0.127633  0  0.099987  0.102871  0  1.035013  0
H  H18  1  0.56126952  0.78569101  0.41035834  1  0.127837  0  0.099986  0.102851  0  1.035052  0
H  H19  1  0.06127269  0.71431656  0.91036536  1  0.127875  0  0.100022  0.102851  0  1.035114  0
H  H20  1  0.42578765  0.10821873  0.04829056  1  0.087131  0  0.107203  0.113994  0  1.010751  0
H  H21  1  0.92584104  0.39176935  0.54829413  1  0.086835  0  0.107163  0.113923  0  1.010802  0
H  H22  1  0.42579937  0.60823236  0.45170551  1  0.087054  0  0.107212  0.114009  0  1.010743  0
H  H23  1  0.92582638  0.89179216  0.95170806  1  0.086916  0  0.107107  0.113845  0  1.010862  0
H  H24  1  0.27125192  0.94004378  0.09110379  1  0.108704  0  0.106208  0.111672  0  1.005373  0
H  H25  1  0.77128527  0.55994947  0.59110192  1  0.108448  0  0.106204  0.111616  0  1.005384  0
H  H26  1  0.27127045  0.44004752  0.40889670  1  0.108357  0  0.106207  0.111642  0  1.005333  0
H  H27  1  0.77128853  0.05996698  0.90889516  1  0.108245  0  0.106181  0.111627  0  1.005329  0
H  H28  1  0.26321165  0.94465060  0.17537570  1  0.077912  0  0.098823  0.099811  0  1.037782  0
H  H29  1  0.76321297  0.55535068  0.67537346  1  0.078056  0  0.098775  0.099758  0  1.037856  0
H  H30  1  0.26321764  0.44464181  0.32462508  1  0.078003  0  0.09878  0.09975  0  1.037788  0
H  H31  1  0.76323006  0.05535291  0.82462318  1  0.078012  0  0.098836  0.099858  0  1.037755  0
H  H32  1  0.56498914  0.29469435  0.32524062  1  0.115539  0  0.107917  0.119293  0  1.027053  0
H  H33  1  0.06498377  0.20531172  0.82524217  1  0.115618  0  0.107942  0.119349  0  1.026959  0
H  H34  1  0.56495967  0.79469122  0.17476003  1  0.115674  0  0.107894  0.119243  0  1.026971  0
H  H35  1  0.06497512  0.70529665  0.67475752  1  0.115514  0  0.107918  0.119269  0  1.027024  0
H  H36  1  0.55597685  0.28863765  0.40948943  1  0.116913  0  0.120824  0.095551  0  1.003191  0
H  H37  1  0.05597301  0.21136360  0.90949135  1  0.116902  0  0.120866  0.095585  0  1.003172  0
H  H38  1  0.55595705  0.78864954  0.09051044  1  0.116884  0  0.120814  0.095519  0  1.003097  0
H  H39  1  0.05596293  0.71135070  0.59050897  1  0.116833  0  0.120807  0.095498  0  1.003111  0
H  H40  1  0.27561126  0.96619847  0.56193834  1  0.136347  0  0.117511  0.095703  0  1.019786  0
H  H41  1  0.77558571  0.53379365  0.06194425  1  0.136448  0  0.117455  0.095685  0  1.019925  0
H  H42  1  0.27560182  0.46620697  0.93805745  1  0.136556  0  0.117458  0.095752  0  1.019824  0
H  H43  1  0.77561793  0.03379113  0.43806099  1  0.136544  0  0.117454  0.095726  0  1.019758  0
H  H44  1  0.27339803  0.96084038  0.64671391  1  0.118814  0  0.103669  0.112526  0  1.033727  0
H  H45  1  0.77337815  0.53915509  0.14671952  1  0.119  0  0.103731  0.112621  0  1.033764  0
H  H46  1  0.27338309  0.46086299  0.85328115  1  0.119205  0  0.103719  0.112597  0  1.033669  0
H  H47  1  0.77340626  0.03915567  0.35328574  1  0.118834  0  0.103673  0.112564  0  1.033703  0
H  H48  1  0.54519520  0.31028110  0.79803646  1  0.065022  0  0.099741  0.10316  0  1.021473  0
H  H49  1  0.04520336  0.18972038  0.29804552  1  0.065373  0  0.099779  0.103152  0  1.021497  0
H  H50  1  0.54520618  0.81029655  0.70195549  1  0.065324  0  0.099757  0.103098  0  1.021571  0
H  H51  1  0.04519907  0.68972206  0.20195844  1  0.065104  0  0.099784  0.103147  0  1.021493  0
H  H52  1  0.54199201  0.30256906  0.88269365  1  0.076162  0  0.098077  0.096861  0  1.025434  0
H  H53  1  0.04201423  0.19743854  0.38270276  1  0.0766  0  0.098096  0.096921  0  1.025371  0
H  H54  1  0.54201274  0.80256006  0.61729822  1  0.076723  0  0.098088  0.096938  0  1.025392  0
H  H55  1  0.04199609  0.69743505  0.11730156  1  0.076615  0  0.098083  0.096888  0  1.025337  0
H  H56  1  0.40642203  0.12465781  0.92258543  1  0.11003  0  0.102633  0.109264  0  1.036769  0
H  H57  1  0.90646256  0.37535668  0.42259448  1  0.10982  0  0.10259  0.109185  0  1.036739  0
H  H58  1  0.40643397  0.62464433  0.57741348  1  0.110131  0  0.102671  0.109339  0  1.036706  0
H  H59  1  0.90641340  0.87534503  0.07741065  1  0.110088  0  0.102645  0.109292  0  1.036711  0
H  H60  1  0.27382774  0.94976718  0.87790841  1  0.076721  0  0.097284  0.096269  0  1.038821  0
H  H61  1  0.77385810  0.55024256  0.37791644  1  0.076494  0  0.097315  0.096211  0  1.038843  0
H  H62  1  0.27381951  0.44977001  0.62209610  1  0.076901  0  0.097294  0.096269  0  1.038799  0
H  H63  1  0.77381238  0.05023162  0.12208921  1  0.076787  0  0.097311  0.096264  0  1.038858  0
H  H64  1  0.28515033  0.95362231  0.79362365  1  0.091353  0  0.100698  0.103804  0  1.01915  0
H  H65  1  0.78516117  0.54638028  0.29363201  1  0.091098  0  0.100697  0.103793  0  1.019111  0
H  H66  1  0.28512410  0.45364869  0.70638165  1  0.092015  0  0.100783  0.103941  0  1.019095  0
H  H67  1  0.78513910  0.04637545  0.20637373  1  0.091823  0  0.100703  0.103802  0  1.019188  0
H  H68  1  0.57309528  0.30526927  0.64491050  1  0.117693  0  0.104837  0.114735  0  1.040217  0
H  H69  1  0.07307995  0.19472665  0.14491552  1  0.11738  0  0.104828  0.114711  0  1.040152  0
H  H70  1  0.57309135  0.80528630  0.85509049  1  0.117565  0  0.104827  0.114864  0  1.040107  0
H  H71  1  0.07308435  0.69471798  0.35508431  1  0.117639  0  0.104835  0.114787  0  1.040152  0
H  H72  1  0.56633910  0.29471612  0.56042586  1  0.094839  0  0.121498  0.098573  0  0.991211  0
H  H73  1  0.06628930  0.20526644  0.06043229  1  0.094923  0  0.121504  0.098576  0  0.991319  0
H  H74  1  0.56632406  0.79472638  0.93957502  1  0.094731  0  0.121472  0.098531  0  0.991117  0
H  H75  1  0.06630481  0.70525651  0.43956856  1  0.095091  0  0.121505  0.098592  0  0.99115  0
C  C76  1  0.34187995  0.02776326  0.38978558  1  0.398254  0  0.043223  0.081417  0  3.948907  0
C  C77  1  0.84186297  0.47223442  0.88979058  1  0.398187  0  0.043083  0.081157  0  3.949113  0
C  C78  1  0.34187987  0.52776362  0.11020662  1  0.399878  0  0.043171  0.081178  0  3.949181  0
C  C79  1  0.84187539  0.97222928  0.61021264  1  0.39841  0  0.043127  0.081089  0  3.94894  0
C  C80  1  0.34125558  0.02297240  0.34279790  1  0.084662  0  -0.079319  -0.174874  0  3.914744  0
C  C81  1  0.84123454  0.47702650  0.84280327  1  0.085016  0  -0.079266  -0.174825  0  3.914792  0
C  C82  1  0.34124901  0.52296421  0.15719427  1  0.085423  0  -0.079308  -0.174853  0  3.914654  0
C  C83  1  0.84125157  0.97702199  0.65720031  1  0.084657  0  -0.079385  -0.174848  0  3.914717  0
C  C84  1  0.42031306  0.12024401  0.31775601  1  0.117703  0  0.016177  0.172679  0  4.102141  0
C  C85  1  0.92029536  0.37975649  0.81775952  1  0.116981  0  0.016181  0.172842  0  4.102069  0
C  C86  1  0.42029322  0.62023610  0.18223940  1  0.116957  0  0.016146  0.172768  0  4.102019  0
C  C87  1  0.92030607  0.87974950  0.68224257  1  0.11748  0  0.016266  0.17279  0  4.102175  0
C  C88  1  0.41806159  0.11973878  0.26986173  1  -0.252844  0  -0.046601  -0.120636  0  4.085157  0
C  C89  1  0.91803558  0.38026482  0.76986524  1  -0.253055  0  -0.046515  -0.120628  0  4.085488  0
C  C90  1  0.41803508  0.61972229  0.23013400  1  -0.253108  0  -0.046583  -0.120667  0  4.085393  0
C  C91  1  0.91805489  0.88025476  0.73013683  1  -0.252914  0  -0.046582  -0.120681  0  4.085298  0
C  C92  1  0.41178722  0.11896356  0.22846293  1  -0.177407  0  -0.026293  -0.064613  0  4.081077  0
C  C93  1  0.91176956  0.38104116  0.72846712  1  -0.177152  0  -0.026374  -0.064694  0  4.081559  0
C  C94  1  0.41177060  0.61895061  0.27153172  1  -0.17711  0  -0.026307  -0.064585  0  4.081392  0
C  C95  1  0.91178626  0.88103279  0.77153558  1  -0.177264  0  -0.026298  -0.064576  0  4.08129  0
C  C96  1  0.41015777  0.11754667  0.18043806  1  0.130177  0  -0.006906  0.109271  0  4.127678  0
C  C97  1  0.91015819  0.38245563  0.68044192  1  0.126672  0  -0.007031  0.109073  0  4.127869  0
C  C98  1  0.41015390  0.61753891  0.31955724  1  0.126115  0  -0.007016  0.108993  0  4.127906  0
C  C99  1  0.91016403  0.88245338  0.81956043  1  0.126589  0  -0.006877  0.109269  0  4.127803  0
C  C100  1  0.49300559  0.21430873  0.15577538  1  -0.159392  0  -0.08436  -0.129437  0  3.943878  0
C  C101  1  0.99301214  0.28569054  0.65578179  1  -0.156753  0  -0.08427  -0.129237  0  3.944201  0
C  C102  1  0.49300241  0.71430492  0.34421811  1  -0.156676  0  -0.084173  -0.129005  0  3.944039  0
C  C103  1  0.99300480  0.78568857  0.84422350  1  -0.155596  0  -0.084278  -0.12929  0  3.943997  0
C  C104  1  0.49731708  0.21090690  0.10859135  1  -0.022883  0  -0.09092  -0.08394  0  3.998579  0
C  C105  1  0.99734176  0.28908711  0.60859744  1  -0.022304  0  -0.090909  -0.083926  0  3.998736  0
C  C106  1  0.49732126  0.71091106  0.39140216  1  -0.022825  0  -0.090899  -0.084062  0  3.998743  0
C  C107  1  0.99732789  0.78909494  0.89140724  1  -0.023051  0  -0.090946  -0.083992  0  3.998698  0
C  C108  1  0.41969165  0.11145912  0.08520918  1  -0.04252  0  -0.078842  -0.062476  0  3.94192  0
C  C109  1  0.91972970  0.38853267  0.58521273  1  -0.042481  0  -0.078747  -0.062407  0  3.941833  0
C  C110  1  0.41970372  0.61146635  0.41478686  1  -0.042303  0  -0.07883  -0.06244  0  3.941862  0
C  C111  1  0.91972094  0.88854817  0.91478939  1  -0.042142  0  -0.07876  -0.062252  0  3.941932  0
C  C112  1  0.33466963  0.01634412  0.10933189  1  -0.056992  0  -0.086798  -0.084276  0  3.996693  0
C  C113  1  0.83469734  0.48365074  0.60933255  1  -0.056731  0  -0.086873  -0.084285  0  3.996656  0
C  C114  1  0.33468368  0.51634555  0.39066663  1  -0.056611  0  -0.086831  -0.084303  0  3.996551  0
C  C115  1  0.83469889  0.98366502  0.89066694  1  -0.056723  0  -0.086804  -0.084292  0  3.996527  0
C  C116  1  0.32937790  0.01873607  0.15654712  1  -0.032712  0  -0.082137  -0.122083  0  3.938032  0
C  C117  1  0.82938751  0.48126407  0.65654742  1  -0.032817  0  -0.081991  -0.121898  0  3.937983  0
C  C118  1  0.32938320  0.51873044  0.34345170  1  -0.032404  0  -0.082105  -0.121969  0  3.93781  0
C  C119  1  0.82939559  0.98126763  0.84345166  1  -0.032821  0  -0.082113  -0.122147  0  3.938031  0
C  C120  1  0.49965442  0.21772615  0.34253286  1  -0.032145  0  -0.077703  -0.170446  0  3.908232  0
C  C121  1  0.99964423  0.28227743  0.84253552  1  -0.031616  0  -0.077764  -0.170559  0  3.908213  0
C  C122  1  0.49963113  0.71772346  0.15746512  1  -0.031914  0  -0.077725  -0.170441  0  3.908057  0
C  C123  1  0.99964455  0.78226648  0.65746507  1  -0.032014  0  -0.077768  -0.170446  0  3.908207  0
C  C124  1  0.49402526  0.21511822  0.38956051  1  0.427733  0  0.047801  0.084189  0  3.943612  0
C  C125  1  0.99401791  0.28488238  0.88956353  1  0.427681  0  0.047779  0.08405  0  3.943551  0
C  C126  1  0.49400986  0.71512501  0.11043740  1  0.427861  0  0.047883  0.084252  0  3.943482  0
C  C127  1  0.99401500  0.78487264  0.61043736  1  0.427801  0  0.047791  0.084193  0  3.943465  0
C  C128  1  0.33984239  0.03924326  0.58181040  1  0.44661  0  0.043435  0.086467  0  3.930754  0
C  C129  1  0.83981682  0.46074858  0.08181615  1  0.446817  0  0.043408  0.086388  0  3.931035  0
C  C130  1  0.33983018  0.53925408  0.91818646  1  0.446668  0  0.043469  0.086442  0  3.931145  0
C  C131  1  0.83984210  0.96074471  0.41818814  1  0.446302  0  0.043466  0.086493  0  3.93101  0
C  C132  1  0.33822855  0.03696674  0.62882043  1  -0.042808  0  -0.081501  -0.174146  0  3.912765  0
C  C133  1  0.83820720  0.46302758  0.12882688  1  -0.043516  0  -0.081574  -0.174312  0  3.912725  0
C  C134  1  0.33821450  0.53698427  0.87117606  1  -0.043092  0  -0.081588  -0.17436  0  3.912683  0
C  C135  1  0.83822925  0.96302584  0.37117775  1  -0.043088  0  -0.081525  -0.174233  0  3.912618  0
C  C136  1  0.42168384  0.13386588  0.65314925  1  0.100697  0  0.013036  0.167315  0  4.116597  0
C  C137  1  0.92166723  0.36612966  0.15315621  1  0.100873  0  0.012937  0.167195  0  4.116145  0
C  C138  1  0.42166904  0.63388771  0.84684882  1  0.100592  0  0.013094  0.167549  0  4.116127  0
C  C139  1  0.92168019  0.86612670  0.34684730  1  0.100834  0  0.01308  0.167324  0  4.116359  0
C  C140  1  0.42140284  0.13493299  0.70101741  1  -0.022882  0  -0.048873  -0.125211  0  4.102477  0
C  C141  1  0.92138898  0.36506223  0.20102470  1  -0.022512  0  -0.048768  -0.124929  0  4.102143  0
C  C142  1  0.42137387  0.63496891  0.79898067  1  -0.022834  0  -0.048741  -0.125175  0  4.102486  0
C  C143  1  0.92139888  0.86505958  0.29897914  1  -0.022738  0  -0.048864  -0.125188  0  4.102463  0
C  C144  1  0.41942442  0.13459737  0.74242669  1  -0.413646  0  -0.027611  -0.066598  0  4.083949  0
C  C145  1  0.91942861  0.36539957  0.24243466  1  -0.413923  0  -0.027674  -0.066941  0  4.084125  0
C  C146  1  0.41940500  0.63463894  0.75757171  1  -0.413752  0  -0.027639  -0.066679  0  4.084224  0
C  C147  1  0.91942308  0.86539890  0.25756985  1  -0.413766  0  -0.027552  -0.066617  0  4.084014  0
C  C148  1  0.41570425  0.13229423  0.79037249  1  0.129874  0  -0.008026  0.111849  0  4.135587  0
C  C149  1  0.91572100  0.36770795  0.29038081  1  0.12829  0  -0.008041  0.111981  0  4.135459  0
C  C150  1  0.41569984  0.63231775  0.70962586  1  0.12971  0  -0.007965  0.112191  0  4.135453  0
C  C151  1  0.91570409  0.86770576  0.20962401  1  0.129436  0  -0.00806  0.111781  0  4.135603  0
C  C152  1  0.48743840  0.23138120  0.81586225  1  -0.124175  0  -0.085724  -0.13312  0  3.945645  0
C  C153  1  0.98745845  0.26862320  0.31587108  1  -0.1231  0  -0.085663  -0.133049  0  3.945521  0
C  C154  1  0.48745012  0.73139344  0.68413217  1  -0.124317  0  -0.085666  -0.133054  0  3.945506  0
C  C155  1  0.98744102  0.76862074  0.18413319  1  -0.123902  0  -0.085698  -0.132962  0  3.945478  0
C  C156  1  0.48449025  0.22686090  0.86303474  1  0.009798  0  -0.091149  -0.080009  0  4.003266  0
C  C157  1  0.98451873  0.27314783  0.36304393  1  0.009429  0  -0.091219  -0.080088  0  4.002877  0
C  C158  1  0.48450988  0.72685782  0.63696031  1  0.009318  0  -0.091224  -0.08015  0  4.003032  0
C  C159  1  0.98449116  0.77314200  0.13696068  1  0.009293  0  -0.091192  -0.080112  0  4.003119  0
C  C160  1  0.40772109  0.12588392  0.88558541  1  -0.0981  0  -0.081612  -0.066697  0  3.950647  0
C  C161  1  0.90775464  0.37412784  0.38559444  1  -0.0986  0  -0.081575  -0.066706  0  3.950373  0
C  C162  1  0.40773268  0.62587683  0.61441318  1  -0.098696  0  -0.081704  -0.066875  0  3.950561  0
C  C163  1  0.90771486  0.87411891  0.11441069  1  -0.098441  0  -0.081545  -0.066722  0  3.950785  0
C  C164  1  0.33491367  0.02819151  0.86051656  1  0.061377  0  -0.090071  -0.081911  0  4.006723  0
C  C165  1  0.83494249  0.47181802  0.36052508  1  0.061143  0  -0.090091  -0.081579  0  4.006474  0
C  C166  1  0.33491614  0.52819479  0.63948563  1  0.061106  0  -0.089994  -0.081651  0  4.006519  0
C  C167  1  0.83490471  0.97180845  0.13948024  1  0.061118  0  -0.090185  -0.081896  0  4.006858  0
C  C168  1  0.33991665  0.03011822  0.81332338  1  -0.101383  0  -0.082726  -0.125558  0  3.9354  0
C  C169  1  0.83993711  0.46988512  0.31333190  1  -0.100396  0  -0.082773  -0.125775  0  3.935437  0
C  C170  1  0.33991122  0.53013774  0.68667920  1  -0.101627  0  -0.082932  -0.126077  0  3.935686  0
C  C171  1  0.83991084  0.96988076  0.18667380  1  -0.101502  0  -0.082776  -0.125606  0  3.935376  0
C  C172  1  0.50542862  0.22871741  0.62792795  1  0.066499  0  -0.079131  -0.171106  0  3.913187  0
C  C173  1  0.00540809  0.27127786  0.12793439  1  0.067213  0  -0.079072  -0.170863  0  3.912826  0
C  C174  1  0.50542272  0.72873308  0.87207204  1  0.066529  0  -0.07922  -0.171354  0  3.913281  0
C  C175  1  0.00541886  0.77127058  0.37206796  1  0.066884  0  -0.079136  -0.171028  0  3.91304  0
C  C176  1  0.50098053  0.22356209  0.58090329  1  0.418448  0  0.048361  0.082817  0  3.94638  0
C  C177  1  0.00094484  0.27642893  0.08090907  1  0.418579  0  0.048328  0.082745  0  3.946274  0
C  C178  1  0.50096953  0.72357196  0.91909630  1  0.418851  0  0.048305  0.082834  0  3.94634  0
C  C179  1  0.00096161  0.77642045  0.41909292  1  0.418084  0  0.048226  0.082655  0  3.94638  0
N  N180  1  0.96023291  0.20971601  0.49216781  1  0.797785  0  0.085657  0.723782  0  4.409418  0
N  N181  1  0.46020864  0.29026856  0.99216404  1  0.79756  0  0.085743  0.724051  0  4.409738  0
N  N182  1  0.96021830  0.70973094  0.00783625  1  0.797442  0  0.085671  0.723867  0  4.410041  0
N  N183  1  0.46021764  0.79027614  0.50783112  1  0.798022  0  0.085798  0.724123  0  4.409813  0
N  N184  1  0.41544836  0.12260688  0.41322843  1  -1.190494  0  -0.348681  -0.193235  0  3.608585  0
N  N185  1  0.91543617  0.37739031  0.91323260  1  -1.190563  0  -0.348647  -0.19293  0  3.608259  0
N  N186  1  0.41544318  0.62261427  0.08676661  1  -1.190917  0  -0.348679  -0.192985  0  3.608632  0
N  N187  1  0.91544071  0.87738393  0.58676943  1  -1.190658  0  -0.348603  -0.192947  0  3.608268  0
N  N188  1  0.41922319  0.13116887  0.55797832  1  -1.192494  0  -0.345638  -0.185838  0  3.604104  0
N  N189  1  0.91918581  0.36881904  0.05798428  1  -1.192691  0  -0.345543  -0.185772  0  3.604053  0
N  N190  1  0.41920767  0.63117816  0.94201972  1  -1.192848  0  -0.345563  -0.185787  0  3.604306  0
N  N191  1  0.91920917  0.86881272  0.44201855  1  -1.192305  0  -0.345542  -0.185804  0  3.604361  0
O  O192  1  0.01267867  0.10779736  0.50935195  1  -0.568482  0  -0.21835  -0.494957  0  2.061472  0
O  O193  1  0.51265015  0.39218802  0.00934886  1  -0.568537  0  -0.218707  -0.495482  0  2.06187  0
O  O194  1  0.01266467  0.60780265  0.99065864  1  -0.568464  0  -0.218631  -0.495338  0  2.061897  0
O  O195  1  0.51264171  0.89218137  0.49063283  1  -0.56882  0  -0.21869  -0.495383  0  2.061858  0
O  O196  1  0.78953855  0.23108999  0.48578184  1  -0.546744  0  -0.216361  -0.491071  0  1.945826  0
O  O197  1  0.28951519  0.26889296  0.98577728  1  -0.546516  0  -0.216104  -0.490779  0  1.945589  0
O  O198  1  0.78952407  0.73110842  0.01422082  1  -0.546358  0  -0.216129  -0.49075  0  1.945747  0
O  O199  1  0.28952847  0.76889578  0.51422405  1  -0.546671  0  -0.216186  -0.490938  0  1.945686  0
O  O200  1  0.08179073  0.28970707  0.48155140  1  -0.562911  0  -0.219162  -0.478747  0  1.932647  0
O  O201  1  0.58177197  0.21028103  0.98154724  1  -0.562937  0  -0.219155  -0.478801  0  1.932779  0
O  O202  1  0.08177819  0.78972448  0.01844799  1  -0.563009  0  -0.219126  -0.478714  0  1.932767  0
O  O203  1  0.58179414  0.71030303  0.51845537  1  -0.562918  0  -0.219159  -0.478809  0  1.932841  0
