# generated using pymatgen
data_NiH18C20(NO4)2
_symmetry_space_group_name_H-M   'P 1'
_cell_length_a   6.74248325
_cell_length_b   11.42449974
_cell_length_c   12.58820764
_cell_angle_alpha   93.42316749
_cell_angle_beta   89.98264438
_cell_angle_gamma   107.22395104
_symmetry_Int_Tables_number   1
_chemical_formula_structural   NiH18C20(NO4)2
_chemical_formula_sum   'Ni2 H36 C40 N4 O16'
_cell_volume   924.37235047
_cell_formula_units_Z   2
loop_
 _symmetry_equiv_pos_site_id
 _symmetry_equiv_pos_as_xyz
  1  'x, y, z'
loop_
 _atom_site_type_symbol
 _atom_site_label
 _atom_site_symmetry_multiplicity
 _atom_site_fract_x
 _atom_site_fract_y
 _atom_site_fract_z
 _atom_site_occupancy
 _atom_site_hle17_ddec_charge
 _atom_site_hle17_ddec_spin_density
 _atom_site_hle17_ddec_sum_bond_order
 _atom_site_hle17_magmom
 _atom_site_hse06_10hf_ddec_charge
 _atom_site_hse06_10hf_ddec_spin_density
 _atom_site_hse06_10hf_ddec_sum_bond_order
 _atom_site_hse06_10hf_magmom
 _atom_site_hse06_ddec_charge
 _atom_site_hse06_ddec_spin_density
 _atom_site_hse06_ddec_sum_bond_order
 _atom_site_hse06_magmom
 _atom_site_pbe_cm5_charge
 _atom_site_pbe_ddec_charge
 _atom_site_pbe_ddec_spin_density
 _atom_site_pbe_ddec_sum_bond_order
 _atom_site_pbe_magmom
Ni  Ni0  1  0.56612422  0.99989731  0.75007506  1  0.836725  1.809836  2.073042  1.507  0.84193  1.877218  2.458555  1.618  0.924141  1.94232  2.388332  1.702  0.663334  0.78583  1.817823  2.50712  1.545
Ni  Ni1  1  0.43776145  0.00007728  0.24996470  1  0.680209  -0.038463  2.120415  0.017  0.674601  -0.069205  2.54461  -0.001  0.793645  -0.085671  2.446437  -0.003  0.606018  0.601208  -0.054262  2.608792  -0.001
H  H2  1  0.30222413  0.70184320  0.95677159  1  0.103175  0.000166  0.974805  0.0  0.110413  9.4e-05  1.04125  0.0  0.11401  5.6e-05  1.038425  0.0  0.10531  0.107795  0.000141  1.043343  0.0
H  H3  1  0.59964406  0.29799314  0.54311498  1  0.103562  0.000161  0.974866  0.0  0.110479  9.4e-05  1.041577  0.0  0.11406  5.6e-05  1.038828  0.0  0.105324  0.10787  0.000139  1.043659  0.0
H  H4  1  0.69534991  0.28559557  0.04444077  1  0.107341  0.000147  0.955869  0.0  0.115414  0.000253  1.02016  0.0  0.119196  0.000166  1.017494  0.0  0.10669  0.112584  0.000358  1.022201  0.0
H  H5  1  0.40946828  0.71441799  0.45584328  1  0.10639  0.000145  0.956928  0.0  0.11502  0.000254  1.020455  0.0  0.118858  0.000166  1.017689  0.0  0.106832  0.112201  0.000361  1.022459  0.0
H  H6  1  0.18131724  0.51046462  0.05366781  1  0.09185  -1.5e-05  0.972373  0.0  0.099027  3e-06  1.043114  0.0  0.101864  2e-06  1.042403  0.0  0.100487  0.096894  4e-06  1.043909  0.0
H  H7  1  0.67009700  0.48937062  0.44627454  1  0.092062  -1.8e-05  0.972109  0.0  0.098995  3e-06  1.043004  0.0  0.101968  2e-06  1.042065  0.0  0.10011  0.096777  3e-06  1.043935  0.0
H  H8  1  0.81563840  0.47635033  0.94909394  1  0.099155  -3e-06  0.973767  0.0  0.103133  -6e-06  1.048065  0.0  0.106188  -2e-06  1.046981  0.0  0.102169  0.100953  -1e-05  1.048945  0.0
H  H9  1  0.33865885  0.52361599  0.55104336  1  0.098688  -2e-06  0.975515  0.0  0.103635  -5e-06  1.048569  0.0  0.106594  -2e-06  1.047586  0.0  0.102249  0.101526  -6e-06  1.049372  0.0
H  H10  1  0.37885412  0.30899513  0.79533555  1  0.102137  -1.8e-05  0.94681  0.0  0.108101  -9e-06  1.012904  0.0  0.111086  -1.5e-05  1.01148  0.0  0.105128  0.10601  -7e-06  1.014012  0.0
H  H11  1  0.06967057  0.69111343  0.70441285  1  0.102045  -2.5e-05  0.947601  0.0  0.108813  -1.7e-05  1.012688  0.0  0.111763  -2.1e-05  1.011369  0.0  0.105365  0.106624  -1.4e-05  1.01391  0.0
H  H12  1  0.61239073  0.67618651  0.20695775  1  0.100041  -1.6e-05  0.94775  0.0  0.106224  -1.8e-05  1.013819  0.0  0.109594  -1.2e-05  1.011769  0.0  0.103321  0.103866  -2e-05  1.015306  0.0
H  H13  1  0.93647821  0.32356749  0.29281143  1  0.100224  -1.9e-05  0.947471  0.0  0.106422  -2e-05  1.013436  0.0  0.109713  -1.4e-05  1.011505  0.0  0.103389  0.104089  -2.1e-05  1.014939  0.0
H  H14  1  0.50144033  0.50361745  0.69867652  1  0.08963  -2.4e-05  1.005222  0.0  0.09693  -7e-06  1.073735  0.0  0.099213  -5e-06  1.073958  0.0  0.09832  0.09523  -8e-06  1.073741  0.0
H  H15  1  0.99769088  0.49648984  0.80103699  1  0.089619  -2.2e-05  1.004852  0.0  0.096984  -1e-05  1.073282  0.0  0.099348  -7e-06  1.073428  0.0  0.097826  0.095263  -1.2e-05  1.073335  0.0
H  H16  1  0.48701921  0.48102146  0.30206186  1  0.089745  7e-06  1.00689  0.0  0.096751  6e-06  1.075862  0.0  0.098939  5e-06  1.076179  0.0  0.097945  0.09515  7e-06  1.075815  0.0
H  H17  1  0.00661464  0.51878476  0.19785367  1  0.089605  1e-06  1.006121  0.0  0.096195  5e-06  1.075756  0.0  0.098482  4e-06  1.075975  0.0  0.097829  0.094567  5e-06  1.075696  0.0
H  H18  1  0.12062161  0.29783754  0.06442280  1  0.021344  1.9e-05  0.903505  0.0  0.030162  1.6e-05  0.973468  0.0  0.032891  9e-06  0.968936  0.0  0.096977  0.027946  2.7e-05  0.977136  0.0
H  H19  1  0.82199172  0.70207121  0.43555585  1  0.021736  1.8e-05  0.903074  0.0  0.030234  1.5e-05  0.973254  0.0  0.032886  8e-06  0.968836  0.0  0.097023  0.028039  2.6e-05  0.976876  0.0
H  H20  1  0.87492928  0.69216958  0.93921292  1  0.028867  -1.8e-05  0.897034  0.0  0.037842  -2.2e-05  0.963503  0.0  0.039743  -1e-05  0.960049  0.0  0.101547  0.036285  -4.1e-05  0.966342  0.0
H  H21  1  0.18214126  0.30781462  0.56080346  1  0.029009  -2.2e-05  0.896767  0.0  0.038434  -2.2e-05  0.963137  0.0  0.040397  -1e-05  0.959568  0.0  0.101577  0.036826  -4.4e-05  0.966038  0.0
H  H22  1  0.83622726  0.91567593  0.89416665  1  0.103135  0.001014  0.965423  0.002  0.104335  0.000834  1.035713  0.002  0.108083  0.000613  1.032499  0.001  0.121688  0.101401  0.001083  1.038653  0.002
H  H23  1  0.92112244  0.08465500  0.60645171  1  0.102733  0.001017  0.965842  0.002  0.103752  0.000837  1.036291  0.002  0.107597  0.000614  1.032994  0.001  0.121628  0.100744  0.001088  1.039299  0.002
H  H24  1  0.16109085  0.07506249  0.10087561  1  0.115786  0.000356  0.96744  0.001  0.115794  0.000421  1.035915  0.001  0.118093  0.000402  1.034324  0.001  0.128047  0.11416  0.000411  1.037671  0.001
H  H25  1  0.08530051  0.92482116  0.39878996  1  0.115464  0.000351  0.965749  0.001  0.115444  0.000421  1.034685  0.001  0.117768  0.000403  1.033059  0.001  0.127599  0.113801  0.000411  1.036436  0.001
H  H26  1  0.21013500  0.91426149  0.89380307  1  0.106156  0.000935  0.971861  0.002  0.110658  0.000756  1.036951  0.002  0.114227  0.00055  1.033219  0.001  0.121588  0.107784  0.000995  1.04032  0.002
H  H27  1  0.29632643  0.08568676  0.60660054  1  0.106589  0.000937  0.970088  0.002  0.111248  0.000757  1.035157  0.002  0.114894  0.000552  1.031283  0.001  0.121298  0.108244  0.000996  1.038717  0.002
H  H28  1  0.78973213  0.07529172  0.10167610  1  0.112536  0.000633  0.934254  0.001  0.116443  0.000797  1.000467  0.001  0.118724  0.000672  0.997991  0.001  0.13137  0.114766  0.000896  1.002761  0.001
H  H29  1  0.71392468  0.92496798  0.39800785  1  0.113577  0.000632  0.93324  0.001  0.117641  0.000794  0.999016  0.001  0.120006  0.00067  0.996407  0.001  0.131551  0.115857  0.000892  1.00143  0.001
H  H30  1  0.41607340  0.91861587  0.55249774  1  0.428725  -0.00046  0.826001  -0.001  0.406516  0.000294  0.893348  0.0  0.415395  0.000115  0.884154  0.0  0.311109  0.400284  0.000462  0.899569  0.0
H  H31  1  0.49795209  0.08126814  0.94769807  1  0.428413  -0.000461  0.82692  -0.001  0.406444  0.000294  0.893649  0.0  0.415284  0.000113  0.884525  0.0  0.31111  0.400268  0.000461  0.899766  0.0
H  H32  1  0.59645340  0.10804138  0.48304807  1  0.417519  -5.5e-05  0.847464  0.0  0.395642  -5.5e-05  0.916195  0.0  0.405288  -4.9e-05  0.904631  0.0  0.300685  0.388849  -5.8e-05  0.924496  0.0
H  H33  1  0.48814339  0.89249240  0.01677215  1  0.417173  -5.7e-05  0.846911  0.0  0.395295  -5.6e-05  0.915701  0.0  0.404947  -5.1e-05  0.904151  0.0  0.300574  0.388493  -5.9e-05  0.924008  0.0
H  H34  1  0.53380232  0.83497855  0.61121263  1  0.403607  -0.000895  0.919463  -0.002  0.369763  -0.000254  0.990141  -0.001  0.382608  -0.000355  0.971924  -0.001  0.280091  0.360704  -0.00013  1.002885  0.0
H  H35  1  0.69919269  0.16500196  0.88872338  1  0.403818  -0.000896  0.918884  -0.002  0.370146  -0.000255  0.989282  -0.001  0.382994  -0.000356  0.971061  -0.001  0.280391  0.361092  -0.000131  1.002018  0.0
H  H36  1  0.44988635  0.15653703  0.41129923  1  0.399899  -5.8e-05  0.921753  0.0  0.365516  -8.4e-05  0.994348  0.0  0.376486  -7.1e-05  0.978274  0.0  0.275033  0.357703  -8.1e-05  1.005846  0.0
H  H37  1  0.29348462  0.84354710  0.08886256  1  0.399894  -5.5e-05  0.922035  0.0  0.365915  -7.9e-05  0.99416  0.0  0.376905  -6.6e-05  0.978069  0.0  0.275054  0.358083  -7.5e-05  1.005679  0.0
C  C38  1  0.47664232  0.72742172  0.76101279  1  0.625936  -0.005707  3.901962  -0.006  0.580837  -0.001146  4.201666  -0.002  0.617075  -0.001165  4.195094  -0.002  0.208388  0.555877  -0.001318  4.204784  -0.002
C  C39  1  0.74914098  0.27252173  0.73876831  1  0.625272  -0.005672  3.902644  -0.006  0.580355  -0.001136  4.202216  -0.002  0.61654  -0.00117  4.195733  -0.002  0.208119  0.555478  -0.001263  4.205123  -0.002
C  C40  1  0.51207812  0.25852959  0.24128838  1  0.618506  0.000331  3.880413  0.002  0.574612  -0.00052  4.182532  0.001  0.613661  -0.000379  4.177705  0.001  0.212134  0.547629  -0.000504  4.184206  0.001
C  C41  1  0.25389886  0.74147184  0.25888166  1  0.619034  0.000338  3.883416  0.002  0.575061  -0.000503  4.18568  0.001  0.61415  -0.000359  4.180836  0.001  0.212489  0.548053  -0.000495  4.187365  0.001
C  C42  1  0.40974658  0.61350521  0.82222031  1  -0.043803  0.006335  3.730151  0.008  -0.021267  0.003556  3.957341  0.005  -0.028054  0.002648  3.979314  0.003  -0.008406  -0.016874  0.00446  3.942635  0.006
C  C43  1  0.79595429  0.38645736  0.67756761  1  -0.044473  0.00636  3.730005  0.008  -0.021422  0.003579  3.956594  0.005  -0.028212  0.002652  3.978608  0.003  -0.008314  -0.017007  0.004531  3.941796  0.006
C  C44  1  0.58476527  0.37201307  0.17963516  1  -0.048094  -0.001978  3.725818  -0.001  -0.025614  -0.001109  3.953484  -0.001  -0.03294  -0.001027  3.975202  -0.001  -0.009361  -0.020945  -0.001024  3.939303  -0.001
C  C45  1  0.21276744  0.62796581  0.32050066  1  -0.049794  -0.001927  3.727551  -0.001  -0.027288  -0.001082  3.955161  -0.001  -0.034806  -0.001004  3.97722  -0.001  -0.009978  -0.022418  -0.001004  3.940602  -0.001
C  C46  1  0.31879367  0.61578718  0.92206377  1  -0.079953  -0.002285  3.72193  -0.002  -0.101615  -0.00058  3.967114  -0.001  -0.102844  -0.000553  3.987446  -0.001  -0.085221  -0.100636  -0.000683  3.953404  -0.001
C  C47  1  0.70250474  0.38408357  0.57780434  1  -0.080301  -0.002245  3.722374  -0.002  -0.101982  -0.000536  3.967748  -0.001  -0.103296  -0.00053  3.988176  0.0  -0.085109  -0.100918  -0.000592  3.95389  -0.001
C  C48  1  0.67846446  0.37103931  0.08038009  1  -0.0727  0.000226  3.709554  0.0  -0.095184  9.7e-05  3.957183  0.0  -0.095457  7.5e-05  3.976392  0.0  -0.082103  -0.094839  0.000139  3.944242  0.0
C  C49  1  0.30712606  0.62896816  0.41982321  1  -0.071576  0.000239  3.707767  0.0  -0.094562  0.0001  3.956149  0.0  -0.094852  7.7e-05  3.975349  0.0  -0.082329  -0.09424  0.000147  3.943252  0.0
C  C50  1  0.25001726  0.50830684  0.97546392  1  -0.077133  0.000621  3.72539  0.001  -0.098076  5.6e-05  3.973054  0.0  -0.100355  0.00012  3.995241  0.0  -0.075916  -0.096587  -3.9e-05  3.958202  0.0
C  C51  1  0.74113980  0.49154686  0.52438985  1  -0.077949  0.000672  3.724299  0.001  -0.098274  8.8e-05  3.972215  0.0  -0.100668  0.00013  3.99443  0.0  -0.076156  -0.096649  5.7e-05  3.957249  0.0
C  C52  1  0.74700787  0.47901995  0.02726154  1  -0.079606  -0.000184  3.714547  0.0  -0.099862  -3.8e-05  3.96518  0.0  -0.103022  -5.1e-05  3.988002  0.0  -0.074596  -0.097632  -3.7e-05  3.949664  0.0
C  C53  1  0.26749660  0.52095249  0.47286333  1  -0.079197  -0.000196  3.714494  0.0  -0.100463  -3.8e-05  3.965331  0.0  -0.103579  -5.2e-05  3.988236  0.0  -0.074382  -0.098293  -3.8e-05  3.949808  0.0
C  C54  1  0.27201158  0.39799170  0.92977739  1  -0.010832  -0.001788  3.805044  -0.001  0.010459  -0.000564  4.034794  0.0  0.005937  -0.000497  4.057329  0.0  -0.018652  0.013623  -0.00074  4.019455  -0.001
C  C55  1  0.87356694  0.60197567  0.57007076  1  -0.00943  -0.001789  3.804392  -0.001  0.010907  -0.000544  4.034959  0.0  0.006471  -0.000489  4.057403  0.0  -0.017933  0.01403  -0.000671  4.019551  0.0
C  C56  1  0.72346845  0.58893897  0.07304539  1  -0.00772  0.000174  3.793036  0.0  0.010312  4.6e-05  4.026199  0.0  0.005751  6e-05  4.049216  0.0  -0.016929  0.013549  2.7e-05  4.010395  0.0
C  C57  1  0.13413782  0.41094360  0.42698345  1  -0.007714  0.000186  3.793011  0.0  0.010808  5.1e-05  4.02607  0.0  0.006254  6.4e-05  4.049074  0.0  -0.016633  0.01403  3.1e-05  4.010302  0.0
C  C58  1  0.36334242  0.39566166  0.82960931  1  -0.054596  0.001118  3.684452  0.001  -0.07788  0.00034  3.934713  0.0  -0.078796  0.000306  3.954652  0.0  -0.073022  -0.077175  0.000398  3.921094  0.001
C  C59  1  0.96738487  0.60439224  0.67016305  1  -0.054953  0.001115  3.686868  0.001  -0.078557  0.000334  3.93665  0.0  -0.07953  0.0003  3.956683  0.0  -0.073677  -0.077701  0.000397  3.922887  0.001
C  C60  1  0.62972477  0.58996917  0.17262555  1  -0.061318  -0.000388  3.696467  0.0  -0.083508  -0.000177  3.947144  0.0  -0.084912  -0.000165  3.967402  0.0  -0.075411  -0.082414  -0.000173  3.933235  0.0
C  C61  1  0.03978264  0.40986204  0.32730585  1  -0.061332  -0.00038  3.697503  0.0  -0.083606  -0.000169  3.947908  0.0  -0.084941  -0.000156  3.968209  0.0  -0.075223  -0.082577  -0.000174  3.933969  0.0
C  C62  1  0.43094756  0.50281128  0.77642553  1  -0.086301  -0.001145  3.745836  -0.001  -0.108595  2.5e-05  3.99489  0.0  -0.111014  -0.0001  4.018278  0.0  -0.08548  -0.106814  9.6e-05  3.979103  0.0
C  C63  1  0.92791680  0.49723185  0.72330725  1  -0.085792  -0.001144  3.746857  -0.001  -0.108239  2.9e-05  3.995589  0.0  -0.110736  -9.5e-05  4.018969  0.0  -0.084496  -0.106373  9.9e-05  3.97967  0.0
C  C64  1  0.56097643  0.48242891  0.22515544  1  -0.086516  -4.7e-05  3.745766  0.0  -0.108821  -0.000196  3.994788  0.0  -0.111353  -0.000141  4.018694  0.0  -0.084677  -0.106868  -0.000205  3.978445  0.0
C  C65  1  0.07879072  0.51743988  0.27484509  1  -0.085206  -3.9e-05  3.744999  0.0  -0.107043  -0.000204  3.993722  0.0  -0.109622  -0.000147  4.017548  0.0  -0.084381  -0.105088  -0.000216  3.977462  0.0
C  C66  1  0.20397332  0.28709964  0.98937272  1  0.346326  -0.000195  3.680878  0.0  0.30317  -7.4e-05  3.951965  0.0  0.324109  -1.1e-05  3.951876  0.0  0.104909  0.288684  -0.000269  3.952137  0.0
C  C67  1  0.91581310  0.71298550  0.51068562  1  0.345691  -6.1e-05  3.679337  0.0  0.303064  1.1e-05  3.950553  0.0  0.323959  1.4e-05  3.950453  0.0  0.104732  0.288724  -0.0  3.950522  0.0
C  C68  1  0.79171524  0.70122221  0.01452342  1  0.352506  -9.1e-05  3.662863  0.0  0.311339  -6.7e-05  3.934515  0.0  0.332098  -4.9e-05  3.935123  0.0  0.10809  0.297038  -9.7e-05  3.933995  0.0
C  C69  1  0.08995935  0.29864558  0.48545641  1  0.351417  -7.9e-05  3.664607  0.0  0.309257  -6e-05  3.937416  0.0  0.329978  -3.7e-05  3.93813  0.0  0.107307  0.295022  -0.000109  3.936779  0.0
C  C70  1  0.93914713  0.95244959  0.82959334  1  0.08946  -0.003966  3.627273  -0.002  0.063389  -0.001044  3.877056  0.0  0.06828  -0.001169  3.891215  -0.001  0.056451  0.058785  -0.001405  3.870427  0.0
C  C71  1  0.98714244  0.04781737  0.67096390  1  0.090003  -0.004036  3.629267  -0.002  0.064228  -0.001093  3.878995  0.0  0.069046  -0.001205  3.893079  -0.001  0.056618  0.059658  -0.001464  3.872438  0.0
C  C72  1  0.06283024  0.04218281  0.16825879  1  0.087214  -0.000311  3.578327  0.0  0.060951  0.000797  3.826775  0.001  0.066549  0.000474  3.843913  0.001  0.064204  0.055672  0.00096  3.818232  0.001
C  C73  1  0.02025703  0.95774971  0.33139661  1  0.088239  -0.000315  3.577981  0.0  0.061352  0.000783  3.82735  0.001  0.066973  0.000453  3.844383  0.001  0.064272  0.056052  0.00096  3.818864  0.001
C  C74  1  0.14431303  0.95151222  0.82919707  1  0.082549  -0.003615  3.64674  -0.001  0.056843  -0.000919  3.90169  0.0  0.062013  -0.001056  3.914872  -0.001  0.05415  0.052145  -0.001221  3.895648  0.0
C  C75  1  0.19306583  0.04851119  0.67123735  1  0.082903  -0.003751  3.644717  -0.002  0.056849  -0.001018  3.89994  0.0  0.062049  -0.001117  3.913062  -0.001  0.054618  0.052128  -0.001391  3.894029  0.0
C  C76  1  0.85614627  0.04245815  0.16856338  1  0.095492  0.00022  3.595379  0.001  0.067003  0.001158  3.852072  0.001  0.073799  0.000851  3.866873  0.001  0.067029  0.060887  0.001308  3.845426  0.002
C  C77  1  0.81341909  0.95763437  0.33109886  1  0.09434  0.000196  3.59657  0.001  0.066073  0.001136  3.852998  0.001  0.072903  0.000832  3.867724  0.001  0.067426  0.059955  0.001281  3.846439  0.002
N  N78  1  0.86157696  0.00015832  0.75027620  1  -0.224949  0.046563  3.319217  0.071  -0.180026  0.032858  3.592138  0.05  -0.199991  0.027226  3.609105  0.043  -0.322562  -0.168406  0.03666  3.583384  0.055
N  N79  1  0.14612177  0.99990795  0.24983145  1  -0.190056  0.014729  3.290023  0.02  -0.142009  0.012517  3.565657  0.016  -0.173405  0.012074  3.587126  0.015  -0.301299  -0.123139  0.0115  3.553736  0.015
N  N80  1  0.27051105  0.99991615  0.75016734  1  -0.252632  0.044256  3.357713  0.069  -0.2164  0.031325  3.649901  0.048  -0.235978  0.025895  3.664642  0.041  -0.327302  -0.204919  0.035011  3.642497  0.052
N  N81  1  0.72997301  0.00009240  0.24984931  1  -0.198089  0.013835  3.303206  0.018  -0.156906  0.011879  3.592763  0.015  -0.186846  0.011352  3.610094  0.014  -0.303071  -0.139342  0.011045  3.584363  0.014
O  O82  1  0.52292389  0.71551286  0.66402921  1  -0.605087  -0.002912  1.987506  -0.002  -0.551429  -0.001643  2.209857  -0.001  -0.577482  -0.001665  2.20295  -0.001  -0.312527  -0.533096  -0.001672  2.213922  -0.001
O  O83  1  0.80761764  0.28455508  0.83569714  1  -0.604899  -0.002732  1.98816  -0.002  -0.55106  -0.001512  2.209831  -0.001  -0.577302  -0.001599  2.203155  -0.001  -0.312089  -0.532531  -0.001399  2.21377  -0.001
O  O84  1  0.44813287  0.26798219  0.33403854  1  -0.585706  2.2e-05  1.99305  0.0  -0.535464  -5.4e-05  2.215459  0.0  -0.56338  3.1e-05  2.210025  0.0  -0.298478  -0.515451  -8.4e-05  2.21846  0.0
O  O85  1  0.18133707  0.73182183  0.16594709  1  -0.585698  1.7e-05  1.994042  0.0  -0.535833  -4.3e-05  2.216816  0.0  -0.563832  4.1e-05  2.211365  0.0  -0.298426  -0.515747  -8.6e-05  2.219819  0.0
O  O86  1  0.47773918  0.82793877  0.81193519  1  -0.6081  0.054267  2.1094  0.089  -0.582266  0.03685  2.387594  0.061  -0.621999  0.027942  2.38156  0.048  -0.308168  -0.552078  0.045461  2.389528  0.073
O  O87  1  0.64970072  0.17192518  0.68793616  1  -0.607424  0.05404  2.108226  0.088  -0.582132  0.036735  2.386421  0.061  -0.621808  0.027858  2.380443  0.048  -0.307958  -0.552026  0.045301  2.388375  0.073
O  O88  1  0.52378472  0.15788495  0.19145756  1  -0.560132  -0.031012  2.142075  -0.028  -0.541203  -0.020559  2.44292  -0.019  -0.59686  -0.019123  2.437945  -0.018  -0.299056  -0.500548  -0.019143  2.44352  -0.018
O  O89  1  0.36562781  0.84227703  0.30883384  1  -0.560057  -0.03085  2.1411  -0.028  -0.54083  -0.020458  2.441523  -0.019  -0.596426  -0.019022  2.436598  -0.018  -0.298843  -0.500256  -0.019052  2.442109  -0.018
O  O90  1  0.23519155  0.18858431  0.96333472  1  -0.427162  -0.000691  1.988674  -0.001  -0.37612  -0.000242  2.203881  0.0  -0.394557  -0.000217  2.20219  0.0  -0.252681  -0.363354  -0.000352  2.205025  0.0
O  O91  1  0.04486345  0.81181955  0.53702712  1  -0.427591  -0.000658  1.986765  -0.001  -0.375927  -0.000201  2.200684  0.0  -0.394436  -0.000202  2.199154  0.0  -0.252503  -0.363042  -0.000215  2.201669  0.0
O  O92  1  0.76033480  0.79914237  0.04262248  1  -0.430916  0.000114  1.975075  0.0  -0.382423  8.1e-05  2.190684  0.0  -0.401608  6.2e-05  2.18918  0.0  -0.255193  -0.369105  0.000115  2.19181  0.0
O  O93  1  0.96073594  0.20061396  0.45733870  1  -0.429994  8.5e-05  1.976363  0.0  -0.381532  3.5e-05  2.192916  0.0  -0.400751  3.4e-05  2.191464  0.0  -0.254767  -0.368088  4.6e-05  2.193818  0.0
O  O94  1  0.54552632  0.92193593  0.58924607  1  -0.79353  0.045639  1.906045  0.072  -0.766198  0.034354  2.12225  0.053  -0.796631  0.026085  2.093963  0.042  -0.566059  -0.742453  0.042292  2.140827  0.063
O  O95  1  0.62407647  0.07805921  0.91089562  1  -0.793704  0.045578  1.907439  0.072  -0.766402  0.034356  2.123599  0.053  -0.796702  0.026088  2.095173  0.042  -0.566328  -0.742736  0.042297  2.142166  0.063
O  O96  1  0.45460450  0.08693836  0.45496107  1  -0.825772  1.6e-05  1.818729  0.0  -0.783553  8.9e-05  2.00639  0.0  -0.801278  -3.7e-05  1.972826  0.0  -0.589527  -0.772192  0.000381  2.030918  0.001
O  O97  1  0.36727437  0.91323102  0.04507199  1  -0.825288  0.000126  1.819478  0.001  -0.783586  0.000217  2.006706  0.001  -0.80121  6.2e-05  1.972807  0.0  -0.589306  -0.772227  0.000528  2.031329  0.001
