# generated using pymatgen
data_Zn2H22C31(NO2)4
_symmetry_space_group_name_H-M   'P 1'
_cell_length_a   8.68176507
_cell_length_b   12.86282278
_cell_length_c   13.95900000
_cell_angle_alpha   93.79235987
_cell_angle_beta   98.69917276
_cell_angle_gamma   107.56826148
_symmetry_Int_Tables_number   1
_chemical_formula_structural   Zn2H22C31(NO2)4
_chemical_formula_sum   'Zn4 H44 C62 N8 O16'
_cell_volume   1458.65333989
_cell_formula_units_Z   2
loop_
 _symmetry_equiv_pos_site_id
 _symmetry_equiv_pos_as_xyz
  1  'x, y, z'
loop_
 _atom_site_type_symbol
 _atom_site_label
 _atom_site_symmetry_multiplicity
 _atom_site_fract_x
 _atom_site_fract_y
 _atom_site_fract_z
 _atom_site_occupancy
 _atom_site_hle17_bader_spin_density
 _atom_site_hle17_ddec_charge
 _atom_site_hle17_ddec_spin_density
 _atom_site_hle17_ddec_sum_bond_order
 _atom_site_hle17_magmom
 _atom_site_hse06_10hf_bader_spin_density
 _atom_site_hse06_10hf_ddec_charge
 _atom_site_hse06_10hf_ddec_spin_density
 _atom_site_hse06_10hf_ddec_sum_bond_order
 _atom_site_hse06_10hf_magmom
 _atom_site_hse06_bader_spin_density
 _atom_site_hse06_ddec_charge
 _atom_site_hse06_ddec_spin_density
 _atom_site_hse06_ddec_sum_bond_order
 _atom_site_hse06_magmom
 _atom_site_pbe_bader_charge
 _atom_site_pbe_bader_spin_density
 _atom_site_pbe_cm5_charge
 _atom_site_pbe_ddec_charge
 _atom_site_pbe_ddec_spin_density
 _atom_site_pbe_ddec_sum_bond_order
 _atom_site_pbe_magmom
Zn  Zn0  1  0.28989880  0.46122688  0.93136649  1  0  1.069374  0  1.840642  0  0  0.894417  0  2.314528  0  0  0.941554  0  2.256022  0  1.290873  0  0.698996  0.861297  0  2.354916  0
Zn  Zn1  1  0.71010217  0.53877434  0.06863332  1  0  1.069399  0  1.840598  0  0  0.894433  0  2.314511  0  0  0.94157  0  2.256004  0  1.290834  0  0.699038  0.861313  0  2.354898  0
Zn  Zn2  1  0.92818719  0.99766554  0.58970073  1  0  1.062365  0  1.866296  0  0  0.894923  0  2.333526  0  0  0.946872  0  2.267784  0  1.308812  0  0.678581  0.858573  0  2.378707  0
Zn  Zn3  1  0.07181183  0.00233405  0.41029880  1  0  1.062386  0  1.866297  0  0  0.894938  0  2.333539  0  0  0.946887  0  2.267794  0  1.308734  0  0.678569  0.858591  0  2.378721  0
H  H4  1  0.05898400  0.31011511  0.73795860  1  0  0.116126  0  0.938007  0  0  0.127667  0  0.992387  0  0  0.130044  0  0.991588  0  0.134806  0  0.124402  0.125906  0  0.993132  0
H  H5  1  0.94101968  0.68988694  0.26204796  1  0  0.116118  0  0.938023  0  0  0.127712  0  0.992339  0  0  0.130088  0  0.99154  0  0.134717  0  0.124427  0.125955  0  0.993085  0
H  H6  1  0.74771107  0.17131169  0.74850809  1  0  0.104324  0  1.013173  0  0  0.111421  0  1.080489  0  0  0.112975  0  1.081933  0  0.137146  0  0.117297  0.110249  0  1.079673  0
H  H7  1  0.25229300  0.82868871  0.25149267  1  0  0.104338  0  1.013153  0  0  0.111439  0  1.080466  0  0  0.112992  0  1.081912  0  0.137066  0  0.11733  0.110268  0  1.079649  0
H  H8  1  0.97436877  0.34622547  0.02724515  1  0  0.119824  0  0.934311  0  0  0.128619  0  0.996671  0  0  0.131813  0  0.992262  0  0.195967  0  0.142973  0.126259  0  0.999832  0
H  H9  1  0.02562520  0.65377576  0.97275758  1  0  0.119718  0  0.934295  0  0  0.128491  0  0.996688  0  0  0.131684  0  0.992279  0  0.196045  0  0.14295  0.126135  0  0.999843  0
H  H10  1  0.57686476  0.14944706  0.88695730  1  0  0.086112  0  0.936432  0  0  0.099611  0  1.002144  0  0  0.100564  0  1.002119  0  0.058064  0  0.112559  0.098857  0  1.00227  0
H  H11  1  0.42313426  0.85055253  0.11304223  1  0  0.086106  0  0.936423  0  0  0.099602  0  1.00217  0  0  0.100553  0  1.002143  0  0.058078  0  0.112562  0.098849  0  1.002297  0
H  H12  1  0.67197584  0.22682041  0.00211706  1  0  0.109905  0  0.941442  0  0  0.122771  0  1.006386  0  0  0.124035  0  1.005644  0  0.150505  0  0.118639  0.12176  0  1.007018  0
H  H13  1  0.32802046  0.77317835  0.99788359  1  0  0.109867  0  0.941427  0  0  0.122734  0  1.006408  0  0  0.123996  0  1.005663  0  0.150534  0  0.118627  0.121724  0  1.00704  0
H  H14  1  0.90446449  0.17825388  0.10195440  1  0  0.098898  0  0.95256  0  0  0.111734  0  1.011019  0  0  0.114401  0  1.009384  0  0.077043  0  0.106112  0.10972  0  1.012406  0
H  H15  1  0.09553453  0.82174571  0.89804512  1  0  0.098889  0  0.952573  0  0  0.111725  0  1.011035  0  0  0.114394  0  1.009399  0  0.077025  0  0.106106  0.109704  0  1.012431  0
H  H16  1  0.96130863  0.02431201  0.18253066  1  0  0.094668  0  0.964368  0  0  0.107828  0  1.02176  0  0  0.110308  0  1.020306  0  0.07471  0  0.10319  0.106009  0  1.022914  0
H  H17  1  0.03869078  0.97568839  0.81746967  1  0  0.094653  0  0.964366  0  0  0.107815  0  1.021754  0  0  0.110295  0  1.0203  0  0.074698  0  0.103191  0.105997  0  1.022908  0
H  H18  1  0.82385479  0.83159683  0.10549185  1  0  0.09602  0  0.964361  0  0  0.105761  0  1.02699  0  0  0.108004  0  1.026634  0  0.113855  0  0.101918  0.104143  0  1.027322  0
H  H19  1  0.17614423  0.16840276  0.89450911  1  0  0.096017  0  0.964361  0  0  0.105757  0  1.026996  0  0  0.107999  0  1.026639  0  0.1138  0  0.101906  0.104139  0  1.027329  0
H  H20  1  0.61205098  0.79374045  0.95573517  1  0  0.108011  0  0.93953  0  0  0.121078  0  0.993722  0  0  0.123942  0  0.992617  0  0.120214  0  0.106609  0.119008  0  0.994564  0
H  H21  1  0.38794921  0.20625913  0.04426518  1  0  0.107978  0  0.939599  0  0  0.121055  0  0.993777  0  0  0.123921  0  0.992672  0  0.12021  0  0.106586  0.118985  0  0.99462  0
H  H22  1  0.43281068  0.84825133  0.84704525  1  0  0.09449  0  0.925131  0  0  0.108077  0  0.988866  0  0  0.108251  0  0.989162  0  0.062254  0  0.115157  0.107798  0  0.988827  0
H  H23  1  0.56718717  0.15174825  0.15295488  1  0  0.094508  0  0.925139  0  0  0.108098  0  0.988844  0  0  0.108267  0  0.989145  0  0.062277  0  0.115156  0.107818  0  0.988808  0
H  H24  1  0.41698909  0.98175675  0.86073002  1  0  0.082257  0  0.968617  0  0  0.09759  0  1.031765  0  0  0.09769  0  1.033377  0  0.089228  0  0.113266  0.097429  0  1.030739  0
H  H25  1  0.58300993  0.01824284  0.13927094  1  0  0.082251  0  0.968638  0  0  0.097572  0  1.031785  0  0  0.097658  0  1.03341  0  0.089238  0  0.113249  0.09741  0  1.030759  0
H  H26  1  0.38160275  0.01945421  0.68709782  1  0  0.133056  0  0.948775  0  0  0.142793  0  1.007209  0  0  0.145271  0  1.006694  0  0.133718  0  0.128735  0.140983  0  1.007674  0
H  H27  1  0.61839316  0.98054373  0.31290275  1  0  0.133088  0  0.948808  0  0  0.142826  0  1.007237  0  0  0.145304  0  1.006721  0  0.133692  0  0.128736  0.141017  0  1.007703  0
H  H28  1  0.60282317  0.05858766  0.55634309  1  0  0.117637  0  0.956922  0  0  0.125157  0  1.018107  0  0  0.127503  0  1.017526  0  0.169366  0  0.124209  0.12341  0  1.01871  0
H  H29  1  0.39717585  0.94141193  0.44365572  1  0  0.117621  0  0.956982  0  0  0.125143  0  1.018155  0  0  0.127487  0  1.017579  0  0.169375  0  0.124194  0.123382  0  1.018775  0
H  H30  1  0.79104258  0.92083505  0.79482810  1  0  0.095699  0  0.951727  0  0  0.106582  0  1.011974  0  0  0.108767  0  1.009435  0  0.108172  0  0.138547  0.104987  0  1.013743  0
H  H31  1  0.20895605  0.07916372  0.20517133  1  0  0.095709  0  0.951705  0  0  0.106594  0  1.011944  0  0  0.108779  0  1.009407  0  0.108169  0  0.138562  0.104999  0  1.013713  0
H  H32  1  0.33911764  0.24906776  0.79243910  1  0  0.099935  0  0.975273  0  0  0.104574  0  1.051273  0  0  0.10848  0  1.047882  0  0.10067  0  0.102099  0.101736  0  1.053751  0
H  H33  1  0.66088021  0.75093429  0.20755975  1  0  0.099927  0  0.975268  0  0  0.104572  0  1.051262  0  0  0.108477  0  1.047872  0  0.100653  0  0.102093  0.101732  0  1.053743  0
H  H34  1  0.46815161  0.28891242  0.50951059  1  0  0.110295  0  0.942332  0  0  0.119334  0  1.003413  0  0  0.123505  0  1.00021  0  0.073617  0  0.105158  0.11632  0  1.00574  0
H  H35  1  0.53184857  0.71108470  0.49049032  1  0  0.110267  0  0.942372  0  0  0.119309  0  1.003454  0  0  0.123481  0  1.000249  0  0.07362  0  0.105153  0.116296  0  1.005778  0
H  H36  1  0.77020263  0.50923578  0.76124575  1  0  0.110233  0  0.930234  0  0  0.12146  0  0.988001  0  0  0.125375  0  0.98497  0  0.086516  0  0.107952  0.118614  0  0.990227  0
H  H37  1  0.22979678  0.49076709  0.23875257  1  0  0.110179  0  0.930266  0  0  0.121404  0  0.988037  0  0  0.125319  0  0.985012  0  0.086536  0  0.107946  0.118558  0  0.990263  0
H  H38  1  0.68679046  0.53701026  0.53455988  1  0  0.092792  0  0.917192  0  0  0.112904  0  0.971827  0  0  0.113719  0  0.971791  0  0.063002  0  0.100727  0.112307  0  0.971901  0
H  H39  1  0.31321089  0.46298933  0.46543843  1  0  0.09274  0  0.917207  0  0  0.112854  0  0.971864  0  0  0.113668  0  0.971829  0  0.062983  0  0.100707  0.112255  0  0.971939  0
H  H40  1  0.86034163  0.52108258  0.60681844  1  0  0.092626  0  0.930783  0  0  0.110534  0  0.990122  0  0  0.110749  0  0.991588  0  0.053496  0  0.099288  0.110334  0  0.989172  0
H  H41  1  0.13965933  0.47891619  0.39318193  1  0  0.092611  0  0.930729  0  0  0.110534  0  0.990077  0  0  0.11075  0  0.991544  0  0.053508  0  0.099288  0.110332  0  0.989128  0
H  H42  1  0.84206990  0.29367742  0.56559635  1  0  0.102791  0  0.946649  0  0  0.113751  0  1.007985  0  0  0.1173  0  1.005668  0  0.079617  0  0.104088  0.111211  0  1.00963  0
H  H43  1  0.15793766  0.70632545  0.43440275  1  0  0.102752  0  0.946722  0  0  0.11377  0  1.00798  0  0  0.117288  0  1.005713  0  0.079623  0  0.104102  0.111231  0  1.009625  0
H  H44  1  0.85147332  0.23712569  0.26033277  1  0  0.102848  0  0.961722  0  0  0.110473  0  1.030766  0  0  0.114635  0  1.026841  0  0.104627  0  0.101992  0.107427  0  1.033608  0
H  H45  1  0.14852299  0.76287061  0.73966630  1  0  0.102811  0  0.961715  0  0  0.110451  0  1.030743  0  0  0.114612  0  1.026822  0  0.104661  0  0.101988  0.107426  0  1.033562  0
H  H46  1  0.68834822  0.50029627  0.36552777  1  0  0.107114  0  0.95374  0  0  0.114902  0  1.019661  0  0  0.118016  0  1.01835  0  0.096913  0  0.102529  0.112621  0  1.02068  0
H  H47  1  0.31165235  0.49970414  0.63446980  1  0  0.107103  0  0.953761  0  0  0.11489  0  1.019685  0  0  0.118004  0  1.018373  0  0.096912  0  0.102526  0.112608  0  1.020703  0
C  C48  1  0.99603574  0.29603036  0.79958677  1  0  0.007471  0  3.731224  0  0  -0.024023  0  3.993746  0  0  -0.022626  0  4.013613  0  0.418189  0  0.001882  -0.025012  0  3.98043  0
C  C49  1  0.00396406  0.70397087  0.20041794  1  0  0.007363  0  3.731157  0  0  -0.024191  0  3.993718  0  0  -0.022793  0  4.013581  0  0.418144  0  0.001823  -0.025185  0  3.980411  0
C  C50  1  0.84391591  0.22577576  0.80417620  1  0  -0.058797  0  3.676839  0  0  -0.102076  0  3.939272  0  0  -0.100821  0  3.960158  0  0.29378  0  5.2e-05  -0.102835  0  3.925277  0
C  C51  1  0.15608505  0.77422547  0.19582647  1  0  -0.05873  0  3.676701  0  0  -0.10202  0  3.939172  0  0  -0.100763  0  3.960056  0  0.294  0  1e-06  -0.102786  0  3.925181  0
C  C52  1  0.96008162  0.31630583  0.95085109  1  0  0.176925  0  3.616867  0  0  0.114113  0  3.879698  0  0  0.12855  0  3.891865  0  0.957019  0  0.151564  0.104831  0  3.871154  0
C  C53  1  0.03991429  0.68369457  0.04915177  1  0  0.177042  0  3.616965  0  0  0.114249  0  3.879783  0  0  0.128688  0  3.891952  0  0.957067  0  0.151578  0.104962  0  3.871239  0
C  C54  1  0.68817781  0.17278094  0.94277757  1  0  -0.04945  0  3.623576  0  0  -0.116584  0  3.870475  0  0  -0.112308  0  3.880761  0  0.271547  0  -0.04947  -0.119277  0  3.863463  0
C  C55  1  0.31181965  0.82721782  0.05722319  1  0  -0.049333  0  3.623468  0  0  -0.116529  0  3.870426  0  0  -0.112239  0  3.880693  0  0.271545  0  -0.04945  -0.119229  0  3.863417  0
C  C56  1  0.72484559  0.07422215  0.98324095  1  0  0.023959  0  3.699263  0  0  0.037723  0  3.941284  0  0  0.036587  0  3.965565  0  -0.02358  0  -0.011981  0.038489  0  3.924797  0
C  C57  1  0.27515343  0.92577744  0.01675929  1  0  0.023935  0  3.699289  0  0  0.037773  0  3.941308  0  0  0.036633  0  3.965588  0  -0.023588  0  -0.011935  0.03854  0  3.924818  0
C  C58  1  0.84377349  0.09387182  0.06807294  1  0  -0.116468  0  3.748833  0  0  -0.138613  0  4.002084  0  0  -0.14133  0  4.02379  0  -0.067265  0  -0.089999  -0.136688  0  3.987341  0
C  C59  1  0.15622553  0.90612777  0.93192730  1  0  -0.116466  0  3.748871  0  0  -0.138627  0  4.002116  0  0  -0.141345  0  4.023825  0  -0.067267  0  -0.089994  -0.136694  0  3.987374  0
C  C60  1  0.87788737  0.00758113  0.11280480  1  0  -0.060674  0  3.762259  0  0  -0.077499  0  4.01492  0  0  -0.078917  0  4.035885  0  -0.085494  0  -0.088713  -0.076481  0  4.00067  0
C  C61  1  0.12211048  0.99241846  0.88719533  1  0  -0.060599  0  3.762209  0  0  -0.077424  0  4.01487  0  0  -0.078841  0  4.035836  0  -0.085501  0  -0.088711  -0.076405  0  4.000617  0
C  C62  1  0.79710441  0.89939337  0.07126897  1  0  -0.055839  0  3.756566  0  0  -0.071121  0  4.009986  0  0  -0.072687  0  4.031644  0  -0.046803  0  -0.088323  -0.070022  0  3.995315  0
C  C63  1  0.20289461  0.10060622  0.92873199  1  0  -0.055938  0  3.756539  0  0  -0.071223  0  4.009968  0  0  -0.072789  0  4.031628  0  -0.04673  0  -0.088349  -0.070123  0  3.995297  0
C  C64  1  0.67865981  0.87857749  0.98670651  1  0  -0.121284  0  3.744744  0  0  -0.140494  0  3.992255  0  0  -0.143558  0  4.014398  0  -0.072286  0  -0.090648  -0.138332  0  3.977214  0
C  C65  1  0.32134076  0.12142291  0.01329392  1  0  -0.121209  0  3.744692  0  0  -0.140407  0  3.99223  0  0  -0.143473  0  4.014377  0  -0.072203  0  -0.090611  -0.138246  0  3.977189  0
C  C66  1  0.63928022  0.96464644  0.94302967  1  0  0.007523  0  3.747166  0  0  0.023684  0  3.986376  0  0  0.021872  0  4.011564  0  -0.026697  0  -0.015162  0.024885  0  3.969295  0
C  C67  1  0.36071841  0.03535233  0.05697048  1  0  0.007555  0  3.747123  0  0  0.023615  0  3.986425  0  0  0.021802  0  4.011611  0  -0.026766  0  -0.01518  0.024816  0  3.969342  0
C  C68  1  0.50364828  0.93598663  0.85468029  1  0  -0.049735  0  3.666686  0  0  -0.118364  0  3.916337  0  0  -0.113591  0  3.927193  0  0.30177  0  -0.049299  -0.121396  0  3.908917  0
C  C69  1  0.49635074  0.06401296  0.14531995  1  0  -0.049805  0  3.666692  0  0  -0.118357  0  3.916284  0  0  -0.113569  0  3.927147  0  0.301551  0  -0.049288  -0.121387  0  3.908862  0
C  C70  1  0.49880214  0.00525037  0.68828837  1  0  -0.066055  0  3.642817  0  0  -0.105859  0  3.901049  0  0  -0.105268  0  3.920312  0  0.291201  0  0.006304  -0.106244  0  3.888204  0
C  C71  1  0.50120037  0.99474922  0.31171148  1  0  -0.066062  0  3.642878  0  0  -0.105866  0  3.901104  0  0  -0.105273  0  3.920367  0  0.291278  0  0.006318  -0.10625  0  3.888256  0
C  C72  1  0.60723493  0.02252493  0.62418408  1  0  0.014974  0  3.707072  0  0  -0.017674  0  3.970106  0  0  -0.015109  0  3.988449  0  0.398404  0  0.006263  -0.019392  0  3.957849  0
C  C73  1  0.39276409  0.97747465  0.37581688  1  0  0.014953  0  3.70714  0  0  -0.017698  0  3.970172  0  0  -0.015133  0  3.988513  0  0.398411  0  0.00626  -0.019404  0  3.957925  0
C  C74  1  0.71208588  0.95284974  0.74598576  1  0  0.162168  0  3.666736  0  0  0.101461  0  3.926513  0  0  0.115111  0  3.939297  0  1.02088  0  0.147861  0.092668  0  3.917566  0
C  C75  1  0.28791314  0.04714985  0.25401376  1  0  0.162193  0  3.666758  0  0  0.101488  0  3.92654  0  0  0.115137  0  3.939326  0  1.020865  0  0.147876  0.092697  0  3.917592  0
C  C76  1  0.55800381  0.38300352  0.78714599  1  0  -0.06207  0  3.782716  0  0  -0.037459  0  4.021754  0  0  -0.047201  0  4.04489  0  -0.028063  0  -0.020487  -0.031303  0  4.006351  0
C  C77  1  0.44199677  0.61699935  0.21285245  1  0  -0.062209  0  3.782843  0  0  -0.037607  0  4.021902  0  0  -0.047345  0  4.045032  0  -0.027798  0  -0.020568  -0.031452  0  4.0065  0
C  C78  1  0.42161679  0.29284630  0.74657718  1  0  -0.076599  0  3.718012  0  0  -0.118251  0  3.973857  0  0  -0.114862  0  3.991489  0  -0.018532  0  -0.083471  -0.120162  0  3.961963  0
C  C79  1  0.57838417  0.70715493  0.25342263  1  0  -0.076525  0  3.718067  0  0  -0.118166  0  3.973897  0  0  -0.114776  0  3.991529  0  -0.018558  0  -0.083453  -0.120075  0  3.962  0
C  C80  1  0.39095683  0.25879897  0.64673871  1  0  -0.069672  0  3.783487  0  0  -0.043547  0  4.02031  0  0  -0.052878  0  4.043759  0  -0.038877  0  -0.022389  -0.037665  0  4.004598  0
C  C81  1  0.60904374  0.74120144  0.35326101  1  0  -0.069667  0  3.783482  0  0  -0.043573  0  4.020353  0  0  -0.052904  0  4.043801  0  -0.038705  0  -0.022396  -0.037691  0  4.004639  0
C  C82  1  0.49537548  0.31702609  0.58745853  1  0  -0.104347  0  3.676256  0  0  -0.139213  0  3.922888  0  0  -0.137805  0  3.941215  0  -0.002023  0  -0.078769  -0.139804  0  3.910466  0
C  C83  1  0.50462703  0.68297350  0.41254133  1  0  -0.104312  0  3.676278  0  0  -0.139174  0  3.922904  0  0  -0.137765  0  3.941227  0  -0.002019  0  -0.078768  -0.139766  0  3.910482  0
C  C84  1  0.63187151  0.40843410  0.62690743  1  0  0.089082  0  3.738098  0  0  0.115117  0  3.980978  0  0  0.112172  0  4.006155  0  -0.024503  0  -0.005376  0.116836  0  3.963954  0
C  C85  1  0.36812984  0.59156549  0.37309088  1  0  0.08899  0  3.738048  0  0  0.115067  0  3.980915  0  0  0.112125  0  4.006091  0  -0.024474  0  -0.005399  0.116785  0  3.963892  0
C  C86  1  0.66379763  0.43946902  0.72773808  1  0  -0.093638  0  3.661708  0  0  -0.131085  0  3.90873  0  0  -0.128907  0  3.926672  0  -0.03261  0  -0.074606  -0.132186  0  3.896547  0
C  C87  1  0.33620372  0.56053303  0.27225967  1  0  -0.093465  0  3.661568  0  0  -0.130919  0  3.908593  0  0  -0.128743  0  3.926536  0  -0.032824  0  -0.074529  -0.13202  0  3.89641  0
C  C88  1  0.74004067  0.47461767  0.56202540  1  0  -0.191184  0  3.71756  0  0  -0.242764  0  3.960568  0  0  -0.243131  0  3.974006  0  -0.032144  0  -0.149144  -0.242349  0  3.951525  0
C  C89  1  0.25996184  0.52538192  0.43797230  1  0  -0.19106  0  3.717478  0  0  -0.242711  0  3.960577  0  0  -0.243085  0  3.974026  0  -0.032091  0  -0.149121  -0.242289  0  3.951525  0
C  C90  1  0.76579938  0.40727939  0.47654398  1  0  0.094288  0  3.752244  0  0  0.118476  0  3.995361  0  0  0.11601  0  4.020254  0  -0.009784  0  -0.00852  0.119894  0  3.978493  0
C  C91  1  0.23420507  0.59272183  0.52345401  1  0  0.094403  0  3.752397  0  0  0.118596  0  3.995533  0  0  0.116137  0  4.02042  0  -0.00982  0  -0.008498  0.120011  0  3.978669  0
C  C92  1  0.82146366  0.31731025  0.49233237  1  0  -0.10041  0  3.673292  0  0  -0.133813  0  3.916944  0  0  -0.132423  0  3.935332  0  -0.006788  0  -0.078939  -0.134328  0  3.904452  0
C  C93  1  0.17854157  0.68269016  0.50766708  1  0  -0.100528  0  3.673386  0  0  -0.133942  0  3.917059  0  0  -0.132551  0  3.935437  0  -0.006535  0  -0.078964  -0.134451  0  3.904571  0
C  C94  1  0.85068415  0.25537592  0.41498069  1  0  -0.065829  0  3.792591  0  0  -0.040269  0  4.029245  0  0  -0.049334  0  4.05218  0  -0.038752  0  -0.022591  -0.034652  0  4.013988  0
C  C95  1  0.14931409  0.74462202  0.58501795  1  0  -0.065727  0  3.792541  0  0  -0.040217  0  4.029292  0  0  -0.049229  0  4.05215  0  -0.039109  0  -0.022597  -0.034615  0  4.014056  0
C  C96  1  0.82561689  0.28359635  0.32048346  1  0  -0.081449  0  3.73346  0  0  -0.122773  0  3.986557  0  0  -0.119788  0  4.004475  0  -0.036949  0  -0.085389  -0.124309  0  3.974435  0
C  C97  1  0.17438213  0.71640077  0.67951519  1  0  -0.081488  0  3.733479  0  0  -0.122796  0  3.986615  0  0  -0.11984  0  4.004511  0  -0.037142  0  -0.085379  -0.124344  0  3.974485  0
C  C98  1  0.76559643  0.37086845  0.30293388  1  0  -0.067175  0  3.795361  0  0  -0.041467  0  4.029488  0  0  -0.050645  0  4.052785  0  0.001474  0  -0.025874  -0.035761  0  4.013967  0
C  C99  1  0.23440376  0.62913113  0.69706432  1  0  -0.067037  0  3.795265  0  0  -0.041358  0  4.029415  0  0  -0.050497  0  4.052666  0  0.001615  0  -0.025826  -0.03565  0  4.013892  0
C  C100  1  0.73539058  0.43230837  0.38089416  1  0  -0.111935  0  3.675769  0  0  -0.145059  0  3.919315  0  0  -0.143629  0  3.938052  0  -0.079858  0  -0.081395  -0.145637  0  3.906652  0
C  C101  1  0.26461194  0.56769121  0.61910426  1  0  -0.111979  0  3.675825  0  0  -0.145086  0  3.919371  0  0  -0.143669  0  3.938098  0  -0.079875  0  -0.0814  -0.145663  0  3.906707  0
C  C102  1  0.58363953  0.42181503  0.89253614  1  0  0.66727  0  3.858394  0  0  0.615265  0  4.144505  0  0  0.651256  0  4.135786  0  1.549469  0  0.2161  0.59072  0  4.149876  0
C  C103  1  0.41636104  0.57818784  0.10746230  1  0  0.667302  0  3.858301  0  0  0.615307  0  4.144414  0  0  0.651298  0  4.13569  0  1.54938  0  0.216135  0.590764  0  4.149785  0
C  C104  1  0.24635723  0.16043317  0.60301728  1  0  0.649494  0  3.911023  0  0  0.600803  0  4.197972  0  0  0.635637  0  4.191422  0  1.565826  0  0.205933  0.577223  0  4.201617  0
C  C105  1  0.75364140  0.83956806  0.39698302  1  0  0.649407  0  3.911118  0  0  0.600699  0  4.198094  0  0  0.635532  0  4.191547  0  1.565817  0  0.205888  0.57712  0  4.201737  0
C  C106  1  0.90466039  0.15763511  0.43327152  1  0  0.662028  0  3.899383  0  0  0.611188  0  4.18786  0  0  0.64659  0  4.180392  0  1.553058  0  0.211449  0.587217  0  4.192171  0
C  C107  1  0.09533824  0.84236366  0.56673007  1  0  0.661968  0  3.899401  0  0  0.611089  0  4.187968  0  0  0.646477  0  4.180497  0  1.553129  0  0.211422  0.587121  0  4.192277  0
C  C108  1  0.73856849  0.39868564  0.20063828  1  0  0.63092  0  3.946498  0  0  0.58709  0  4.231515  0  0  0.621571  0  4.223611  0  1.533249  0  0.195374  0.563742  0  4.236111  0
C  C109  1  0.26143014  0.60131312  0.79936045  1  0  0.630798  0  3.946584  0  0  0.586957  0  4.231643  0  0  0.621425  0  4.223737  0  1.533  0  0.195315  0.563608  0  4.236236  0
N  N110  1  0.06700330  0.35150623  0.89162103  1  0  -0.397391  0  3.333001  0  0  -0.317704  0  3.634323  0  0  -0.338836  0  3.647086  0  -1.249062  0  -0.363706  -0.303331  0  3.625369  0
N  N111  1  0.93299650  0.64849500  0.10838297  1  0  -0.397388  0  3.33304  0  0  -0.317679  0  3.634353  0  0  -0.33881  0  3.647116  0  -1.24907  0  -0.3637  -0.303305  0  3.625402  0
N  N112  1  0.82351616  0.23938418  0.89995103  1  0  -0.051217  0  3.557732  0  0  0.04379  0  3.775941  0  0  0.028488  0  3.8027  0  -1.236498  0  -0.23845  0.053867  0  3.757737  0
N  N113  1  0.17648131  0.76061705  0.10005060  1  0  -0.051263  0  3.557714  0  0  0.043777  0  3.775915  0  0  0.028469  0  3.802672  0  -1.236666  0  -0.238412  0.053862  0  3.757709  0
N  N114  1  0.56816096  0.96196335  0.76512163  1  0  -0.058167  0  3.585138  0  0  0.036796  0  3.802795  0  0  0.02217  0  3.82867  0  -1.234228  0  -0.243029  0.046456  0  3.785129  0
N  N115  1  0.43183650  0.03803541  0.23487842  1  0  -0.058158  0  3.585186  0  0  0.036781  0  3.802845  0  0  0.022157  0  3.828715  0  -1.233993  0  -0.243064  0.046441  0  3.78518  0
N  N116  1  0.73971203  0.98976904  0.66147505  1  0  -0.361164  0  3.290464  0  0  -0.282869  0  3.580367  0  0  -0.302809  0  3.591887  0  -1.23231  0  -0.353123  -0.26938  0  3.572364  0
N  N117  1  0.26028699  0.01023054  0.33852448  1  0  -0.361174  0  3.290521  0  0  -0.282874  0  3.580417  0  0  -0.302815  0  3.591939  0  -1.232361  0  -0.353115  -0.269387  0  3.572411  0
O  O118  1  0.46754058  0.38555766  0.94086021  1  0  -0.669611  0  2.0312  0  0  -0.600368  0  2.304057  0  0  -0.626179  0  2.285196  0  -1.197157  0  -0.3311  -0.58226  0  2.316426  0
O  O119  1  0.53246077  0.61444439  0.05913896  1  0  -0.669551  0  2.031148  0  0  -0.600313  0  2.304001  0  0  -0.62613  0  2.285153  0  -1.197087  0  -0.331086  -0.582205  0  2.31637  0
O  O120  1  0.72117904  0.49205813  0.93229696  1  0  -0.60886  0  2.027133  0  0  -0.537607  0  2.285954  0  0  -0.565939  0  2.271045  0  -1.153236  0  -0.306607  -0.518033  0  2.295687  0
O  O121  1  0.27881920  0.50794474  0.06770198  1  0  -0.608976  0  2.027149  0  0  -0.53773  0  2.285975  0  0  -0.566061  0  2.271066  0  -1.153226  0  -0.306636  -0.518155  0  2.295709  0
O  O122  1  0.14383704  0.11862649  0.65776366  1  0  -0.636285  0  2.02779  0  0  -0.574721  0  2.290133  0  0  -0.603241  0  2.277803  0  -1.173793  0  -0.322366  -0.554855  0  2.297933  0
O  O123  1  0.85616587  0.88137145  0.34223684  1  0  -0.636326  0  2.027729  0  0  -0.574759  0  2.290104  0  0  -0.603279  0  2.277774  0  -1.173998  0  -0.3224  -0.554894  0  2.297904  0
O  O124  1  0.23883131  0.12581998  0.51473018  1  0  -0.638561  0  2.097982  0  0  -0.574681  0  2.353412  0  0  -0.602909  0  2.341344  0  -1.180183  0  -0.315879  -0.555056  0  2.360988  0
O  O125  1  0.76116577  0.87418289  0.48526792  1  0  -0.638461  0  2.09808  0  0  -0.57457  0  2.353504  0  0  -0.602798  0  2.341442  0  -1.180185  0  -0.315825  -0.554946  0  2.361082  0
O  O126  1  0.87981895  0.11904698  0.51304313  1  0  -0.648952  0  2.126166  0  0  -0.580943  0  2.390153  0  0  -0.609597  0  2.376921  0  -1.187053  0  -0.314461  -0.561017  0  2.398539  0
O  O127  1  0.12018201  0.88095424  0.48695668  1  0  -0.648949  0  2.126039  0  0  -0.580921  0  2.390049  0  0  -0.609573  0  2.376818  0  -1.187013  0  -0.314467  -0.560992  0  2.398429  0
O  O128  1  0.96870024  0.11961612  0.36823355  1  0  -0.629187  0  2.028595  0  0  -0.56568  0  2.28436  0  0  -0.593834  0  2.27034  0  -1.162556  0  -0.321975  -0.546109  0  2.293299  0
O  O129  1  0.03129995  0.88038100  0.63176665  1  0  -0.629119  0  2.02866  0  0  -0.565591  0  2.28443  0  0  -0.59375  0  2.270425  0  -1.162565  0  -0.321937  -0.546025  0  2.293378  0
O  O130  1  0.78461475  0.35184212  0.13371301  1  0  -0.634961  0  1.918604  0  0  -0.594827  0  2.151133  0  0  -0.616935  0  2.139693  0  -1.198449  0  -0.33138  -0.579363  0  2.158527  0
O  O131  1  0.21538388  0.64815664  0.86628428  1  0  -0.634885  0  1.91867  0  0  -0.594738  0  2.151204  0  0  -0.616847  0  2.139772  0  -1.198307  0  -0.331337  -0.579279  0  2.158609  0
O  O132  1  0.66903578  0.47413312  0.18839922  1  0  -0.65654  0  2.075598  0  0  -0.582061  0  2.339791  0  0  -0.612686  0  2.327057  0  -1.163519  0  -0.335189  -0.56055  0  2.347655  0
O  O133  1  0.33096130  0.52586482  0.81159930  1  0  -0.65655  0  2.075526  0  0  -0.582042  0  2.339705  0  0  -0.612671  0  2.32698  0  -1.163319  0  -0.335205  -0.560532  0  2.347569  0
