# generated using pymatgen
data_ZnH20C28(NO2)2
_symmetry_space_group_name_H-M   'P 1'
_cell_length_a   7.48718031
_cell_length_b   14.45283964
_cell_length_c   13.95904323
_cell_angle_alpha   107.63985471
_cell_angle_beta   93.68941845
_cell_angle_gamma   92.56084478
_symmetry_Int_Tables_number   1
_chemical_formula_structural   ZnH20C28(NO2)2
_chemical_formula_sum   'Zn2 H40 C56 N4 O8'
_cell_volume   1433.23936467
_cell_formula_units_Z   2
loop_
 _symmetry_equiv_pos_site_id
 _symmetry_equiv_pos_as_xyz
  1  'x, y, z'
loop_
 _atom_site_type_symbol
 _atom_site_label
 _atom_site_symmetry_multiplicity
 _atom_site_fract_x
 _atom_site_fract_y
 _atom_site_fract_z
 _atom_site_occupancy
 _atom_site_pbe_bader_charge
 _atom_site_pbe_bader_spin_density
 _atom_site_pbe_cm5_charge
 _atom_site_pbe_ddec_charge
 _atom_site_pbe_ddec_spin_density
 _atom_site_pbe_ddec_sum_bond_order
 _atom_site_pbe_magmom
Zn  Zn0  1  0.53034485  0.72478355  0.73128764  1  1.253127  0  0.69524  0.758615  0  2.417234  0
Zn  Zn1  1  0.46965033  0.27520030  0.26869522  1  1.252566  0  0.695233  0.758645  0  2.417261  0
H  H2  1  0.18424085  0.60805569  0.69378773  1  0.068177  0  0.117949  0.086225  0  1.007986  0
H  H3  1  0.81573583  0.39194721  0.30621990  1  0.068098  0  0.118036  0.086238  0  1.007999  0
H  H4  1  0.50068026  0.76409735  0.95184292  1  0.121754  0  0.124174  0.096422  0  0.982922  0
H  H5  1  0.49930545  0.23591533  0.04815831  1  0.121967  0  0.124196  0.096487  0  0.982946  0
H  H6  1  0.26455101  0.87144122  0.78550277  1  0.114763  0  0.120684  0.096957  0  1.029675  0
H  H7  1  0.73548172  0.12856142  0.21450131  1  0.114995  0  0.120685  0.096971  0  1.029639  0
H  H8  1  0.42725805  0.70312299  0.51343009  1  0.150053  0  0.124982  0.103745  0  0.984574  0
H  H9  1  0.57272446  0.29686306  0.48657024  1  0.150271  0  0.124962  0.103649  0  0.984615  0
H  H10  1  0.96367145  0.55168868  0.79166609  1  0.138618  0  0.106984  0.124505  0  1.055037  0
H  H11  1  0.03629773  0.44832881  0.20834604  1  0.138928  0  0.106979  0.1245  0  1.055066  0
H  H12  1  0.29598546  0.71142651  0.06199124  1  0.027076  0  0.109681  0.116311  0  0.987729  0
H  H13  1  0.70398419  0.28859703  0.93801109  1  0.02699  0  0.109735  0.116285  0  0.987795  0
H  H14  1  0.03232987  0.94393699  0.70177077  1  0.054413  0  0.110447  0.118401  0  1.004938  0
H  H15  1  0.96771627  0.05607594  0.29823936  1  0.054135  0  0.110427  0.118313  0  1.004917  0
H  H16  1  0.21302344  0.77622438  0.41615340  1  0.033511  0  0.110122  0.116102  0  0.985084  0
H  H17  1  0.78697355  0.22377099  0.58384700  1  0.033336  0  0.110247  0.116267  0  0.985238  0
H  H18  1  0.05073577  0.83506474  0.88752771  1  0.097456  0  0.095861  0.099165  0  1.037722  0
H  H19  1  0.94928266  0.16489203  0.11244481  1  0.095697  0  0.095727  0.099023  0  1.038499  0
H  H20  1  0.69159998  0.05835899  0.00165089  1  0.130629  0  0.099347  0.11265  0  1.02943  0
H  H21  1  0.30841894  0.94160027  0.99832949  1  0.13048  0  0.099419  0.112698  0  1.029139  0
H  H22  1  0.91063153  0.40878156  0.61612648  1  0.075218  0  0.094908  0.090496  0  1.029512  0
H  H23  1  0.08935816  0.59119495  0.38388649  1  0.07537  0  0.094856  0.090418  0  1.029377  0
H  H24  1  0.83923234  0.64611231  0.49687993  1  0.091903  0  0.099295  0.10456  0  1.007821  0
H  H25  1  0.16074846  0.35385820  0.50312687  1  0.09099  0  0.099238  0.104393  0  1.007818  0
H  H26  1  0.95965918  0.63452191  0.06149871  1  0.05176  0  0.102743  0.084273  0  0.973144  0
H  H27  1  0.04032764  0.36550855  0.93851530  1  0.052121  0  0.10275  0.084151  0  0.973069  0
H  H28  1  0.91790635  0.86792559  0.42907534  1  0.05227  0  0.104288  0.085539  0  0.975049  0
H  H29  1  0.08210812  0.13208013  0.57093266  1  0.052215  0  0.104362  0.085685  0  0.974878  0
H  H30  1  0.12598563  0.53299076  0.13189972  1  0.063986  0  0.101557  0.082481  0  0.9998  0
H  H31  1  0.87402246  0.46703890  0.86811322  1  0.064147  0  0.10146  0.082252  0  0.999881  0
H  H32  1  0.08867024  0.97511062  0.36880558  1  -0.002202  0  0.099436  0.072677  0  1.001969  0
H  H33  1  0.91133582  0.02489277  0.63119798  1  -0.002354  0  0.099376  0.072603  0  1.002052  0
H  H34  1  0.37129157  0.93055648  0.32292858  1  0.028464  0  0.102216  0.102634  0  0.992918  0
H  H35  1  0.62872303  0.06945181  0.67707224  1  0.028258  0  0.10218  0.102621  0  0.992906  0
H  H36  1  0.30532052  0.07206878  0.63688518  1  0.047407  0  0.099909  0.097682  0  1.007102  0
H  H37  1  0.69469271  0.92793888  0.36311759  1  0.047226  0  0.099937  0.09775  0  1.007092  0
H  H38  1  0.42615830  0.57023663  0.17724183  1  0.093805  0  0.100399  0.110361  0  1.004489  0
H  H39  1  0.57383167  0.42980107  0.82275631  1  0.093224  0  0.10043  0.110346  0  1.004676  0
H  H40  1  0.25918075  0.42586434  0.86426225  1  0.044308  0  0.096067  0.093954  0  1.011722  0
H  H41  1  0.74080075  0.57417036  0.13573269  1  0.043609  0  0.096043  0.093962  0  1.011687  0
C  C42  1  0.70567393  0.88003455  0.86960740  1  1.54555  0  0.187571  0.544366  0  4.254157  0
C  C43  1  0.29433981  0.11993034  0.13035286  1  1.545376  0  0.187884  0.544851  0  4.25335  0
C  C44  1  0.71586215  0.56359009  0.63299308  1  1.569038  0  0.198388  0.575947  0  4.220445  0
C  C45  1  0.28411942  0.43638748  0.36701064  1  1.569032  0  0.198242  0.575319  0  4.220665  0
C  C46  1  0.20438914  0.62914282  0.77583480  1  0.523871  0  0.053846  0.10505  0  3.931482  0
C  C47  1  0.79559832  0.37086138  0.22416990  1  0.523305  0  0.053724  0.105007  0  3.931335  0
C  C48  1  0.38114977  0.71607923  0.92014431  1  0.490372  0  0.054838  0.106307  0  3.939982  0
C  C49  1  0.61883645  0.28392630  0.07985785  1  0.489991  0  0.054781  0.106174  0  3.940132  0
C  C50  1  0.24413187  0.85059857  0.70364843  1  0.483332  0  0.055673  0.109295  0  3.929702  0
C  C51  1  0.75588483  0.14940472  0.29635323  1  0.483021  0  0.055716  0.109318  0  3.929388  0
C  C52  1  0.33843410  0.75818043  0.55103061  1  0.533909  0  0.05446  0.102497  0  3.934953  0
C  C53  1  0.66156109  0.24181130  0.44896875  1  0.533966  0  0.054569  0.102641  0  3.93473  0
C  C54  1  0.85821132  0.94167378  0.93702234  1  -0.073408  0  -0.023713  -0.028935  0  3.979382  0
C  C55  1  0.14178186  0.05829292  0.06296296  1  -0.073111  0  -0.023877  -0.029094  0  3.979315  0
C  C56  1  0.85972963  0.52976525  0.56226083  1  -0.06392  0  -0.017534  -0.027339  0  3.958458  0
C  C57  1  0.14026436  0.47021344  0.43775286  1  -0.062274  0  -0.017658  -0.02739  0  3.958104  0
C  C58  1  0.08257919  0.59666905  0.83155927  1  -0.021138  0  -0.080233  -0.174069  0  3.912916  0
C  C59  1  0.91740423  0.40334596  0.16844612  1  -0.020666  0  -0.080273  -0.174077  0  3.91309  0
C  C60  1  0.26527662  0.68700915  0.98052019  1  0.053252  0  -0.079514  -0.174601  0  3.95802  0
C  C61  1  0.73470959  0.31300722  0.01948350  1  0.053228  0  -0.079489  -0.17449  0  3.957988  0
C  C62  1  0.11731438  0.89214693  0.65544111  1  0.044586  0  -0.081394  -0.1741  0  3.941389  0
C  C63  1  0.88270994  0.10786305  0.34456618  1  0.045062  0  -0.081401  -0.174061  0  3.940899  0
C  C64  1  0.21743114  0.79829979  0.49823574  1  0.001786  0  -0.081466  -0.178089  0  3.965973  0
C  C65  1  0.78257832  0.20169796  0.50177067  1  0.002388  0  -0.081586  -0.178306  0  3.966233  0
C  C66  1  0.03094846  0.90767827  0.93701104  1  -0.058324  0  -0.095861  -0.111284  0  3.993888  0
C  C67  1  0.96905278  0.09228906  0.06297250  1  -0.056538  0  -0.095717  -0.111199  0  3.994528  0
C  C68  1  0.82765783  0.03430406  0.00074886  1  -0.058201  0  -0.092229  -0.105963  0  3.975517  0
C  C69  1  0.17235034  0.96566421  0.99924014  1  -0.058757  0  -0.092314  -0.106025  0  3.975071  0
C  C70  1  0.95116994  0.44786670  0.56454960  1  -0.057886  0  -0.092599  -0.113799  0  4.024741  0
C  C71  1  0.04882409  0.55211205  0.43546554  1  -0.058793  0  -0.092432  -0.113591  0  4.024214  0
C  C72  1  0.91002933  0.58191782  0.49714794  1  -0.021957  0  -0.090388  -0.100216  0  3.983398  0
C  C73  1  0.08995879  0.41805715  0.50286242  1  -0.021849  0  -0.090253  -0.099965  0  3.983126  0
C  C74  1  0.11594520  0.62225496  0.93638681  1  -0.030409  0  0.018529  0.146485  0  3.92668  0
C  C75  1  0.88404307  0.37776660  0.06362050  1  -0.030698  0  0.018497  0.146293  0  3.92694  0
C  C76  1  0.10590698  0.86887942  0.55038923  1  -0.04787  0  0.014071  0.136033  0  3.952065  0
C  C77  1  0.89411060  0.13112929  0.44962183  1  -0.048904  0  0.014068  0.136172  0  3.951994  0
C  C78  1  0.01376483  0.57689960  0.00155865  1  -0.014864  0  -0.07034  -0.07209  0  3.762073  0
C  C79  1  0.98622946  0.42312649  0.99845436  1  -0.014972  0  -0.070309  -0.071704  0  3.761598  0
C  C80  1  0.99753209  0.92152282  0.49212711  1  0.000459  0  -0.071534  -0.074327  0  3.770197  0
C  C81  1  0.00248240  0.07848293  0.50788163  1  0.000456  0  -0.071595  -0.07462  0  3.770239  0
C  C82  1  0.12755376  0.50841387  0.04956369  1  -0.026073  0  -0.074823  -0.073828  0  3.770491  0
C  C83  1  0.87242295  0.49161197  0.95044232  1  -0.026435  0  -0.074786  -0.073338  0  3.769766  0
C  C84  1  0.11427123  0.99443857  0.45094298  1  0.052755  0  -0.073892  -0.068837  0  3.7821  0
C  C85  1  0.88574190  0.00556776  0.54906229  1  0.052527  0  -0.0738  -0.06875  0  3.782035  0
C  C86  1  0.31882394  0.49851257  0.02412462  1  0.032444  0  -0.01599  0.080094  0  3.984171  0
C  C87  1  0.68117155  0.50152537  0.97587948  1  0.032483  0  -0.016032  0.08003  0  3.984327  0
C  C88  1  0.31308165  0.00194718  0.47641119  1  -0.051396  0  -0.016137  0.075811  0  3.993498  0
C  C89  1  0.68693183  0.99806262  0.52359145  1  -0.037214  0  -0.016062  0.075949  0  3.993492  0
C  C90  1  0.42703204  0.96101018  0.40112138  1  -0.019964  0  -0.090668  -0.128789  0  4.001158  0
C  C91  1  0.57298150  0.03900029  0.59888001  1  -0.033898  0  -0.090701  -0.128888  0  4.001192  0
C  C92  1  0.38971388  0.04109293  0.57581655  1  -0.030163  0  -0.09356  -0.129367  0  4.006254  0
C  C93  1  0.61030098  0.95891750  0.42418415  1  -0.029847  0  -0.093588  -0.129437  0  4.006294  0
C  C94  1  0.45802828  0.54068169  0.09902017  1  -0.054297  0  -0.091733  -0.130041  0  3.991903  0
C  C95  1  0.54196510  0.45936121  0.90098236  1  -0.052897  0  -0.091662  -0.129948  0  3.992058  0
C  C96  1  0.36426769  0.45739969  0.92485095  1  -0.105236  0  -0.097937  -0.13798  0  4.015681  0
C  C97  1  0.63571621  0.54264307  0.07514769  1  -0.104215  0  -0.09793  -0.138083  0  4.015671  0
N  N98  1  0.35368682  0.68556961  0.81874086  1  -1.316502  0  -0.334112  -0.242267  0  3.618706  0
N  N99  1  0.64630808  0.31443076  0.18125870  1  -1.316423  0  -0.334062  -0.242157  0  3.61872  0
N  N100  1  0.35441534  0.78579950  0.65261651  1  -1.313598  0  -0.329912  -0.235128  0  3.581959  0
N  N101  1  0.64558124  0.21419290  0.34738164  1  -1.313323  0  -0.32998  -0.235175  0  3.58183  0
O  O102  1  0.74616767  0.79556169  0.81187705  1  -1.161985  0  -0.345624  -0.554221  0  2.293077  0
O  O103  1  0.25387287  0.20440679  0.18806772  1  -1.160997  0  -0.345659  -0.554317  0  2.293716  0
O  O104  1  0.62451637  0.63211223  0.61559935  1  -1.178506  0  -0.346629  -0.570464  0  2.340175  0
O  O105  1  0.37545266  0.36785380  0.38438582  1  -1.178563  0  -0.346575  -0.570062  0  2.339946  0
O  O106  1  0.55094720  0.90977148  0.87093466  1  -1.177138  0  -0.328626  -0.561849  0  2.149134  0
O  O107  1  0.44909578  0.09017867  0.12903528  1  -1.177275  0  -0.328842  -0.562282  0  2.148029  0
O  O108  1  0.69572700  0.52806505  0.70320749  1  -1.185226  0  -0.337234  -0.568182  0  2.104221  0
O  O109  1  0.30426567  0.47193476  0.29681265  1  -1.185243  0  -0.337152  -0.567926  0  2.104378  0
