# generated using pymatgen
data_Cd3H6C10(N2O5)2
_symmetry_space_group_name_H-M   'P 1'
_cell_length_a   7.64473374
_cell_length_b   9.86778014
_cell_length_c   9.84288153
_cell_angle_alpha   90.00013012
_cell_angle_beta   89.99994562
_cell_angle_gamma   106.04180929
_symmetry_Int_Tables_number   1
_chemical_formula_structural   Cd3H6C10(N2O5)2
_chemical_formula_sum   'Cd6 H12 C20 N8 O20'
_cell_volume   713.59981035
_cell_formula_units_Z   2
loop_
 _symmetry_equiv_pos_site_id
 _symmetry_equiv_pos_as_xyz
  1  'x, y, z'
loop_
 _atom_site_type_symbol
 _atom_site_label
 _atom_site_symmetry_multiplicity
 _atom_site_fract_x
 _atom_site_fract_y
 _atom_site_fract_z
 _atom_site_occupancy
 _atom_site_hle17_bader_spin_density
 _atom_site_hle17_ddec_charge
 _atom_site_hle17_ddec_spin_density
 _atom_site_hle17_ddec_sum_bond_order
 _atom_site_hle17_magmom
 _atom_site_hse06_10hf_bader_spin_density
 _atom_site_hse06_10hf_ddec_charge
 _atom_site_hse06_10hf_ddec_spin_density
 _atom_site_hse06_10hf_ddec_sum_bond_order
 _atom_site_hse06_10hf_magmom
 _atom_site_hse06_bader_spin_density
 _atom_site_hse06_ddec_charge
 _atom_site_hse06_ddec_spin_density
 _atom_site_hse06_ddec_sum_bond_order
 _atom_site_hse06_magmom
 _atom_site_pbe_bader_spin_density
 _atom_site_pbe_cm5_charge
 _atom_site_pbe_ddec_charge
 _atom_site_pbe_ddec_spin_density
 _atom_site_pbe_ddec_sum_bond_order
 _atom_site_pbe_magmom
Cd  Cd0  1  0.00000000  0.00000000  0.00000000  1  0  1.296372  0  1.549685  0  0  1.124638  0  1.988856  0  0  1.181812  0  1.928475  0  0  0.784784  1.080856  0  2.034039  0
Cd  Cd1  1  0.50000042  0.00000043  0.49999973  1  0  1.296366  0  1.549704  0  0  1.124629  0  1.988876  0  0  1.181804  0  1.928496  0  0  0.784783  1.080847  0  2.034059  0
Cd  Cd2  1  0.94447069  0.27595744  0.49171673  1  0  1.161571  0  1.668241  0  0  0.962648  0  2.122387  0  0  1.016299  0  2.073637  0  0  0.79876  0.922889  0  2.156954  0
Cd  Cd3  1  0.55552929  0.72404268  0.99171834  1  0  1.161584  0  1.668223  0  0  0.962661  0  2.122366  0  0  1.016314  0  2.073616  0  0  0.798756  0.922902  0  2.156933  0
Cd  Cd4  1  0.05552923  0.72404332  0.50828388  1  0  1.161555  0  1.668257  0  0  0.962622  0  2.122404  0  0  1.016276  0  2.073653  0  0  0.798747  0.922863  0  2.156971  0
Cd  Cd5  1  0.44447027  0.27595703  0.00828126  1  0  1.161571  0  1.668221  0  0  0.96265  0  2.122362  0  0  1.016305  0  2.073609  0  0  0.798752  0.922892  0  2.156927  0
H  H6  1  0.32133155  0.95429629  0.95949642  1  0  0.436037  0  0.867512  0  0  0.400344  0  0.937502  0  0  0.412919  0  0.919594  0  0  0.292938  0.391327  0  0.950263  0
H  H7  1  0.17867002  0.04570399  0.45949856  1  0  0.436056  0  0.867482  0  0  0.40034  0  0.937507  0  0  0.412914  0  0.919598  0  0  0.292921  0.391322  0  0.950268  0
H  H8  1  0.67866932  0.04570343  0.04050317  1  0  0.436002  0  0.867563  0  0  0.400309  0  0.937555  0  0  0.412882  0  0.919648  0  0  0.292925  0.391292  0  0.950315  0
H  H9  1  0.82132953  0.95429572  0.54050104  1  0  0.436047  0  0.867498  0  0  0.400326  0  0.93753  0  0  0.412901  0  0.919619  0  0  0.292914  0.391308  0  0.950291  0
H  H10  1  0.33353635  0.05330677  0.82316437  1  0  0.44676  0  0.847069  0  0  0.413051  0  0.91416  0  0  0.424019  0  0.898469  0  0  0.298264  0.404736  0  0.926242  0
H  H11  1  0.16646323  0.94669110  0.32316452  1  0  0.446757  0  0.847083  0  0  0.413018  0  0.91422  0  0  0.423986  0  0.89853  0  0  0.298237  0.404701  0  0.926305  0
H  H12  1  0.66646321  0.94669294  0.17683523  1  0  0.446758  0  0.847073  0  0  0.413048  0  0.914167  0  0  0.424016  0  0.898476  0  0  0.298271  0.404732  0  0.92625  0
H  H13  1  0.83353632  0.05330861  0.67683507  1  0  0.446775  0  0.847055  0  0  0.413038  0  0.914189  0  0  0.424006  0  0.898499  0  0  0.298252  0.404722  0  0.926273  0
H  H14  1  0.18968782  0.50750647  0.01633922  1  0  0.127285  0  0.976359  0  0  0.131927  0  1.046932  0  0  0.134937  0  1.045967  0  0  0.107549  0.129845  0  1.047682  0
H  H15  1  0.31031467  0.49249497  0.51634010  1  0  0.127283  0  0.97638  0  0  0.131914  0  1.046977  0  0  0.134923  0  1.046012  0  0  0.107548  0.129833  0  1.047724  0
H  H16  1  0.81031341  0.49249430  0.98366037  1  0  0.127286  0  0.976356  0  0  0.131919  0  1.04695  0  0  0.134929  0  1.045984  0  0  0.107554  0.12984  0  1.047696  0
H  H17  1  0.68968620  0.50750475  0.48365950  1  0  0.127295  0  0.976357  0  0  0.13193  0  1.046945  0  0  0.134941  0  1.045979  0  0  0.107561  0.129851  0  1.047692  0
C  C18  1  0.06915973  0.25387156  0.19674245  1  0  0.649885  0  3.913822  0  0  0.597168  0  4.204694  0  0  0.633264  0  4.196053  0  0  0.207723  0.572582  0  4.209341  0
C  C19  1  0.43084026  0.74612710  0.69674280  1  0  0.64986  0  3.913874  0  0  0.597152  0  4.204721  0  0  0.633245  0  4.196085  0  0  0.207701  0.572566  0  4.209368  0
C  C20  1  0.93083814  0.74612709  0.80325816  1  0  0.649903  0  3.913769  0  0  0.597163  0  4.20466  0  0  0.633259  0  4.196014  0  0  0.207688  0.572579  0  4.209306  0
C  C21  1  0.56915798  0.25387261  0.30325883  1  0  0.649903  0  3.913835  0  0  0.597215  0  4.204656  0  0  0.633305  0  4.196021  0  0  0.20773  0.572627  0  4.209304  0
C  C22  1  0.09859982  0.40632046  0.21610889  1  0  0.020319  0  3.816378  0  0  0.019599  0  4.07258  0  0  0.016896  0  4.092791  0  0  0.062743  0.02137  0  4.058478  0
C  C23  1  0.40139923  0.59367928  0.71610993  1  0  0.020317  0  3.81635  0  0  0.019602  0  4.07254  0  0  0.016891  0  4.092766  0  0  0.062753  0.021371  0  4.05844  0
C  C24  1  0.90139843  0.59367924  0.78389070  1  0  0.02027  0  3.816364  0  0  0.019578  0  4.072541  0  0  0.01688  0  4.092744  0  0  0.062735  0.021345  0  4.058445  0
C  C25  1  0.59860032  0.40632043  0.28389068  1  0  0.020302  0  3.816368  0  0  0.019568  0  4.07257  0  0  0.016867  0  4.092784  0  0  0.062735  0.021343  0  4.058465  0
C  C26  1  0.15464451  0.51542297  0.12209385  1  0  -0.189146  0  3.729298  0  0  -0.225114  0  3.993848  0  0  -0.228281  0  4.013444  0  0  -0.106168  -0.223369  0  3.980957  0
C  C27  1  0.34535981  0.48457659  0.62209264  1  0  -0.189104  0  3.72928  0  0  -0.225053  0  3.993793  0  0  -0.228216  0  4.013391  0  0  -0.10614  -0.22331  0  3.980901  0
C  C28  1  0.84535729  0.48457569  0.87790677  1  0  -0.189121  0  3.729201  0  0  -0.225082  0  3.993728  0  0  -0.22825  0  4.013322  0  0  -0.106149  -0.223338  0  3.980837  0
C  C29  1  0.65464236  0.51542313  0.37790594  1  0  -0.189124  0  3.729298  0  0  -0.22508  0  3.993833  0  0  -0.228245  0  4.013429  0  0  -0.10615  -0.223339  0  3.980939  0
C  C30  1  0.14589128  0.63596335  0.19305390  1  0  0.028244  0  3.761196  0  0  0.02691  0  4.021494  0  0  0.025219  0  4.040614  0  0  0.070795  0.028271  0  4.008509  0
C  C31  1  0.35411302  0.36403637  0.69305241  1  0  0.028214  0  3.76114  0  0  0.026879  0  4.021444  0  0  0.025188  0  4.040562  0  0  0.070774  0.028242  0  4.008461  0
C  C32  1  0.85411184  0.36403532  0.80694671  1  0  0.028218  0  3.761175  0  0  0.026883  0  4.021476  0  0  0.025192  0  4.040593  0  0  0.070785  0.028243  0  4.008492  0
C  C33  1  0.64588785  0.63596335  0.30694718  1  0  0.028224  0  3.761215  0  0  0.02689  0  4.021509  0  0  0.025198  0  4.040628  0  0  0.070786  0.028251  0  4.008524  0
C  C34  1  0.18186208  0.77800528  0.13227104  1  0  0.673107  0  3.86653  0  0  0.616881  0  4.161916  0  0  0.652995  0  4.151525  0  0  0.221027  0.592186  0  4.168094  0
C  C35  1  0.31813700  0.22199429  0.63227026  1  0  0.673134  0  3.866587  0  0  0.616918  0  4.161959  0  0  0.65303  0  4.151571  0  0  0.221057  0.592221  0  4.168141  0
C  C36  1  0.81813747  0.22199443  0.86772856  1  0  0.673148  0  3.866602  0  0  0.616929  0  4.161971  0  0  0.653043  0  4.151579  0  0  0.221051  0.592236  0  4.168148  0
C  C37  1  0.68186088  0.77800436  0.36773035  1  0  0.67315  0  3.866571  0  0  0.616934  0  4.161941  0  0  0.653047  0  4.151551  0  0  0.22105  0.59224  0  4.168119  0
N  N38  1  0.06087294  0.45911438  0.33670882  1  0  -0.289741  0  3.214927  0  0  -0.23237  0  3.491008  0  0  -0.246012  0  3.512996  0  0  -0.248777  -0.222128  0  3.475553  0
N  N39  1  0.43912868  0.54088564  0.83670869  1  0  -0.289709  0  3.214967  0  0  -0.232342  0  3.491051  0  0  -0.245983  0  3.513038  0  0  -0.248753  -0.2221  0  3.475597  0
N  N40  1  0.93912662  0.54088533  0.66329078  1  0  -0.289741  0  3.21494  0  0  -0.232378  0  3.491016  0  0  -0.246022  0  3.513  0  0  -0.248787  -0.222135  0  3.475562  0
N  N41  1  0.56087218  0.45911408  0.16328989  1  0  -0.289743  0  3.214923  0  0  -0.232378  0  3.491008  0  0  -0.24602  0  3.512995  0  0  -0.248776  -0.222137  0  3.475551  0
N  N42  1  0.08813506  0.59913149  0.32292540  1  0  -0.259142  0  3.202547  0  0  -0.197743  0  3.485162  0  0  -0.213035  0  3.506525  0  0  -0.243951  -0.186736  0  3.470236  0
N  N43  1  0.41186992  0.40087061  0.82292395  1  0  -0.25918  0  3.202495  0  0  -0.197793  0  3.485123  0  0  -0.213084  0  3.506482  0  0  -0.243997  -0.186786  0  3.470196  0
N  N44  1  0.91186785  0.40087034  0.67707521  1  0  -0.259132  0  3.202503  0  0  -0.197742  0  3.485125  0  0  -0.213032  0  3.506486  0  0  -0.243961  -0.186734  0  3.4702  0
N  N45  1  0.58813131  0.59913016  0.17707463  1  0  -0.259152  0  3.20253  0  0  -0.197756  0  3.485139  0  0  -0.213045  0  3.5065  0  0  -0.243981  -0.186749  0  3.470215  0
O  O46  1  0.98599002  0.16714936  0.28526993  1  0  -0.592639  0  1.966979  0  0  -0.526811  0  2.202404  0  0  -0.553196  0  2.191315  0  0  -0.31182  -0.507287  0  2.210145  0
O  O47  1  0.51401229  0.83284927  0.78527080  1  0  -0.592641  0  1.967004  0  0  -0.526822  0  2.202396  0  0  -0.553207  0  2.191308  0  0  -0.31183  -0.507298  0  2.210138  0
O  O48  1  0.01400822  0.83285034  0.71472966  1  0  -0.592645  0  1.96694  0  0  -0.526815  0  2.202364  0  0  -0.553204  0  2.191276  0  0  -0.311808  -0.507291  0  2.210104  0
O  O49  1  0.48598763  0.16715149  0.21472981  1  0  -0.592671  0  1.967004  0  0  -0.52684  0  2.202386  0  0  -0.553226  0  2.191299  0  0  -0.311827  -0.507317  0  2.210127  0
O  O50  1  0.12833059  0.21704294  0.08326545  1  0  -0.694746  0  2.113505  0  0  -0.609821  0  2.388242  0  0  -0.643245  0  2.374685  0  0  -0.337328  -0.585593  0  2.396896  0
O  O51  1  0.37166794  0.78295862  0.58326898  1  0  -0.694729  0  2.113512  0  0  -0.609805  0  2.388232  0  0  -0.643226  0  2.374676  0  0  -0.337302  -0.585576  0  2.396886  0
O  O52  1  0.87166803  0.78295782  0.91673414  1  0  -0.694763  0  2.113504  0  0  -0.609828  0  2.388241  0  0  -0.643251  0  2.374682  0  0  -0.337324  -0.5856  0  2.396895  0
O  O53  1  0.62833329  0.21704215  0.41673265  1  0  -0.694733  0  2.113504  0  0  -0.609825  0  2.388226  0  0  -0.643245  0  2.374671  0  0  -0.337328  -0.585597  0  2.396881  0
O  O54  1  0.09633332  0.86439815  0.17412273  1  0  -0.655581  0  2.002498  0  0  -0.589015  0  2.247862  0  0  -0.615844  0  2.233073  0  0  -0.319786  -0.569842  0  2.259004  0
O  O55  1  0.40366538  0.13560045  0.67412170  1  0  -0.65556  0  2.002507  0  0  -0.589002  0  2.247862  0  0  -0.615834  0  2.233076  0  0  -0.319779  -0.569829  0  2.259003  0
O  O56  1  0.90366456  0.13560050  0.82587686  1  0  -0.655581  0  2.002481  0  0  -0.589007  0  2.247836  0  0  -0.615839  0  2.23305  0  0  -0.319774  -0.569836  0  2.258977  0
O  O57  1  0.59633213  0.86439715  0.32587790  1  0  -0.655572  0  2.002461  0  0  -0.589022  0  2.247839  0  0  -0.615853  0  2.233051  0  0  -0.319777  -0.56985  0  2.258981  0
O  O58  1  0.29312755  0.80392511  0.03204326  1  0  -0.644275  0  2.06881  0  0  -0.566743  0  2.31035  0  0  -0.596409  0  2.298969  0  0  -0.311349  -0.545454  0  2.317451  0
O  O59  1  0.20687289  0.19607425  0.53204150  1  0  -0.644289  0  2.068827  0  0  -0.56676  0  2.310363  0  0  -0.596421  0  2.29898  0  0  -0.311357  -0.54547  0  2.317465  0
O  O60  1  0.70687332  0.19607461  0.96795735  1  0  -0.64426  0  2.068802  0  0  -0.56675  0  2.310342  0  0  -0.596414  0  2.29896  0  0  -0.311354  -0.545461  0  2.317441  0
O  O61  1  0.79312704  0.80392652  0.46795810  1  0  -0.644304  0  2.068805  0  0  -0.566765  0  2.310345  0  0  -0.596428  0  2.298961  0  0  -0.311366  -0.545476  0  2.317445  0
O  O62  1  0.30183247  0.04487544  0.92171376  1  0  -0.866132  0  1.952154  0  0  -0.783228  0  2.17777  0  0  -0.811428  0  2.140234  0  0  -0.573002  -0.763223  0  2.204953  0
O  O63  1  0.19816613  0.95512369  0.42171493  1  0  -0.866141  0  1.952126  0  0  -0.78319  0  2.177783  0  0  -0.811396  0  2.140261  0  0  -0.572967  -0.763184  0  2.204966  0
O  O64  1  0.69816614  0.95512532  0.07828583  1  0  -0.866103  0  1.952186  0  0  -0.783195  0  2.177798  0  0  -0.8114  0  2.140277  0  0  -0.573005  -0.76319  0  2.20498  0
O  O65  1  0.80183343  0.04487602  0.57828467  1  0  -0.866158  0  1.952124  0  0  -0.783204  0  2.177783  0  0  -0.811413  0  2.140265  0  0  -0.572976  -0.763198  0  2.204965  0
