# generated using pymatgen
data_H4PbC6(NO2)2
_symmetry_space_group_name_H-M   'P 1'
_cell_length_a   7.09947427
_cell_length_b   6.94078022
_cell_length_c   16.17122650
_cell_angle_alpha   90.00362204
_cell_angle_beta   89.99962250
_cell_angle_gamma   102.24651313
_symmetry_Int_Tables_number   1
_chemical_formula_structural   H4PbC6(NO2)2
_chemical_formula_sum   'H16 Pb4 C24 N8 O16'
_cell_volume   778.71844520
_cell_formula_units_Z   4
loop_
 _symmetry_equiv_pos_site_id
 _symmetry_equiv_pos_as_xyz
  1  'x, y, z'
loop_
 _atom_site_type_symbol
 _atom_site_label
 _atom_site_symmetry_multiplicity
 _atom_site_fract_x
 _atom_site_fract_y
 _atom_site_fract_z
 _atom_site_occupancy
 _atom_site_hle17_bader_spin_density
 _atom_site_hle17_ddec_charge
 _atom_site_hle17_ddec_spin_density
 _atom_site_hle17_ddec_sum_bond_order
 _atom_site_hle17_magmom
 _atom_site_hse06_10hf_bader_spin_density
 _atom_site_hse06_10hf_ddec_charge
 _atom_site_hse06_10hf_ddec_spin_density
 _atom_site_hse06_10hf_ddec_sum_bond_order
 _atom_site_hse06_10hf_magmom
 _atom_site_hse06_bader_spin_density
 _atom_site_hse06_ddec_charge
 _atom_site_hse06_ddec_spin_density
 _atom_site_hse06_ddec_sum_bond_order
 _atom_site_hse06_magmom
 _atom_site_pbe_bader_spin_density
 _atom_site_pbe_cm5_charge
 _atom_site_pbe_ddec_charge
 _atom_site_pbe_ddec_spin_density
 _atom_site_pbe_ddec_sum_bond_order
 _atom_site_pbe_magmom
H  H0  1  0.08011761  0.06236542  0.25115558  1  0  0.330165  0  0.904102  0  0  0.305904  0  0.970583  0  0  0.316445  0  0.961383  0  0  0.310267  0.298441  0  0.977147  0
H  H1  1  0.91989304  0.43760796  0.75115875  1  0  0.330301  0  0.904133  0  0  0.306039  0  0.97058  0  0  0.316583  0  0.961376  0  0  0.310375  0.298574  0  0.977149  0
H  H2  1  0.91987505  0.93763136  0.74883959  1  0  0.330248  0  0.903968  0  0  0.305984  0  0.970447  0  0  0.316522  0  0.961249  0  0  0.310366  0.29852  0  0.977014  0
H  H3  1  0.08012721  0.56236532  0.24884508  1  0  0.330133  0  0.904122  0  0  0.305883  0  0.970571  0  0  0.316421  0  0.961376  0  0  0.310333  0.298421  0  0.977135  0
H  H4  1  0.30671437  0.13237992  0.46700948  1  0  0.147326  0  0.936057  0  0  0.167807  0  0.990765  0  0  0.170508  0  0.989198  0  0  0.10765  0.165855  0  0.9919  0
H  H5  1  0.69329390  0.36767256  0.96700372  1  0  0.147285  0  0.935942  0  0  0.167779  0  0.990675  0  0  0.17052  0  0.989059  0  0  0.10763  0.165812  0  0.99183  0
H  H6  1  0.69327857  0.86765958  0.53299250  1  0  0.147325  0  0.936072  0  0  0.167798  0  0.990789  0  0  0.170534  0  0.989174  0  0  0.107627  0.165834  0  0.991942  0
H  H7  1  0.30668889  0.63232418  0.03299764  1  0  0.147186  0  0.93617  0  0  0.167671  0  0.990931  0  0  0.170371  0  0.989362  0  0  0.107553  0.165723  0  0.992062  0
H  H8  1  0.10257007  0.98872466  0.41381631  1  0  0.158335  0  0.947638  0  0  0.1749  0  1.007719  0  0  0.178329  0  1.005414  0  0  0.104017  0.172457  0  1.009333  0
H  H9  1  0.89744826  0.51127249  0.91382292  1  0  0.158306  0  0.94773  0  0  0.174867  0  1.007834  0  0  0.178298  0  1.005533  0  0  0.104033  0.172424  0  1.009445  0
H  H10  1  0.89744021  0.01126186  0.58618629  1  0  0.158377  0  0.947829  0  0  0.174913  0  1.007913  0  0  0.178344  0  1.005609  0  0  0.104031  0.172469  0  1.009529  0
H  H11  1  0.10251318  0.48877133  0.08618400  1  0  0.158327  0  0.947758  0  0  0.174936  0  1.007784  0  0  0.178365  0  1.005479  0  0  0.104062  0.172493  0  1.009396  0
H  H12  1  0.11837757  0.24383900  0.42931553  1  0  0.113044  0  0.960486  0  0  0.131666  0  1.028723  0  0  0.132795  0  1.029011  0  0  0.098067  0.130879  0  1.02859  0
H  H13  1  0.88159060  0.25615256  0.92932304  1  0  0.11273  0  0.960434  0  0  0.131386  0  1.028658  0  0  0.132515  0  1.028949  0  0  0.097944  0.130598  0  1.028523  0
H  H14  1  0.88157008  0.75614437  0.57068211  1  0  0.112941  0  0.960545  0  0  0.131566  0  1.028752  0  0  0.132695  0  1.029043  0  0  0.097995  0.130778  0  1.028619  0
H  H15  1  0.11843849  0.74389148  0.07068388  1  0  0.112982  0  0.960434  0  0  0.131671  0  1.0286  0  0  0.1328  0  1.028887  0  0  0.098074  0.130883  0  1.028467  0
Pb  Pb16  1  0.74246189  0.49848446  0.41560348  1  0  1.350383  0  1.434401  0  0  1.16691  0  1.825247  0  0  1.225302  0  1.783276  0  0  0.665225  1.123787  0  1.855371  0
Pb  Pb17  1  0.25755504  0.00151729  0.91559809  1  0  1.350321  0  1.434331  0  0  1.166824  0  1.825161  0  0  1.225219  0  1.78319  0  0  0.665191  1.123701  0  1.855257  0
Pb  Pb18  1  0.25755482  0.50151975  0.58439108  1  0  1.350318  0  1.43442  0  0  1.166837  0  1.825262  0  0  1.225224  0  1.783305  0  0  0.665165  1.123706  0  1.855386  0
Pb  Pb19  1  0.74245000  0.99847805  0.08439646  1  0  1.35032  0  1.434345  0  0  1.166819  0  1.82518  0  0  1.225212  0  1.783226  0  0  0.665155  1.12369  0  1.855296  0
C  C20  1  0.53305554  0.26686698  0.24311418  1  0  -0.011144  0  3.763202  0  0  -0.022388  0  4.036595  0  0  -0.024286  0  4.057854  0  0  0.074267  -0.021162  0  4.022225  0
C  C21  1  0.46693799  0.23311858  0.74310304  1  0  -0.011267  0  3.763517  0  0  -0.022244  0  4.036624  0  0  -0.024136  0  4.057877  0  0  0.074355  -0.021022  0  4.022256  0
C  C22  1  0.46694587  0.73313130  0.75689026  1  0  -0.011076  0  3.763256  0  0  -0.022272  0  4.036608  0  0  -0.024165  0  4.057864  0  0  0.074294  -0.02105  0  4.022234  0
C  C23  1  0.53305779  0.76687967  0.25688471  1  0  -0.010902  0  3.763261  0  0  -0.022268  0  4.036744  0  0  -0.024163  0  4.058008  0  0  0.074334  -0.021044  0  4.022372  0
C  C24  1  0.36399807  0.18157026  0.20096355  1  0  0.024078  0  3.650459  0  0  0.007328  0  3.919292  0  0  0.007094  0  3.936228  0  0  0.087919  0.007436  0  3.908066  0
C  C25  1  0.63599969  0.31840551  0.70095147  1  0  0.024168  0  3.65029  0  0  0.007265  0  3.919052  0  0  0.007035  0  3.935983  0  0  0.087882  0.007368  0  3.907828  0
C  C26  1  0.63600525  0.81844422  0.79903533  1  0  0.024007  0  3.650704  0  0  0.00716  0  3.919545  0  0  0.006924  0  3.936485  0  0  0.087933  0.00727  0  3.908312  0
C  C27  1  0.36400706  0.68157068  0.29904184  1  0  0.023822  0  3.650244  0  0  0.007133  0  3.919022  0  0  0.00689  0  3.935965  0  0  0.087912  0.007244  0  3.907795  0
C  C28  1  0.30774684  0.17469452  0.33667185  1  0  0.456544  0  3.676432  0  0  0.432211  0  3.951883  0  0  0.44863  0  3.965788  0  0  0.232705  0.421279  0  3.942175  0
C  C29  1  0.69223845  0.32529853  0.83666848  1  0  0.456802  0  3.676039  0  0  0.432433  0  3.951573  0  0  0.448854  0  3.965478  0  0  0.232768  0.421483  0  3.941887  0
C  C30  1  0.69223061  0.82532430  0.66333631  1  0  0.456442  0  3.676342  0  0  0.432042  0  3.951907  0  0  0.448455  0  3.965816  0  0  0.232614  0.421117  0  3.942181  0
C  C31  1  0.30776407  0.67469828  0.16333968  1  0  0.456492  0  3.676246  0  0  0.432051  0  3.951881  0  0  0.44847  0  3.965773  0  0  0.232594  0.421105  0  3.942204  0
C  C32  1  0.72963594  0.36235709  0.21362411  1  0  0.657036  0  3.917322  0  0  0.597415  0  4.229528  0  0  0.633397  0  4.219305  0  0  0.216113  0.572891  0  4.235754  0
C  C33  1  0.27036922  0.13763505  0.71361800  1  0  0.656828  0  3.917273  0  0  0.597101  0  4.229517  0  0  0.633077  0  4.219299  0  0  0.215903  0.572576  0  4.235741  0
C  C34  1  0.27036759  0.63763087  0.78638157  1  0  0.656897  0  3.917429  0  0  0.597248  0  4.229646  0  0  0.633229  0  4.219421  0  0  0.216027  0.572725  0  4.235875  0
C  C35  1  0.72964317  0.86236178  0.28638583  1  0  0.656921  0  3.916952  0  0  0.597337  0  4.229161  0  0  0.633323  0  4.218941  0  0  0.216089  0.572814  0  4.235388  0
C  C36  1  0.31157664  0.14578734  0.11236558  1  0  0.651561  0  3.957436  0  0  0.599337  0  4.255282  0  0  0.635207  0  4.245939  0  0  0.214698  0.574689  0  4.260808  0
C  C37  1  0.68843033  0.35418600  0.61236065  1  0  0.651412  0  3.957639  0  0  0.599367  0  4.255224  0  0  0.635227  0  4.245888  0  0  0.214651  0.574725  0  4.260743  0
C  C38  1  0.68842034  0.85421681  0.88763763  1  0  0.651136  0  3.957872  0  0  0.599083  0  4.255483  0  0  0.634947  0  4.246152  0  0  0.214698  0.574438  0  4.261  0
C  C39  1  0.31158650  0.64578433  0.38763946  1  0  0.651402  0  3.957509  0  0  0.599241  0  4.255235  0  0  0.635111  0  4.245899  0  0  0.214599  0.574597  0  4.260759  0
C  C40  1  0.20377482  0.13192128  0.41644265  1  0  -0.403273  0  3.661563  0  0  -0.480441  0  3.891864  0  0  -0.484657  0  3.896211  0  0  -0.230359  -0.477316  0  3.888784  0
C  C41  1  0.79620748  0.36810404  0.91643598  1  0  -0.402876  0  3.661268  0  0  -0.480065  0  3.89164  0  0  -0.484316  0  3.895959  0  0  -0.230227  -0.476928  0  3.888575  0
C  C42  1  0.79621642  0.86809611  0.58355685  1  0  -0.403122  0  3.661493  0  0  -0.480237  0  3.891823  0  0  -0.484477  0  3.89614  0  0  -0.230214  -0.477105  0  3.888755  0
C  C43  1  0.20377047  0.63191037  0.08355796  1  0  -0.403  0  3.661151  0  0  -0.48027  0  3.891488  0  0  -0.484481  0  3.895829  0  0  -0.230288  -0.477147  0  3.888409  0
N  N44  1  0.49358756  0.26192551  0.32688765  1  0  -0.497936  0  3.141586  0  0  -0.437467  0  3.40537  0  0  -0.460712  0  3.426153  0  0  -0.324056  -0.421348  0  3.390906  0
N  N45  1  0.50640807  0.23808990  0.82687222  1  0  -0.497947  0  3.141605  0  0  -0.437551  0  3.405321  0  0  -0.460799  0  3.426105  0  0  -0.324051  -0.421427  0  3.390856  0
N  N46  1  0.50639411  0.73809333  0.67311803  1  0  -0.497985  0  3.141439  0  0  -0.437489  0  3.405206  0  0  -0.46073  0  3.425985  0  0  -0.324102  -0.421375  0  3.390739  0
N  N47  1  0.49359616  0.76190838  0.17312605  1  0  -0.497997  0  3.141984  0  0  -0.43745  0  3.405786  0  0  -0.460691  0  3.426569  0  0  -0.324078  -0.421327  0  3.391321  0
N  N48  1  0.22587761  0.12777590  0.26145307  1  0  -0.329755  0  3.330827  0  0  -0.272426  0  3.565192  0  0  -0.28875  0  3.577001  0  0  -0.358492  -0.261543  0  3.557359  0
N  N49  1  0.77413326  0.37220616  0.76145401  1  0  -0.330026  0  3.330492  0  0  -0.272681  0  3.564907  0  0  -0.28901  0  3.576701  0  0  -0.358598  -0.26179  0  3.557084  0
N  N50  1  0.77411364  0.87222087  0.73854705  1  0  -0.329624  0  3.331166  0  0  -0.272261  0  3.565535  0  0  -0.288581  0  3.577347  0  0  -0.358518  -0.261384  0  3.5577  0
N  N51  1  0.22587963  0.62778626  0.23854672  1  0  -0.329525  0  3.330993  0  0  -0.272144  0  3.565298  0  0  -0.288465  0  3.577112  0  0  -0.358457  -0.261259  0  3.557473  0
O  O52  1  0.84054535  0.46666622  0.26717068  1  0  -0.643039  0  2.03213  0  0  -0.572173  0  2.269113  0  0  -0.601325  0  2.259634  0  0  -0.293394  -0.55171  0  2.27519  0
O  O53  1  0.15944999  0.03328852  0.76715545  1  0  -0.643111  0  2.031776  0  0  -0.57219  0  2.268735  0  0  -0.601331  0  2.259255  0  0  -0.29342  -0.551715  0  2.274786  0
O  O54  1  0.15945607  0.53331142  0.73282635  1  0  -0.643134  0  2.031802  0  0  -0.572222  0  2.268741  0  0  -0.601389  0  2.259273  0  0  -0.293394  -0.551746  0  2.274796  0
O  O55  1  0.84056139  0.96669652  0.23283354  1  0  -0.643272  0  2.031531  0  0  -0.572364  0  2.268463  0  0  -0.601539  0  2.258997  0  0  -0.293488  -0.551887  0  2.274521  0
O  O56  1  0.78168277  0.34115606  0.13998921  1  0  -0.622379  0  1.981326  0  0  -0.558894  0  2.218814  0  0  -0.585898  0  2.209054  0  0  -0.301432  -0.539968  0  2.225075  0
O  O57  1  0.21829824  0.15887818  0.63999134  1  0  -0.622124  0  1.981402  0  0  -0.55864  0  2.218935  0  0  -0.585646  0  2.209186  0  0  -0.30124  -0.539716  0  2.225197  0
O  O58  1  0.21830717  0.65884807  0.86000039  1  0  -0.622187  0  1.981858  0  0  -0.558716  0  2.219362  0  0  -0.585714  0  2.209601  0  0  -0.301378  -0.539799  0  2.225631  0
O  O59  1  0.78171283  0.84114664  0.36000445  1  0  -0.622136  0  1.981663  0  0  -0.558635  0  2.219104  0  0  -0.585635  0  2.209345  0  0  -0.301273  -0.539715  0  2.22537  0
O  O60  1  0.44457649  0.13203139  0.06021823  1  0  -0.693093  0  2.076507  0  0  -0.611544  0  2.31301  0  0  -0.645053  0  2.306623  0  0  -0.294992  -0.587357  0  2.316591  0
O  O61  1  0.55541145  0.36788662  0.56021536  1  0  -0.693077  0  2.076159  0  0  -0.611578  0  2.312541  0  0  -0.645092  0  2.306175  0  0  -0.295028  -0.587397  0  2.316129  0
O  O62  1  0.55540219  0.86791083  0.93978436  1  0  -0.692898  0  2.076642  0  0  -0.611384  0  2.31301  0  0  -0.644896  0  2.306639  0  0  -0.294972  -0.587203  0  2.316596  0
O  O63  1  0.44462380  0.63209113  0.43978228  1  0  -0.693075  0  2.076354  0  0  -0.611578  0  2.312854  0  0  -0.645064  0  2.306408  0  0  -0.294993  -0.58739  0  2.316436  0
O  O64  1  0.13684756  0.12782253  0.09228731  1  0  -0.687801  0  2.004744  0  0  -0.628128  0  2.246077  0  0  -0.657004  0  2.238779  0  0  -0.308188  -0.607285  0  2.25059  0
O  O65  1  0.86315754  0.37219539  0.59228799  1  0  -0.687721  0  2.004929  0  0  -0.628105  0  2.24616  0  0  -0.656993  0  2.238902  0  0  -0.30815  -0.607264  0  2.250673  0
O  O66  1  0.86316078  0.87223028  0.90771467  1  0  -0.687678  0  2.004854  0  0  -0.628034  0  2.246067  0  0  -0.656923  0  2.238797  0  0  -0.308225  -0.607191  0  2.250579  0
O  O67  1  0.13686714  0.62777202  0.40771646  1  0  -0.687722  0  2.005001  0  0  -0.628074  0  2.246302  0  0  -0.656949  0  2.239001  0  0  -0.308109  -0.607231  0  2.250817  0
