# generated using pymatgen
data_CuH18C18IN2
_symmetry_space_group_name_H-M   'P 1'
_cell_length_a   8.31251922
_cell_length_b   10.18085692
_cell_length_c   10.18087518
_cell_angle_alpha   80.43513771
_cell_angle_beta   86.38504143
_cell_angle_gamma   86.38488550
_symmetry_Int_Tables_number   1
_chemical_formula_structural   CuH18C18IN2
_chemical_formula_sum   'Cu2 H36 C36 I2 N4'
_cell_volume   846.71373274
_cell_formula_units_Z   2
loop_
 _symmetry_equiv_pos_site_id
 _symmetry_equiv_pos_as_xyz
  1  'x, y, z'
loop_
 _atom_site_type_symbol
 _atom_site_label
 _atom_site_symmetry_multiplicity
 _atom_site_fract_x
 _atom_site_fract_y
 _atom_site_fract_z
 _atom_site_occupancy
 _atom_site_pbe_bader_spin_density
 _atom_site_pbe_cm5_charge
 _atom_site_pbe_ddec_charge
 _atom_site_pbe_ddec_spin_density
 _atom_site_pbe_ddec_sum_bond_order
 _atom_site_pbe_magmom
Cu  Cu0  1  0.88319728  0.06379220  0.06379258  1  0  0.352851  0.189989  0  2.651467  0
Cu  Cu1  1  0.11680698  0.93620354  0.93620345  1  0  0.352889  0.190029  0  2.651603  0
H  H2  1  0.61778245  0.89077581  0.14871847  1  0  0.095247  0.064221  0  1.068877  0
H  H3  1  0.38221771  0.85128125  0.10922112  1  0  0.09522  0.064212  0  1.068943  0
H  H4  1  0.38221926  0.10922196  0.85128126  1  0  0.095236  0.064211  0  1.068949  0
H  H5  1  0.61778274  0.14871751  0.89077654  1  0  0.095205  0.064186  0  1.068931  0
H  H6  1  0.47313662  0.78980078  0.36130656  1  0  0.104121  0.110909  0  1.014236  0
H  H7  1  0.52686343  0.63869265  0.21019554  1  0  0.104134  0.110928  0  1.014241  0
H  H8  1  0.52686509  0.21019699  0.63869318  1  0  0.104122  0.110919  0  1.014213  0
H  H9  1  0.47313581  0.36130611  0.78980218  1  0  0.104136  0.110944  0  1.01419  0
H  H10  1  0.80706156  0.97215217  0.57327135  1  0  0.096467  0.106117  0  1.038103  0
H  H11  1  0.19293575  0.42672539  0.02785411  1  0  0.096474  0.106124  0  1.03807  0
H  H12  1  0.19293725  0.02785358  0.42672617  1  0  0.096452  0.106057  0  1.038069  0
H  H13  1  0.80706246  0.57327043  0.97215203  1  0  0.096458  0.106116  0  1.038112  0
H  H14  1  0.93418782  0.07015127  0.35117043  1  0  0.101077  0.06685  0  1.041497  0
H  H15  1  0.06580894  0.64882649  0.92985173  1  0  0.101079  0.066846  0  1.041523  0
H  H16  1  0.06580990  0.92985248  0.64882749  1  0  0.10109  0.066861  0  1.04148  0
H  H17  1  0.93418933  0.35116833  0.07015360  1  0  0.101067  0.066812  0  1.041514  0
H  H18  1  0.42600297  0.79101177  0.60236923  1  0  0.088021  0.085028  0  1.00748  0
H  H19  1  0.57399832  0.39762859  0.20898826  1  0  0.088017  0.085023  0  1.007536  0
H  H20  1  0.57399856  0.20898899  0.39762902  1  0  0.088029  0.085046  0  1.007473  0
H  H21  1  0.42600446  0.60237119  0.79101304  1  0  0.088012  0.085025  0  1.007493  0
H  H22  1  0.55553948  0.87376043  0.68971946  1  0  0.085423  0.095161  0  1.019892  0
H  H23  1  0.44446166  0.31027916  0.12623986  1  0  0.085412  0.095156  0  1.019897  0
H  H24  1  0.44446211  0.12623933  0.31027994  1  0  0.085419  0.095161  0  1.019881  0
H  H25  1  0.55554120  0.68971961  0.87375964  1  0  0.085424  0.095169  0  1.01987  0
H  H26  1  0.63706422  0.60163554  0.60163774  1  0  0.087164  0.08507  0  0.981437  0
H  H27  1  0.36293501  0.39836323  0.39836194  1  0  0.087162  0.085074  0  0.981478  0
H  H28  1  0.76526812  0.68690314  0.68690161  1  0  0.0838  0.085191  0  1.001318  0
H  H29  1  0.23473347  0.31309662  0.31309681  1  0  0.083813  0.08519  0  1.001324  0
H  H30  1  0.18560695  0.71258318  0.52377083  1  0  0.09197  0.089089  0  1.031675  0
H  H31  1  0.81439123  0.47622879  0.28741966  1  0  0.091961  0.089086  0  1.031641  0
H  H32  1  0.81439197  0.28742059  0.47622899  1  0  0.09196  0.089067  0  1.031654  0
H  H33  1  0.18560668  0.52377199  0.71258171  1  0  0.091965  0.089075  0  1.0317  0
H  H34  1  0.09289037  0.81634414  0.30027935  1  0  0.09012  0.088538  0  1.041128  0
H  H35  1  0.90710555  0.69972070  0.18365614  1  0  0.090113  0.088542  0  1.041149  0
H  H36  1  0.90710633  0.18365663  0.69972012  1  0  0.090115  0.088548  0  1.041155  0
H  H37  1  0.09288995  0.30028007  0.81634241  1  0  0.090128  0.088572  0  1.041148  0
C  C38  1  0.65461079  0.90681355  0.24553272  1  0  0.032405  0.082587  0  3.966876  0
C  C39  1  0.34538930  0.75446668  0.09318465  1  0  0.032482  0.082603  0  3.966856  0
C  C40  1  0.34539080  0.09318621  0.75446570  1  0  0.032478  0.08269  0  3.966954  0
C  C41  1  0.65460994  0.24553209  0.90681503  1  0  0.032517  0.08269  0  3.966773  0
C  C42  1  0.57661715  0.84992811  0.36396369  1  0  -0.088949  -0.189267  0  3.95125  0
C  C43  1  0.42338356  0.63603580  0.15006949  1  0  -0.089005  -0.189326  0  3.951328  0
C  C44  1  0.42338449  0.15007067  0.63603783  1  0  -0.089011  -0.18938  0  3.951378  0
C  C45  1  0.57661803  0.36396396  0.84992991  1  0  -0.088995  -0.189343  0  3.951295  0
C  C46  1  0.63053620  0.87035432  0.48600447  1  0  0.011937  0.173784  0  3.935882  0
C  C47  1  0.36946345  0.51399393  0.12964714  1  0  0.011971  0.173797  0  3.935943  0
C  C48  1  0.36946406  0.12964745  0.51399562  1  0  0.011964  0.173808  0  3.935927  0
C  C49  1  0.63053820  0.48600484  0.87035242  1  0  0.011931  0.173748  0  3.935891  0
C  C50  1  0.76153667  0.95160192  0.48091972  1  0  -0.087731  -0.179646  0  3.932763  0
C  C51  1  0.23846126  0.51907703  0.04840198  1  0  -0.087764  -0.179664  0  3.932693  0
C  C52  1  0.23846220  0.04840284  0.51907895  1  0  -0.087723  -0.179564  0  3.932671  0
C  C53  1  0.76153809  0.48091977  0.95160197  1  0  -0.087723  -0.17965  0  3.932634  0
C  C54  1  0.83229995  0.00622630  0.35844258  1  0  0.033835  0.080836  0  3.965356  0
C  C55  1  0.16769712  0.64155503  0.99377590  1  0  0.03384  0.080849  0  3.965351  0
C  C56  1  0.16769777  0.99377746  0.64155534  1  0  0.033802  0.080811  0  3.965288  0
C  C57  1  0.83230109  0.35844077  0.00622730  1  0  0.033877  0.080929  0  3.965221  0
C  C58  1  0.55341788  0.80647852  0.61576829  1  0  -0.163903  -0.20525  0  3.952266  0
C  C59  1  0.44658297  0.38423065  0.19352083  1  0  -0.163894  -0.205249  0  3.952356  0
C  C60  1  0.44658371  0.19352125  0.38423209  1  0  -0.163912  -0.205267  0  3.952287  0
C  C61  1  0.55341988  0.61576812  0.80647966  1  0  -0.163876  -0.205207  0  3.952206  0
C  C62  1  0.63786332  0.67245070  0.67245266  1  0  -0.160312  -0.118928  0  3.899701  0
C  C63  1  0.36213712  0.32754808  0.32754795  1  0  -0.160327  -0.118928  0  3.899814  0
C  C64  1  0.05352330  0.53404461  0.53404351  1  0  -0.010041  0.072359  0  4.004489  0
C  C65  1  0.94647702  0.46595616  0.46595675  1  0  -0.010061  0.072303  0  4.004507  0
C  C66  1  0.10454355  0.66107220  0.47150439  1  0  -0.098577  -0.145826  0  3.989883  0
C  C67  1  0.89545371  0.52849549  0.33892993  1  0  -0.098564  -0.145769  0  3.989843  0
C  C68  1  0.89545417  0.33893156  0.52849451  1  0  -0.098564  -0.145751  0  3.989833  0
C  C69  1  0.10454419  0.47150529  0.66107046  1  0  -0.098557  -0.14579  0  3.989918  0
C  C70  1  0.05296293  0.71890362  0.34790089  1  0  -0.098037  -0.076927  0  4.014705  0
C  C71  1  0.94703403  0.65209954  0.28109821  1  0  -0.098021  -0.076997  0  4.014737  0
C  C72  1  0.94703244  0.28109916  0.65209928  1  0  -0.098  -0.076966  0  4.014717  0
C  C73  1  0.05296261  0.34790224  0.71890206  1  0  -0.098039  -0.076987  0  4.014786  0
I  I74  1  0.18519842  0.10280770  0.10280801  1  0  -0.208252  -0.414476  0  1.809255  0
I  I75  1  0.81481047  0.89719103  0.89718728  1  0  -0.208273  -0.414479  0  1.809379  0
N  N76  1  0.78178634  0.98370776  0.24101492  1  0  -0.366046  -0.195794  0  3.655159  0
N  N77  1  0.21821543  0.75898302  0.01629062  1  0  -0.36607  -0.195797  0  3.655206  0
N  N78  1  0.21821639  0.01629299  0.75898327  1  0  -0.366059  -0.195848  0  3.655216  0
N  N79  1  0.78178513  0.24101376  0.98371032  1  0  -0.366108  -0.195862  0  3.655136  0
