# generated using pymatgen
data_CdH6C9IN7
_symmetry_space_group_name_H-M   'P 1'
_cell_length_a   8.10133745
_cell_length_b   10.75016455
_cell_length_c   15.06848675
_cell_angle_alpha   89.99997022
_cell_angle_beta   89.99997054
_cell_angle_gamma   110.66349312
_symmetry_Int_Tables_number   1
_chemical_formula_structural   CdH6C9IN7
_chemical_formula_sum   'Cd4 H24 C36 I4 N28'
_cell_volume   1227.90210855
_cell_formula_units_Z   4
loop_
 _symmetry_equiv_pos_site_id
 _symmetry_equiv_pos_as_xyz
  1  'x, y, z'
loop_
 _atom_site_type_symbol
 _atom_site_label
 _atom_site_symmetry_multiplicity
 _atom_site_fract_x
 _atom_site_fract_y
 _atom_site_fract_z
 _atom_site_occupancy
 _atom_site_hle17_bader_spin_density
 _atom_site_hle17_ddec_charge
 _atom_site_hle17_ddec_spin_density
 _atom_site_hle17_ddec_sum_bond_order
 _atom_site_hle17_magmom
 _atom_site_hse06_10hf_bader_spin_density
 _atom_site_hse06_10hf_ddec_charge
 _atom_site_hse06_10hf_ddec_spin_density
 _atom_site_hse06_10hf_ddec_sum_bond_order
 _atom_site_hse06_10hf_magmom
 _atom_site_hse06_bader_spin_density
 _atom_site_hse06_ddec_charge
 _atom_site_hse06_ddec_spin_density
 _atom_site_hse06_ddec_sum_bond_order
 _atom_site_hse06_magmom
 _atom_site_pbe_bader_spin_density
 _atom_site_pbe_cm5_charge
 _atom_site_pbe_ddec_charge
 _atom_site_pbe_ddec_spin_density
 _atom_site_pbe_ddec_sum_bond_order
 _atom_site_pbe_magmom
Cd  Cd0  1  0.99847353  0.17394637  0.87543677  1  0  0.91844  0  1.906555  0  0  0.723482  0  2.364673  0  0  0.775247  0  2.323569  0  0  0.678833  0.687446  0  2.3924  0
Cd  Cd1  1  0.00152614  0.32605347  0.37543644  1  0  0.918439  0  1.906526  0  0  0.723481  0  2.364639  0  0  0.775246  0  2.323535  0  0  0.678831  0.687443  0  2.39237  0
Cd  Cd2  1  0.00152559  0.82605413  0.12456378  1  0  0.918419  0  1.90656  0  0  0.723456  0  2.364693  0  0  0.775222  0  2.323588  0  0  0.678831  0.687419  0  2.392425  0
Cd  Cd3  1  0.99847499  0.67394603  0.62456345  1  0  0.918446  0  1.906544  0  0  0.723488  0  2.364662  0  0  0.775254  0  2.323557  0  0  0.678838  0.687454  0  2.392391  0
H  H4  1  0.58793190  0.60424159  0.84525256  1  0  0.111761  0  0.977219  0  0  0.117074  0  1.045874  0  0  0.120536  0  1.044513  0  0  0.107661  0.114592  0  1.046974  0
H  H5  1  0.41206882  0.89575932  0.34525143  1  0  0.111747  0  0.977184  0  0  0.117062  0  1.045844  0  0  0.120526  0  1.04448  0  0  0.107655  0.114579  0  1.046948  0
H  H6  1  0.41206845  0.39575891  0.15474733  1  0  0.111753  0  0.977212  0  0  0.117084  0  1.045852  0  0  0.120547  0  1.044488  0  0  0.10766  0.114603  0  1.046948  0
H  H7  1  0.58793448  0.10424217  0.65474780  1  0  0.111762  0  0.977179  0  0  0.117103  0  1.045812  0  0  0.120567  0  1.044444  0  0  0.107667  0.114622  0  1.046907  0
H  H8  1  0.35980852  0.15755717  0.97781410  1  0  0.065484  0  0.963001  0  0  0.069549  0  1.038398  0  0  0.072257  0  1.036019  0  0  0.099124  0.067517  0  1.040162  0
H  H9  1  0.64019147  0.34244356  0.47781425  1  0  0.065506  0  0.962955  0  0  0.069551  0  1.03837  0  0  0.072254  0  1.036005  0  0  0.099123  0.06752  0  1.040134  0
H  H10  1  0.64019107  0.84244433  0.02218645  1  0  0.065504  0  0.962933  0  0  0.069549  0  1.038348  0  0  0.072251  0  1.035983  0  0  0.099127  0.067518  0  1.040111  0
H  H11  1  0.35980796  0.65755495  0.52218564  1  0  0.065459  0  0.962968  0  0  0.069488  0  1.038398  0  0  0.072191  0  1.036027  0  0  0.099113  0.067457  0  1.040162  0
H  H12  1  0.67913247  0.29728565  0.00058518  1  0  0.092477  0  1.007909  0  0  0.09826  0  1.078557  0  0  0.102035  0  1.076901  0  0  0.082327  0.095399  0  1.080082  0
H  H13  1  0.32086652  0.20271461  0.50058502  1  0  0.092476  0  1.007903  0  0  0.098246  0  1.078567  0  0  0.10202  0  1.076911  0  0  0.082314  0.095384  0  1.080093  0
H  H14  1  0.32086712  0.70271584  0.99941604  1  0  0.09248  0  1.007923  0  0  0.098262  0  1.078575  0  0  0.102039  0  1.076918  0  0  0.082326  0.095402  0  1.080101  0
H  H15  1  0.67913167  0.79728390  0.49941487  1  0  0.092522  0  1.007891  0  0  0.098301  0  1.078537  0  0  0.102075  0  1.076883  0  0  0.082346  0.095441  0  1.080066  0
H  H16  1  0.79343912  0.52724032  0.93266544  1  0  0.096814  0  0.928324  0  0  0.107785  0  0.986643  0  0  0.110902  0  0.984448  0  0  0.103181  0.105172  0  0.988843  0
H  H17  1  0.20656024  0.97276049  0.43266434  1  0  0.096837  0  0.928303  0  0  0.107789  0  0.986642  0  0  0.110904  0  0.984447  0  0  0.103188  0.105177  0  0.988842  0
H  H18  1  0.20656001  0.47276018  0.06733578  1  0  0.096839  0  0.928299  0  0  0.107796  0  0.986635  0  0  0.110911  0  0.98444  0  0  0.103186  0.105184  0  0.988834  0
H  H19  1  0.79343625  0.02723703  0.56733489  1  0  0.096805  0  0.928304  0  0  0.107799  0  0.986605  0  0  0.110918  0  0.984409  0  0  0.103199  0.105186  0  0.988805  0
H  H20  1  0.49740169  0.46054716  0.62509579  1  0  0.100328  0  0.935486  0  0  0.107611  0  1.003383  0  0  0.110839  0  0.999128  0  0  0.130886  0.105219  0  1.006432  0
H  H21  1  0.50259958  0.03945296  0.12509609  1  0  0.100314  0  0.935489  0  0  0.107594  0  1.00339  0  0  0.11082  0  0.999144  0  0  0.13089  0.105202  0  1.006438  0
H  H22  1  0.50259973  0.53945035  0.37490144  1  0  0.100315  0  0.93547  0  0  0.107581  0  1.003392  0  0  0.110805  0  0.999149  0  0  0.13088  0.10519  0  1.006441  0
H  H23  1  0.49739925  0.96054953  0.87490114  1  0  0.100312  0  0.935478  0  0  0.107593  0  1.003382  0  0  0.110817  0  0.999137  0  0  0.13088  0.1052  0  1.00643  0
H  H24  1  0.41809342  0.22660510  0.70983760  1  0  0.272728  0  0.97127  0  0  0.238382  0  1.051937  0  0  0.248707  0  1.044494  0  0  0.306358  0.231186  0  1.057111  0
H  H25  1  0.58190727  0.27339393  0.20983713  1  0  0.272731  0  0.971273  0  0  0.238381  0  1.051944  0  0  0.248706  0  1.044502  0  0  0.30637  0.231187  0  1.057114  0
H  H26  1  0.58190601  0.77339341  0.29016229  1  0  0.272664  0  0.971351  0  0  0.238346  0  1.051988  0  0  0.24867  0  1.044547  0  0  0.306346  0.231154  0  1.057154  0
H  H27  1  0.41809433  0.72660657  0.79016210  1  0  0.272731  0  0.971251  0  0  0.238374  0  1.051946  0  0  0.248698  0  1.044506  0  0  0.306363  0.231181  0  1.057113  0
C  C28  1  0.80811638  0.40992412  0.73216159  1  0  0.23841  0  3.843407  0  0  0.218416  0  4.112299  0  0  0.228119  0  4.127643  0  0  0.212149  0.21194  0  4.101726  0
C  C29  1  0.19188474  0.09007589  0.23216196  1  0  0.238397  0  3.843423  0  0  0.21842  0  4.112346  0  0  0.228123  0  4.12769  0  0  0.212136  0.211944  0  4.101775  0
C  C30  1  0.19188228  0.59007539  0.26783830  1  0  0.2384  0  3.84345  0  0  0.218417  0  4.112366  0  0  0.22812  0  4.127711  0  0  0.212163  0.211942  0  4.101795  0
C  C31  1  0.80811856  0.90992560  0.76783794  1  0  0.238481  0  3.843446  0  0  0.218484  0  4.112354  0  0  0.228187  0  4.127699  0  0  0.212187  0.212007  0  4.10178  0
C  C32  1  0.36411250  0.42378518  0.86886349  1  0  0.156745  0  3.78734  0  0  0.155228  0  4.031208  0  0  0.161396  0  4.050644  0  0  0.117068  0.151029  0  4.01795  0
C  C33  1  0.63588888  0.07621566  0.36886375  1  0  0.156698  0  3.787429  0  0  0.155241  0  4.031203  0  0  0.161407  0  4.05064  0  0  0.117082  0.151041  0  4.017947  0
C  C34  1  0.63588786  0.57621532  0.13113640  1  0  0.156676  0  3.787433  0  0  0.155216  0  4.031215  0  0  0.161382  0  4.050652  0  0  0.117064  0.151016  0  4.017961  0
C  C35  1  0.36411148  0.92378484  0.63113681  1  0  0.156658  0  3.78746  0  0  0.155182  0  4.031244  0  0  0.161346  0  4.050683  0  0  0.117069  0.150984  0  4.017987  0
C  C36  1  0.54087396  0.50734021  0.87709587  1  0  -0.126464  0  3.684204  0  0  -0.147646  0  3.936163  0  0  -0.153346  0  3.956265  0  0  -0.081072  -0.143998  0  3.922692  0
C  C37  1  0.45912672  0.99266066  0.37709468  1  0  -0.126412  0  3.684121  0  0  -0.147622  0  3.936071  0  0  -0.153322  0  3.956173  0  0  -0.081059  -0.143974  0  3.922603  0
C  C38  1  0.45912640  0.49266029  0.12290469  1  0  -0.126371  0  3.684195  0  0  -0.147587  0  3.936129  0  0  -0.153283  0  3.956228  0  0  -0.081044  -0.143938  0  3.922662  0
C  C39  1  0.54087411  0.00734083  0.62290454  1  0  -0.126324  0  3.684092  0  0  -0.147545  0  3.936011  0  0  -0.15324  0  3.956111  0  0  -0.081034  -0.143896  0  3.922541  0
C  C40  1  0.41610719  0.25824880  0.95086512  1  0  0.13373  0  3.714448  0  0  0.103709  0  3.967156  0  0  0.110189  0  3.985265  0  0  0.042311  0.099449  0  3.954856  0
C  C41  1  0.58389160  0.24175195  0.45086466  1  0  0.133673  0  3.714414  0  0  0.103674  0  3.96711  0  0  0.110153  0  3.985216  0  0  0.042301  0.099415  0  3.954813  0
C  C42  1  0.58389024  0.74175071  0.04913544  1  0  0.133729  0  3.714432  0  0  0.10374  0  3.967128  0  0  0.11022  0  3.985235  0  0  0.042318  0.099481  0  3.954828  0
C  C43  1  0.41610705  0.75824755  0.54913457  1  0  0.1338  0  3.714273  0  0  0.103809  0  3.966991  0  0  0.110294  0  3.985095  0  0  0.042323  0.09955  0  3.954696  0
C  C44  1  0.23211676  0.46200477  0.82094628  1  0  0.258883  0  3.780437  0  0  0.230979  0  4.050152  0  0  0.241848  0  4.066415  0  0  0.204918  0.223862  0  4.03897  0
C  C45  1  0.76788592  0.03799613  0.32094784  1  0  0.258847  0  3.78045  0  0  0.230956  0  4.050101  0  0  0.241824  0  4.066365  0  0  0.20491  0.223838  0  4.038921  0
C  C46  1  0.76788483  0.53799573  0.17905294  1  0  0.258873  0  3.780509  0  0  0.230975  0  4.050168  0  0  0.241844  0  4.06643  0  0  0.204925  0.223858  0  4.038988  0
C  C47  1  0.23211567  0.96200437  0.67905338  1  0  0.258852  0  3.7805  0  0  0.230969  0  4.050149  0  0  0.241838  0  4.066411  0  0  0.204921  0.22385  0  4.038967  0
C  C48  1  0.98752540  0.44917393  0.76356816  1  0  0.264948  0  3.847757  0  0  0.242676  0  4.10576  0  0  0.254283  0  4.121592  0  0  0.211443  0.234969  0  4.094867  0
C  C49  1  0.01247520  0.05082504  0.26356859  1  0  0.264919  0  3.847694  0  0  0.242567  0  4.105821  0  0  0.254174  0  4.121653  0  0  0.211397  0.234861  0  4.094929  0
C  C50  1  0.01247279  0.55082458  0.23643240  1  0  0.264938  0  3.84769  0  0  0.242609  0  4.105785  0  0  0.254218  0  4.121616  0  0  0.2114  0.234904  0  4.094892  0
C  C51  1  0.98752593  0.94917446  0.73643263  1  0  0.264849  0  3.847747  0  0  0.242582  0  4.105755  0  0  0.254189  0  4.121589  0  0  0.211393  0.234876  0  4.094858  0
C  C52  1  0.59266492  0.33630433  0.96326977  1  0  -0.117204  0  3.730407  0  0  -0.130398  0  3.980154  0  0  -0.136956  0  4.001125  0  0  -0.089682  -0.126158  0  3.966141  0
C  C53  1  0.40733339  0.16369542  0.46327006  1  0  -0.117217  0  3.730346  0  0  -0.130395  0  3.980081  0  0  -0.136954  0  4.001052  0  0  -0.089669  -0.126154  0  3.966069  0
C  C54  1  0.40733421  0.66369617  0.03673144  1  0  -0.11724  0  3.730423  0  0  -0.130432  0  3.980177  0  0  -0.13699  0  4.001142  0  0  -0.089686  -0.126194  0  3.966163  0
C  C55  1  0.59266650  0.83630409  0.53673116  1  0  -0.117306  0  3.730432  0  0  -0.130501  0  3.980194  0  0  -0.13706  0  4.001165  0  0  -0.089712  -0.126264  0  3.966183  0
C  C56  1  0.65572050  0.46279889  0.92513054  1  0  0.005792  0  3.705042  0  0  -0.011899  0  3.954985  0  0  -0.008834  0  3.973093  0  0  -0.067869  -0.013651  0  3.942762  0
C  C57  1  0.34427833  0.03720189  0.42512890  1  0  0.00579  0  3.704974  0  0  -0.011883  0  3.954909  0  0  -0.008816  0  3.973018  0  0  -0.067873  -0.013635  0  3.942689  0
C  C58  1  0.34427863  0.53720161  0.07487067  1  0  0.005746  0  3.705079  0  0  -0.01194  0  3.95503  0  0  -0.008872  0  3.973137  0  0  -0.067896  -0.013693  0  3.942808  0
C  C59  1  0.65571939  0.96279563  0.57487099  1  0  0.005721  0  3.705093  0  0  -0.011996  0  3.955052  0  0  -0.008932  0  3.973164  0  0  -0.067928  -0.013747  0  3.942829  0
C  C60  1  0.58684040  0.42766187  0.66435056  1  0  0.238318  0  3.653694  0  0  0.171821  0  3.928865  0  0  0.187107  0  3.93982  0  0  0.162717  0.162007  0  3.921076  0
C  C61  1  0.41316035  0.07233722  0.16435087  1  0  0.23833  0  3.653665  0  0  0.171837  0  3.928838  0  0  0.187122  0  3.939791  0  0  0.162694  0.162024  0  3.921047  0
C  C62  1  0.41315856  0.57233565  0.33564867  1  0  0.238297  0  3.65366  0  0  0.171816  0  3.928831  0  0  0.187101  0  3.939781  0  0  0.162666  0.162  0  3.921045  0
C  C63  1  0.58683924  0.92766428  0.83564769  1  0  0.238321  0  3.653643  0  0  0.171823  0  3.928819  0  0  0.18711  0  3.939771  0  0  0.162694  0.162008  0  3.921028  0
I  I64  1  0.89202944  0.15042779  0.05284192  1  0  -0.523923  0  0.960409  0  0  -0.473704  0  1.262589  0  0  -0.493378  0  1.240877  0  0  -0.26303  -0.459472  0  1.277874  0
I  I65  1  0.10797194  0.34957241  0.55284243  1  0  -0.523929  0  0.960396  0  0  -0.47371  0  1.262569  0  0  -0.493384  0  1.240855  0  0  -0.263036  -0.459475  0  1.277854  0
I  I66  1  0.10797168  0.84957171  0.94715797  1  0  -0.523914  0  0.960396  0  0  -0.473699  0  1.262577  0  0  -0.493374  0  1.240863  0  0  -0.26303  -0.459464  0  1.277862  0
I  I67  1  0.89202889  0.65042908  0.44715813  1  0  -0.52393  0  0.960408  0  0  -0.473712  0  1.262582  0  0  -0.493384  0  1.240869  0  0  -0.263022  -0.459474  0  1.277866  0
N  N68  1  0.75783111  0.49434828  0.67961815  1  0  -0.439118  0  3.179348  0  0  -0.368488  0  3.457676  0  0  -0.39095  0  3.471782  0  0  -0.344672  -0.353281  0  3.44772  0
N  N69  1  0.24216885  0.00565178  0.17961853  1  0  -0.439091  0  3.179347  0  0  -0.368463  0  3.457673  0  0  -0.390925  0  3.47178  0  0  -0.344627  -0.353256  0  3.447717  0
N  N70  1  0.24216831  0.50565023  0.32038174  1  0  -0.439124  0  3.179275  0  0  -0.368494  0  3.457592  0  0  -0.390954  0  3.471698  0  0  -0.344667  -0.353286  0  3.447639  0
N  N71  1  0.75783074  0.99434971  0.82038069  1  0  -0.439174  0  3.179303  0  0  -0.368552  0  3.45764  0  0  -0.391013  0  3.471746  0  0  -0.344694  -0.353345  0  3.447683  0
N  N72  1  0.26060100  0.57771230  0.77826845  1  0  -0.247454  0  3.028241  0  0  -0.215222  0  3.298987  0  0  -0.22512  0  3.314837  0  0  -0.212458  -0.208585  0  3.288128  0
N  N73  1  0.73939982  0.92228868  0.27826854  1  0  -0.247412  0  3.028208  0  0  -0.215181  0  3.29891  0  0  -0.225079  0  3.31476  0  0  -0.212438  -0.208544  0  3.288053  0
N  N74  1  0.73939935  0.42228820  0.22173011  1  0  -0.247477  0  3.028342  0  0  -0.215227  0  3.299045  0  0  -0.225127  0  3.314895  0  0  -0.212454  -0.208591  0  3.288189  0
N  N75  1  0.26060178  0.07771182  0.72173201  1  0  -0.247487  0  3.028283  0  0  -0.215253  0  3.298997  0  0  -0.225151  0  3.314845  0  0  -0.212471  -0.208615  0  3.288138  0
N  N76  1  0.06122425  0.37888471  0.81356801  1  0  -0.449172  0  3.157501  0  0  -0.378893  0  3.428565  0  0  -0.401084  0  3.441417  0  0  -0.352323  -0.363683  0  3.419476  0
N  N77  1  0.93877675  0.12111520  0.31356750  1  0  -0.449116  0  3.157419  0  0  -0.378819  0  3.428494  0  0  -0.40101  0  3.441347  0  0  -0.352303  -0.363608  0  3.419405  0
N  N78  1  0.93877611  0.62111579  0.18643254  1  0  -0.449134  0  3.157446  0  0  -0.378848  0  3.428519  0  0  -0.401039  0  3.441372  0  0  -0.352313  -0.363637  0  3.419431  0
N  N79  1  0.06122438  0.87888431  0.68643306  1  0  -0.449092  0  3.157456  0  0  -0.378831  0  3.428505  0  0  -0.401021  0  3.441359  0  0  -0.352303  -0.363621  0  3.419416  0
N  N80  1  0.67819424  0.29594942  0.74961461  1  0  -0.244167  0  2.851304  0  0  -0.238812  0  3.123013  0  0  -0.244876  0  3.136527  0  0  -0.221227  -0.234489  0  3.113939  0
N  N81  1  0.32180561  0.20405057  0.24961490  1  0  -0.244234  0  2.851304  0  0  -0.238877  0  3.123012  0  0  -0.24494  0  3.136526  0  0  -0.221248  -0.234554  0  3.113941  0
N  N82  1  0.32180271  0.70404910  0.25038595  1  0  -0.24418  0  2.851378  0  0  -0.238819  0  3.123089  0  0  -0.244882  0  3.136604  0  0  -0.221246  -0.234496  0  3.114018  0
N  N83  1  0.67819768  0.79595092  0.75038566  1  0  -0.244232  0  2.85132  0  0  -0.238883  0  3.123034  0  0  -0.244946  0  3.136549  0  0  -0.221293  -0.234562  0  3.11396  0
N  N84  1  0.30449143  0.30067170  0.90483529  1  0  -0.345855  0  3.234085  0  0  -0.275738  0  3.490332  0  0  -0.29408  0  3.508837  0  0  -0.325286  -0.263213  0  3.477395  0
N  N85  1  0.69550743  0.19932911  0.40483481  1  0  -0.34581  0  3.234115  0  0  -0.275721  0  3.490343  0  0  -0.294058  0  3.508846  0  0  -0.325292  -0.263195  0  3.477409  0
N  N86  1  0.69550769  0.69932880  0.09516527  1  0  -0.345851  0  3.234131  0  0  -0.275772  0  3.490366  0  0  -0.294111  0  3.508869  0  0  -0.325307  -0.263246  0  3.477432  0
N  N87  1  0.30449293  0.80067139  0.59516574  1  0  -0.345831  0  3.234068  0  0  -0.275731  0  3.490281  0  0  -0.29407  0  3.508783  0  0  -0.325285  -0.263205  0  3.477348  0
N  N88  1  0.10418437  0.56899764  0.74158264  1  0  -0.287091  0  3.116091  0  0  -0.23815  0  3.403817  0  0  -0.25379  0  3.419854  0  0  -0.243434  -0.227242  0  3.392583  0
N  N89  1  0.89581434  0.93100139  0.24158335  1  0  -0.287057  0  3.116059  0  0  -0.238098  0  3.403803  0  0  -0.253737  0  3.41984  0  0  -0.243394  -0.227191  0  3.392569  0
N  N90  1  0.89581306  0.43100186  0.25841725  1  0  -0.28705  0  3.116098  0  0  -0.238098  0  3.403827  0  0  -0.253738  0  3.419864  0  0  -0.2434  -0.22719  0  3.392592  0
N  N91  1  0.10418679  0.06899811  0.75841787  1  0  -0.287008  0  3.116038  0  0  -0.23807  0  3.403746  0  0  -0.253709  0  3.419784  0  0  -0.243394  -0.227161  0  3.392506  0
N  N92  1  0.53902916  0.30984169  0.70623269  1  0  -0.17442  0  3.461018  0  0  -0.106031  0  3.712084  0  0  -0.121061  0  3.729027  0  0  -0.257927  -0.096032  0  3.700434  0
N  N93  1  0.46097076  0.19015834  0.20623229  1  0  -0.174391  0  3.460967  0  0  -0.106001  0  3.712037  0  0  -0.121032  0  3.72898  0  0  -0.257943  -0.096003  0  3.700388  0
N  N94  1  0.46096949  0.69015781  0.29376720  1  0  -0.17431  0  3.461063  0  0  -0.105941  0  3.712113  0  0  -0.120973  0  3.729057  0  0  -0.257853  -0.095942  0  3.700465  0
N  N95  1  0.53903084  0.80984216  0.79376628  1  0  -0.174341  0  3.460995  0  0  -0.105929  0  3.712038  0  0  -0.12096  0  3.728982  0  0  -0.257856  -0.095931  0  3.700386  0
