# generated using pymatgen
data_CdH15C18BrN12
_symmetry_space_group_name_H-M   'P 1'
_cell_length_a   11.04878791
_cell_length_b   10.97023394
_cell_length_c   10.97024833
_cell_angle_alpha   69.80235947
_cell_angle_beta   64.41852684
_cell_angle_gamma   64.41856589
_symmetry_Int_Tables_number   1
_chemical_formula_structural   CdH15C18BrN12
_chemical_formula_sum   'Cd2 H30 C36 Br2 N24'
_cell_volume   1060.95471535
_cell_formula_units_Z   2
loop_
 _symmetry_equiv_pos_site_id
 _symmetry_equiv_pos_as_xyz
  1  'x, y, z'
loop_
 _atom_site_type_symbol
 _atom_site_label
 _atom_site_symmetry_multiplicity
 _atom_site_fract_x
 _atom_site_fract_y
 _atom_site_fract_z
 _atom_site_occupancy
 _atom_site_hle17_bader_spin_density
 _atom_site_hle17_ddec_charge
 _atom_site_hle17_ddec_spin_density
 _atom_site_hle17_ddec_sum_bond_order
 _atom_site_hle17_magmom
 _atom_site_hse06_10hf_bader_spin_density
 _atom_site_hse06_10hf_ddec_charge
 _atom_site_hse06_10hf_ddec_spin_density
 _atom_site_hse06_10hf_ddec_sum_bond_order
 _atom_site_hse06_10hf_magmom
 _atom_site_hse06_bader_spin_density
 _atom_site_hse06_ddec_charge
 _atom_site_hse06_ddec_spin_density
 _atom_site_hse06_ddec_sum_bond_order
 _atom_site_hse06_magmom
 _atom_site_pbe_bader_spin_density
 _atom_site_pbe_cm5_charge
 _atom_site_pbe_ddec_charge
 _atom_site_pbe_ddec_spin_density
 _atom_site_pbe_ddec_sum_bond_order
 _atom_site_pbe_magmom
Cd  Cd0  1  0.74190192  0.62948981  0.36543135  1  0  0.948816  0  1.923939  0  0  0.751363  0  2.400235  0  0  0.796565  0  2.361291  0  0  0.708655  0.721  0  2.425776  0
Cd  Cd1  1  0.24190261  0.36543088  0.62948747  1  0  0.948818  0  1.923927  0  0  0.751374  0  2.400219  0  0  0.796568  0  2.36129  0  0  0.708644  0.721004  0  2.425753  0
H  H2  1  0.49228307  0.23806233  0.78083378  1  0  0.107962  0  0.961488  0  0  0.115623  0  1.029974  0  0  0.117473  0  1.027603  0  0  0.141932  0.114051  0  1.031338  0
H  H3  1  0.99228205  0.78083458  0.23806320  1  0  0.107964  0  0.961498  0  0  0.115622  0  1.029985  0  0  0.117477  0  1.02761  0  0  0.141937  0.114053  0  1.031354  0
H  H4  1  0.67584526  0.08599313  0.97701097  1  0  0.292112  0  0.958671  0  0  0.257948  0  1.045602  0  0  0.268111  0  1.03726  0  0  0.301255  0.250888  0  1.051351  0
H  H5  1  0.17584589  0.97701286  0.08599276  1  0  0.292025  0  0.958828  0  0  0.257933  0  1.045653  0  0  0.268095  0  1.037311  0  0  0.301255  0.250873  0  1.051407  0
H  H6  1  0.44197568  0.90449566  0.44518287  1  0  0.106908  0  0.97507  0  0  0.114881  0  1.040312  0  0  0.117915  0  1.039186  0  0  0.090909  0.113752  0  1.039063  0
H  H7  1  0.94197587  0.44518131  0.90449519  1  0  0.106911  0  0.975067  0  0  0.114885  0  1.040307  0  0  0.117918  0  1.039182  0  0  0.090919  0.113758  0  1.039056  0
H  H8  1  0.18575569  0.04472181  0.51292185  1  0  0.0828  0  0.962754  0  0  0.094779  0  1.022496  0  0  0.097502  0  1.021353  0  0  0.0897  0.092832  0  1.023283  0
H  H9  1  0.68575612  0.51291956  0.04472205  1  0  0.082716  0  0.962735  0  0  0.094667  0  1.022511  0  0  0.09739  0  1.021369  0  0  0.089641  0.092725  0  1.023297  0
H  H10  1  0.99873161  0.93561761  0.61101312  1  0  0.079912  0  1.001795  0  0  0.080999  0  1.081458  0  0  0.084127  0  1.07982  0  0  0.089704  0.078632  0  1.082913  0
H  H11  1  0.49873190  0.61101139  0.93561780  1  0  0.079865  0  1.001758  0  0  0.080952  0  1.081438  0  0  0.08407  0  1.079808  0  0  0.08968  0.078591  0  1.082886  0
H  H12  1  0.06171710  0.68311669  0.65136154  1  0  0.103262  0  0.966226  0  0  0.111636  0  1.031213  0  0  0.114502  0  1.030091  0  0  0.097764  0.109419  0  1.032402  0
H  H13  1  0.56171791  0.65135913  0.68311668  1  0  0.10327  0  0.96626  0  0  0.111625  0  1.031269  0  0  0.114493  0  1.030146  0  0  0.097758  0.109411  0  1.032456  0
H  H14  1  0.57248654  0.28507322  0.48119580  1  0  0.111616  0  0.962633  0  0  0.120071  0  1.032003  0  0  0.122324  0  1.029605  0  0  0.107888  0.118437  0  1.032933  0
H  H15  1  0.07248604  0.48119589  0.28507170  1  0  0.11164  0  0.962558  0  0  0.120082  0  1.03195  0  0  0.12231  0  1.029572  0  0  0.107881  0.118447  0  1.032887  0
H  H16  1  0.70346173  0.36831094  0.40146030  1  0  0.106613  0  0.956102  0  0  0.11491  0  1.028805  0  0  0.11755  0  1.025197  0  0  0.116385  0.112747  0  1.031199  0
H  H17  1  0.20346115  0.40145981  0.36830916  1  0  0.106625  0  0.956102  0  0  0.114921  0  1.028797  0  0  0.117561  0  1.025186  0  0  0.116395  0.112758  0  1.031192  0
H  H18  1  0.78203477  0.86977735  0.46095314  1  0  0.11685  0  0.948557  0  0  0.123473  0  1.013682  0  0  0.126845  0  1.011629  0  0  0.105332  0.121235  0  1.01516  0
H  H19  1  0.28203628  0.46095413  0.86977640  1  0  0.116857  0  0.948569  0  0  0.12348  0  1.013687  0  0  0.126851  0  1.011638  0  0  0.105336  0.121243  0  1.015166  0
H  H20  1  0.86344323  0.06206326  0.42413513  1  0  0.095226  0  0.945625  0  0  0.105167  0  1.006736  0  0  0.10795  0  1.005847  0  0  0.100135  0.102926  0  1.007965  0
H  H21  1  0.36344318  0.42413659  0.06206251  1  0  0.095248  0  0.945549  0  0  0.105179  0  1.00667  0  0  0.107947  0  1.005798  0  0  0.100149  0.102937  0  1.007907  0
H  H22  1  0.85879267  0.25085799  0.21850465  1  0  0.087869  0  0.992618  0  0  0.095835  0  1.06004  0  0  0.099055  0  1.05831  0  0  0.082695  0.093655  0  1.060934  0
H  H23  1  0.35879239  0.21850499  0.25085805  1  0  0.087841  0  0.992673  0  0  0.095822  0  1.060075  0  0  0.099032  0  1.058356  0  0  0.082692  0.093638  0  1.060969  0
H  H24  1  0.76867574  0.25585580  0.04368062  1  0  0.110455  0  0.966252  0  0  0.119409  0  1.027483  0  0  0.122184  0  1.027126  0  0  0.101505  0.117739  0  1.027501  0
H  H25  1  0.26867532  0.04368235  0.25585490  1  0  0.110437  0  0.966245  0  0  0.119395  0  1.027471  0  0  0.122168  0  1.027115  0  0  0.101498  0.117721  0  1.027487  0
H  H26  1  0.67730251  0.71627538  0.10825660  1  0  0.108052  0  0.95345  0  0  0.115369  0  1.026915  0  0  0.117893  0  1.023828  0  0  0.113761  0.113612  0  1.02897  0
H  H27  1  0.17730477  0.10825457  0.71627482  1  0  0.108044  0  0.953477  0  0  0.115347  0  1.026927  0  0  0.11789  0  1.023829  0  0  0.113759  0.113592  0  1.028974  0
H  H28  1  0.50484212  0.84284226  0.13679039  1  0  0.121527  0  0.915527  0  0  0.128119  0  0.987953  0  0  0.131191  0  0.984716  0  0  0.127685  0.126165  0  0.989814  0
H  H29  1  0.00484285  0.13679078  0.84284087  1  0  0.121555  0  0.915509  0  0  0.128129  0  0.987931  0  0  0.131203  0  0.984694  0  0  0.127687  0.126176  0  0.989797  0
H  H30  1  0.44893412  0.91096758  0.90751867  1  0  0.115922  0  0.953443  0  0  0.114719  0  1.032767  0  0  0.118104  0  1.028266  0  0  0.140208  0.112229  0  1.035776  0
H  H31  1  0.94893419  0.90751770  0.91096890  1  0  0.115936  0  0.953432  0  0  0.114734  0  1.032753  0  0  0.118121  0  1.028251  0  0  0.140217  0.112241  0  1.035774  0
C  C32  1  0.60125180  0.23635591  0.73987646  1  0  0.156116  0  3.654651  0  0  0.079149  0  3.924898  0  0  0.100436  0  3.940891  0  0  0.173215  0.07127  0  3.916804  0
C  C33  1  0.10125112  0.73987655  0.23635668  1  0  0.156114  0  3.654692  0  0  0.079147  0  3.924935  0  0  0.100444  0  3.940933  0  0  0.173222  0.071259  0  3.916855  0
C  C34  1  0.39673114  0.71316961  0.50461445  1  0  0.155353  0  3.834871  0  0  0.152223  0  4.0764  0  0  0.15585  0  4.100805  0  0  0.075309  0.149541  0  4.059917  0
C  C35  1  0.89673162  0.50461134  0.71316988  1  0  0.1554  0  3.834791  0  0  0.152283  0  4.076276  0  0  0.15591  0  4.100682  0  0  0.075364  0.149608  0  4.059789  0
C  C36  1  0.36112363  0.85567175  0.48653389  1  0  -0.165108  0  3.765841  0  0  -0.18178  0  4.01696  0  0  -0.185178  0  4.037766  0  0  -0.109491  -0.17978  0  4.001688  0
C  C37  1  0.86112332  0.48653118  0.85567180  1  0  -0.165149  0  3.765851  0  0  -0.181834  0  4.016961  0  0  -0.185233  0  4.037768  0  0  -0.109548  -0.179832  0  4.001691  0
C  C38  1  0.21686823  0.93337782  0.52576662  1  0  -0.082041  0  3.811118  0  0  -0.09662  0  4.060942  0  0  -0.099063  0  4.084379  0  0  -0.108763  -0.094569  0  4.044761  0
C  C39  1  0.71686885  0.52576501  0.93337641  1  0  -0.081919  0  3.811041  0  0  -0.09647  0  4.060873  0  0  -0.098911  0  4.084302  0  0  -0.108672  -0.094428  0  4.044703  0
C  C40  1  0.11058832  0.87172721  0.58225771  1  0  -0.088844  0  3.80861  0  0  -0.103196  0  4.062523  0  0  -0.106185  0  4.086243  0  0  -0.110219  -0.101038  0  4.046448  0
C  C41  1  0.61058968  0.58225464  0.87172689  1  0  -0.088814  0  3.808525  0  0  -0.103161  0  4.062436  0  0  -0.106138  0  4.086159  0  0  -0.1102  -0.101003  0  4.046362  0
C  C42  1  0.14496292  0.72973807  0.60438518  1  0  -0.146475  0  3.751633  0  0  -0.164071  0  3.999992  0  0  -0.167024  0  4.020973  0  0  -0.10383  -0.161911  0  3.986  0
C  C43  1  0.64496390  0.60438241  0.72973765  1  0  -0.146491  0  3.751632  0  0  -0.164089  0  3.999983  0  0  -0.167047  0  4.02097  0  0  -0.103836  -0.161926  0  3.985992  0
C  C44  1  0.28964372  0.65061159  0.56535383  1  0  0.149557  0  3.83483  0  0  0.144874  0  4.078365  0  0  0.148606  0  4.102897  0  0  0.072609  0.142081  0  4.061835  0
C  C45  1  0.78964516  0.56535145  0.65061087  1  0  0.149522  0  3.834873  0  0  0.14488  0  4.078338  0  0  0.148611  0  4.102867  0  0  0.072624  0.142078  0  4.06182  0
C  C46  1  0.49802893  0.49136886  0.51337070  1  0  0.370469  0  3.770875  0  0  0.343517  0  4.042464  0  0  0.361531  0  4.055235  0  0  0.204743  0.331815  0  4.031944  0
C  C47  1  0.99802932  0.51336927  0.49136845  1  0  0.370586  0  3.770664  0  0  0.34365  0  4.042223  0  0  0.361665  0  4.054986  0  0  0.204818  0.331954  0  4.031697  0
C  C48  1  0.61213601  0.35496907  0.49354861  1  0  -0.124274  0  3.639404  0  0  -0.191874  0  3.871786  0  0  -0.180871  0  3.880428  0  0  -0.043278  -0.192958  0  3.8676  0
C  C49  1  0.11213548  0.49354784  0.35496807  1  0  -0.124261  0  3.6393  0  0  -0.191854  0  3.871657  0  0  -0.180823  0  3.880319  0  0  -0.043253  -0.192942  0  3.86747  0
C  C50  1  0.73877647  0.94994080  0.26690154  1  0  0.131038  0  3.84144  0  0  0.126766  0  4.089325  0  0  0.129857  0  4.11286  0  0  0.07436  0.12458  0  4.073373  0
C  C51  1  0.23877680  0.26690219  0.94993972  1  0  0.131074  0  3.841504  0  0  0.126803  0  4.089383  0  0  0.129893  0  4.112921  0  0  0.074376  0.124609  0  4.073439  0
C  C52  1  0.78246490  0.95056121  0.36887043  1  0  -0.142063  0  3.75247  0  0  -0.160785  0  4.009172  0  0  -0.162704  0  4.027725  0  0  -0.094714  -0.15964  0  3.996675  0
C  C53  1  0.28246419  0.36887132  0.95055977  1  0  -0.142092  0  3.752458  0  0  -0.160816  0  4.009165  0  0  -0.162726  0  4.027703  0  0  -0.094713  -0.159666  0  3.996669  0
C  C54  1  0.82639299  0.05977505  0.34780987  1  0  -0.066603  0  3.756552  0  0  -0.08533  0  4.01461  0  0  -0.087801  0  4.036919  0  0  -0.097684  -0.083424  0  3.999528  0
C  C55  1  0.32639105  0.34781333  0.05977393  1  0  -0.066579  0  3.756364  0  0  -0.085296  0  4.014428  0  0  -0.087754  0  4.036743  0  0  -0.097671  -0.083403  0  3.999365  0
C  C56  1  0.82343677  0.16711851  0.23113825  1  0  -0.06664  0  3.775313  0  0  -0.083702  0  4.030661  0  0  -0.085817  0  4.053616  0  0  -0.101841  -0.081858  0  4.01489  0
C  C57  1  0.32343638  0.23114126  0.16711703  1  0  -0.066702  0  3.775275  0  0  -0.083782  0  4.030635  0  0  -0.085892  0  4.053589  0  0  -0.101903  -0.081929  0  4.014857  0
C  C58  1  0.77455116  0.17066012  0.13171622  1  0  -0.1577  0  3.747741  0  0  -0.172801  0  3.99384  0  0  -0.17642  0  4.014827  0  0  -0.100203  -0.170632  0  3.979644  0
C  C59  1  0.27454967  0.13171905  0.17065936  1  0  -0.157618  0  3.74771  0  0  -0.172721  0  3.9938  0  0  -0.176335  0  4.014789  0  0  -0.100156  -0.17055  0  3.979597  0
C  C60  1  0.73273873  0.05992328  0.15178394  1  0  0.156161  0  3.800997  0  0  0.149405  0  4.04293  0  0  0.153147  0  4.065922  0  0  0.089468  0.147312  0  4.027046  0
C  C61  1  0.23273763  0.15178581  0.05992426  1  0  0.156169  0  3.800979  0  0  0.149432  0  4.042913  0  0  0.15317  0  4.065907  0  0  0.089475  0.147339  0  4.027033  0
C  C62  1  0.66745321  0.90256723  0.13632450  1  0  0.396216  0  3.684699  0  0  0.362987  0  3.960149  0  0  0.382006  0  3.970221  0  0  0.235288  0.350582  0  3.952427  0
C  C63  1  0.16745438  0.13632500  0.90256725  1  0  0.39622  0  3.684631  0  0  0.362982  0  3.960105  0  0  0.381998  0  3.97018  0  0  0.235286  0.350588  0  3.952375  0
C  C64  1  0.61918427  0.82753413  0.08482716  1  0  -0.113741  0  3.641817  0  0  -0.183237  0  3.882936  0  0  -0.1742  0  3.892659  0  0  -0.02938  -0.185528  0  3.879005  0
C  C65  1  0.11918567  0.08482675  0.82753345  1  0  -0.113802  0  3.641897  0  0  -0.183244  0  3.882996  0  0  -0.174227  0  3.892703  0  0  -0.029384  -0.185544  0  3.87907  0
C  C66  1  0.55956465  0.90526653  0.86394712  1  0  0.132797  0  3.659567  0  0  0.065099  0  3.935919  0  0  0.083688  0  3.951547  0  0  0.16532  0.057098  0  3.927839  0
C  C67  1  0.05956470  0.86394621  0.90526785  1  0  0.132752  0  3.659618  0  0  0.065054  0  3.935973  0  0  0.083642  0  3.951598  0  0  0.165307  0.057054  0  3.927898  0
Br  Br68  1  0.89858541  0.49179828  0.17016606  1  0  -0.544065  0  0.94934  0  0  -0.48138  0  1.23729  0  0  -0.500289  0  1.216001  0  0  -0.264167  -0.468454  0  1.250552  0
Br  Br69  1  0.39859348  0.17016484  0.49179617  1  0  -0.544065  0  0.949323  0  0  -0.481387  0  1.237276  0  0  -0.500299  0  1.216003  0  0  -0.264183  -0.468471  0  1.250536  0
N  N70  1  0.52753465  0.60939376  0.47262028  1  0  -0.504695  0  3.203163  0  0  -0.42366  0  3.47947  0  0  -0.447859  0  3.493909  0  0  -0.378265  -0.40673  0  3.46901  0
N  N71  1  0.02753540  0.47261707  0.60939284  1  0  -0.504764  0  3.203094  0  0  -0.423756  0  3.479422  0  0  -0.447946  0  3.493842  0  0  -0.37833  -0.406821  0  3.46895  0
N  N72  1  0.35730124  0.50965943  0.57136717  1  0  -0.513663  0  3.215864  0  0  -0.433387  0  3.49924  0  0  -0.458031  0  3.513798  0  0  -0.380231  -0.417124  0  3.488738  0
N  N73  1  0.85730134  0.57136615  0.50965919  1  0  -0.513688  0  3.215882  0  0  -0.433431  0  3.499242  0  0  -0.458078  0  3.513804  0  0  -0.380254  -0.417167  0  3.488742  0
N  N74  1  0.66774551  0.28664793  0.60887050  1  0  0.040255  0  3.516082  0  0  0.155861  0  3.709578  0  0  0.115703  0  3.767651  0  0  -0.115648  0.163833  0  3.69371  0
N  N75  1  0.16774506  0.60886987  0.28664732  1  0  0.04015  0  3.516144  0  0  0.15578  0  3.709604  0  0  0.115587  0  3.767708  0  0  -0.115699  0.163765  0  3.693714  0
N  N76  1  0.69115839  0.18589846  0.80894245  1  0  -0.262239  0  3.042178  0  0  -0.224186  0  3.332523  0  0  -0.236255  0  3.34233  0  0  -0.206562  -0.215965  0  3.324008  0
N  N77  1  0.19115841  0.80894255  0.18589908  1  0  -0.26217  0  3.042166  0  0  -0.224156  0  3.33252  0  0  -0.236224  0  3.342323  0  0  -0.206567  -0.215937  0  3.32401  0
N  N78  1  0.81554066  0.20530672  0.71655684  1  0  -0.056617  0  2.910328  0  0  -0.053689  0  3.216408  0  0  -0.051905  0  3.222643  0  0  -0.072414  -0.054717  0  3.210315  0
N  N79  1  0.31554041  0.71655654  0.20530716  1  0  -0.056595  0  2.910324  0  0  -0.053661  0  3.216414  0  0  -0.051876  0  3.222648  0  0  -0.072387  -0.05469  0  3.210318  0
N  N80  1  0.69884727  0.85238812  0.25277845  1  0  -0.487543  0  3.165507  0  0  -0.413116  0  3.442563  0  0  -0.435526  0  3.455451  0  0  -0.364115  -0.398414  0  3.433675  0
N  N81  1  0.19884802  0.25277892  0.85238755  1  0  -0.487591  0  3.165557  0  0  -0.413175  0  3.442631  0  0  -0.435587  0  3.455524  0  0  -0.364141  -0.398472  0  3.433738  0
N  N82  1  0.68478002  0.02716014  0.07332114  1  0  -0.387  0  3.384424  0  0  -0.32526  0  3.622453  0  0  -0.343799  0  3.633619  0  0  -0.373086  -0.312629  0  3.614275  0
N  N83  1  0.18478032  0.07332179  0.02716022  1  0  -0.386908  0  3.384446  0  0  -0.325234  0  3.622475  0  0  -0.343766  0  3.63364  0  0  -0.373065  -0.312609  0  3.614306  0
N  N84  1  0.64577544  0.86929578  0.93718296  1  0  0.030311  0  3.555141  0  0  0.142972  0  3.746709  0  0  0.106242  0  3.803712  0  0  -0.124633  0.153831  0  3.726701  0
N  N85  1  0.14577578  0.93718310  0.86929567  1  0  0.030319  0  3.555151  0  0  0.142974  0  3.746699  0  0  0.106246  0  3.803704  0  0  -0.124686  0.153834  0  3.726693  0
N  N86  1  0.77796215  0.86564261  0.84732332  1  0  -0.114082  0  2.861697  0  0  -0.124296  0  3.145252  0  0  -0.116583  0  3.161403  0  0  -0.074612  -0.125459  0  3.138039  0
N  N87  1  0.27796197  0.84732290  0.86564422  1  0  -0.114079  0  2.861618  0  0  -0.124299  0  3.145178  0  0  -0.116588  0  3.161331  0  0  -0.074604  -0.125461  0  3.137959  0
N  N88  1  0.76897023  0.90074140  0.72459050  1  0  -0.052534  0  2.942014  0  0  -0.044806  0  3.25542  0  0  -0.042732  0  3.262484  0  0  -0.069893  -0.045373  0  3.24941  0
N  N89  1  0.26896972  0.72458945  0.90074351  1  0  -0.052493  0  2.941942  0  0  -0.044755  0  3.255325  0  0  -0.042681  0  3.262387  0  0  -0.069839  -0.045319  0  3.249317  0
N  N90  1  0.63457915  0.92608868  0.73096127  1  0  -0.248224  0  2.921959  0  0  -0.233336  0  3.224972  0  0  -0.242264  0  3.233837  0  0  -0.216432  -0.227289  0  3.218181  0
N  N91  1  0.13457907  0.73096112  0.92609027  1  0  -0.24822  0  2.922008  0  0  -0.233336  0  3.225023  0  0  -0.242268  0  3.23389  0  0  -0.216448  -0.227298  0  3.218245  0
N  N92  1  0.80281940  0.26626875  0.59578745  1  0  -0.090042  0  2.825428  0  0  -0.106652  0  3.106422  0  0  -0.095853  0  3.121153  0  0  -0.06637  -0.107772  0  3.100268  0
N  N93  1  0.30281955  0.59578674  0.26626839  1  0  -0.090043  0  2.825434  0  0  -0.106664  0  3.106411  0  0  -0.095855  0  3.12115  0  0  -0.066379  -0.107784  0  3.100253  0
