# generated using pymatgen
data_ZnH14C20NO5
_symmetry_space_group_name_H-M   'P 1'
_cell_length_a   9.57887784
_cell_length_b   10.99916087
_cell_length_c   16.07354352
_cell_angle_alpha   89.69609190
_cell_angle_beta   90.23965174
_cell_angle_gamma   89.01941967
_symmetry_Int_Tables_number   1
_chemical_formula_structural   ZnH14C20NO5
_chemical_formula_sum   'Zn2 H28 C40 N2 O10'
_cell_volume   1693.21511527
_cell_formula_units_Z   2
loop_
 _symmetry_equiv_pos_site_id
 _symmetry_equiv_pos_as_xyz
  1  'x, y, z'
loop_
 _atom_site_type_symbol
 _atom_site_label
 _atom_site_symmetry_multiplicity
 _atom_site_fract_x
 _atom_site_fract_y
 _atom_site_fract_z
 _atom_site_occupancy
 _atom_site_pbe_bader_charge
 _atom_site_pbe_bader_spin_density
 _atom_site_pbe_cm5_charge
 _atom_site_pbe_ddec_charge
 _atom_site_pbe_ddec_spin_density
 _atom_site_pbe_ddec_sum_bond_order
 _atom_site_pbe_magmom
Zn  Zn0  1  0.35618784  0.49882330  0.50133372  1  1.279926  0  0.664301  0.801337  0  2.464866  0
Zn  Zn1  1  0.64046449  0.49395513  0.50059251  1  1.261702  0  0.665929  0.800246  0  2.472838  0
H  H2  1  0.34878928  0.66749782  0.07470067  1  0.050416  0  0.098282  0.104881  0  0.997168  0
H  H3  1  0.60689829  0.34292738  0.06721116  1  0.018018  0  0.098888  0.103681  0  0.976085  0
H  H4  1  0.72330724  0.87941234  0.53363863  1  0.09493  0  0.102621  0.105509  0  1.004067  0
H  H5  1  0.28186175  0.88461084  0.48709930  1  0.093927  0  0.103342  0.10813  0  1.001397  0
H  H6  1  0.72438443  0.10804873  0.52612111  1  0.087059  0  0.104163  0.108654  0  0.999241  0
H  H7  1  0.28209626  0.11333280  0.48201595  1  0.114616  0  0.102616  0.106192  0  1.002346  0
H  H8  1  0.86705179  0.40435083  0.38857198  1  0.14337  0  0.143085  0.124676  0  0.955177  0
H  H9  1  0.13528534  0.40948976  0.38836427  1  0.163561  0  0.141909  0.12579  0  0.963302  0
H  H10  1  0.45266050  0.81129730  0.02247895  1  0.06958  0  0.098387  0.095411  0  1.023608  0
H  H11  1  0.44556575  0.01464159  0.95802767  1  0.103813  0  0.098971  0.09879  0  1.005525  0
H  H12  1  0.35796051  0.04406621  0.81425698  1  0.095824  0  0.10225  0.102639  0  1.003509  0
H  H13  1  0.60962971  0.68339560  0.05878082  1  0.066495  0  0.096775  0.102807  0  0.995052  0
H  H14  1  0.26804429  0.86563181  0.73521766  1  0.067669  0  0.099649  0.094615  0  0.996283  0
H  H15  1  0.27230283  0.66103048  0.80020660  1  0.031239  0  0.096779  0.095904  0  1.015931  0
H  H16  1  0.57665096  0.72265928  0.82293156  1  0.079508  0  0.093006  0.095904  0  1.066927  0
H  H17  1  0.72733564  0.87612851  0.76166275  1  0.047072  0  0.099429  0.097556  0  0.995906  0
H  H18  1  0.97181453  0.90160173  0.81382692  1  0.066024  0  0.096662  0.092815  0  1.008714  0
H  H19  1  0.06066166  0.76864925  0.92866950  1  0.075567  0  0.094351  0.094585  0  1.022651  0
H  H20  1  0.90909203  0.61235092  0.99010381  1  0.030297  0  0.095164  0.095289  0  1.004561  0
H  H21  1  0.30976720  0.34523850  0.86392987  1  0.104332  0  0.110449  0.047996  0  0.963265  0
H  H22  1  0.69421173  0.30535469  0.92693930  1  0.068227  0  0.108663  0.043721  0  0.963642  0
H  H23  1  0.12917803  0.58937470  0.61445275  1  0.142781  0  0.141385  0.12489  0  0.962875  0
H  H24  1  0.86095586  0.58710110  0.61376977  1  0.17529  0  0.14312  0.125806  0  0.959978  0
H  H25  1  0.71626044  0.47675672  0.95282934  1  0.029151  0  0.097018  0.062135  0  1.011772  0
H  H26  1  0.28357406  0.54488534  0.92183840  1  0.042977  0  0.101386  0.073694  0  0.992893  0
H  H27  1  0.71877776  0.55812749  0.08485993  1  0.034934  0  0.096886  0.102175  0  0.980043  0
H  H28  1  0.27312985  0.52357090  0.06233999  1  0.035003  0  0.098487  0.109846  0  0.975055  0
H  H29  1  0.42356449  0.32924485  0.07991867  1  0.090269  0  0.104686  0.119992  0  0.987043  0
C  C30  1  0.50232892  0.73321085  0.51046898  1  1.574362  0  0.215521  0.593315  0  4.164644  0
C  C31  1  0.37812305  0.06110670  0.49307169  1  -0.078666  0  -0.085008  -0.096511  0  3.983175  0
C  C32  1  0.50349816  0.12341746  0.50295150  1  0.011267  0  -0.012666  -0.020427  0  3.956447  0
C  C33  1  0.50252199  0.86923290  0.51044461  1  -0.066002  0  -0.014758  -0.028191  0  3.965615  0
C  C34  1  0.92716859  0.44539866  0.43848494  1  0.594671  0  0.0833  0.065745  0  3.859655  0
C  C35  1  0.07235518  0.44769637  0.43848031  1  0.447387  0  0.081435  0.064213  0  3.857669  0
C  C36  1  0.49748928  0.48737700  0.66432061  1  1.700084  0  0.220866  0.674412  0  4.234537  0
C  C37  1  0.06895491  0.54925918  0.56423217  1  0.533056  0  0.08145  0.063217  0  3.859697  0
C  C38  1  0.92371992  0.54765399  0.56398375  1  0.488677  0  0.083838  0.067233  0  3.853565  0
C  C39  1  0.50412335  0.25922897  0.49771146  1  1.5318  0  0.216512  0.595172  0  4.162334  0
C  C40  1  0.49227257  0.50848374  0.33764083  1  1.648229  0  0.219949  0.680772  0  4.230043  0
C  C41  1  0.50481990  0.38369634  0.05033819  1  -0.03785  0  -0.148482  -0.238216  0  3.820837  0
C  C42  1  0.37342248  0.59124866  0.94963923  1  -0.001642  0  -0.070578  -0.05095  0  3.777378  0
C  C43  1  0.64711989  0.55754324  0.95562973  1  0.003861  0  -0.072328  -0.0502  0  3.794418  0
C  C44  1  0.62541146  0.58540707  0.04910887  1  -0.047841  0  -0.153103  -0.231703  0  3.843709  0
C  C45  1  0.36365221  0.57836191  0.04549523  1  -0.035414  0  -0.154398  -0.233715  0  3.825921  0
C  C46  1  0.49321770  0.51351786  0.24777072  1  0.147933  0  -0.061671  -0.218632  0  3.989989  0
C  C47  1  0.50465816  0.51469040  0.91863783  1  0.103646  0  0.020926  0.09628  0  3.769691  0
C  C48  1  0.49707970  0.51659636  0.08187911  1  0.167832  0  0.002505  0.191261  0  3.88704  0
C  C49  1  0.36498356  0.71989534  0.91559997  1  -0.09749  0  -0.016813  0.072779  0  3.949548  0
C  C50  1  0.41130056  0.82139918  0.95949353  1  -0.083553  0  -0.0951  -0.140768  0  3.994191  0
C  C51  1  0.40778909  0.93697815  0.92330318  1  0.030555  0  -0.090476  -0.069601  0  4.01721  0
C  C52  1  0.48063993  0.38129827  0.95545140  1  -0.026875  0  -0.014503  -0.04905  0  3.757301  0
C  C53  1  0.35776153  0.95366924  0.84231613  1  -0.133164  0  -0.089552  -0.083216  0  4.005812  0
C  C54  1  0.30842558  0.85386024  0.79836351  1  0.010969  0  -0.092121  -0.07967  0  4.028898  0
C  C55  1  0.31102872  0.73849571  0.83500249  1  -0.063307  0  -0.094763  -0.143411  0  4.001783  0
C  C56  1  0.73021107  0.65597396  0.91207119  1  -0.050403  0  -0.01571  0.081999  0  3.930273  0
C  C57  1  0.68207684  0.73104435  0.84710628  1  -0.030599  0  -0.098516  -0.13354  0  3.981644  0
C  C58  1  0.76852782  0.81842847  0.81177597  1  -0.048352  0  -0.096888  -0.082978  0  4.032528  0
C  C59  1  0.90453276  0.83297932  0.84088146  1  -0.045117  0  -0.101464  -0.099658  0  4.049046  0
C  C60  1  0.95433346  0.75843110  0.90556155  1  -0.057241  0  -0.102196  -0.086829  0  4.053691  0
C  C61  1  0.86823361  0.67083877  0.94016047  1  -0.059231  0  -0.103427  -0.150912  0  4.003353  0
C  C62  1  0.33329531  0.33977846  0.93174041  1  0.952073  0  0.110256  0.286675  0  3.911617  0
C  C63  1  0.49402659  0.51607320  0.17216788  1  -0.452671  0  -0.026284  -0.031541  0  4.01402  0
C  C64  1  0.58085170  0.28915547  0.91600333  1  0.947547  0  0.115971  0.28537  0  3.89771  0
C  C65  1  0.50606352  0.50473081  0.82886423  1  -0.513572  0  -0.028689  -0.057057  0  4.090899  0
C  C66  1  0.50153745  0.49110546  0.75398591  1  0.190483  0  -0.044042  -0.185068  0  3.953773  0
C  C67  1  0.62750296  0.93170029  0.52204316  1  -0.072267  0  -0.083589  -0.092677  0  3.982  0
C  C68  1  0.37776700  0.93477268  0.49631242  1  -0.019346  0  -0.085467  -0.096297  0  3.984742  0
C  C69  1  0.62814490  0.05802676  0.51784169  1  0.004817  0  -0.083691  -0.096104  0  3.978912  0
N  N70  1  0.14141776  0.49935563  0.50147256  1  -1.222478  0  -0.292439  -0.141245  0  3.505765  0
N  N71  1  0.85480786  0.49540460  0.50116369  1  -1.204315  0  -0.293259  -0.140511  0  3.506244  0
O  O72  1  0.38467318  0.68213684  0.50139935  1  -1.1606  0  -0.319813  -0.548672  0  2.329599  0
O  O73  1  0.54336133  0.20029978  0.87737614  1  -1.072093  0  -0.235082  -0.32804  0  2.166333  0
O  O74  1  0.61963277  0.67775027  0.51836843  1  -1.155019  0  -0.319196  -0.549668  0  2.32684  0
O  O75  1  0.37771327  0.50092501  0.63034838  1  -1.145021  0  -0.314878  -0.549295  0  2.2548  0
O  O76  1  0.61405238  0.47251969  0.62780675  1  -1.14487  0  -0.311011  -0.53941  0  2.262263  0
O  O77  1  0.38634668  0.31466481  0.50262931  1  -1.172682  0  -0.320976  -0.552525  0  2.328727  0
O  O78  1  0.62189123  0.30988927  0.48892323  1  -1.161132  0  -0.320519  -0.548011  0  2.319289  0
O  O79  1  0.37384185  0.49776933  0.37246471  1  -1.155781  0  -0.314656  -0.548798  0  2.261177  0
O  O80  1  0.61038829  0.51520550  0.37413612  1  -1.150707  0  -0.316868  -0.549993  0  2.260667  0
O  O81  1  0.24841462  0.30190056  0.98130095  1  -1.087528  0  -0.256186  -0.341017  0  2.1241  0
