# generated using pymatgen
data_Ni2H54C66N12O11
_symmetry_space_group_name_H-M   'P 1'
_cell_length_a   10.07716057
_cell_length_b   15.70330566
_cell_length_c   24.59105681
_cell_angle_alpha   72.78135796
_cell_angle_beta   78.15189703
_cell_angle_gamma   71.29146982
_symmetry_Int_Tables_number   1
_chemical_formula_structural   Ni2H54C66N12O11
_chemical_formula_sum   'Ni4 H108 C132 N24 O22'
_cell_volume   3494.30820568
_cell_formula_units_Z   2
loop_
 _symmetry_equiv_pos_site_id
 _symmetry_equiv_pos_as_xyz
  1  'x, y, z'
loop_
 _atom_site_type_symbol
 _atom_site_label
 _atom_site_symmetry_multiplicity
 _atom_site_fract_x
 _atom_site_fract_y
 _atom_site_fract_z
 _atom_site_occupancy
 _atom_site_pbe_bader_charge
 _atom_site_pbe_bader_spin_density
 _atom_site_pbe_cm5_charge
 _atom_site_pbe_ddec_charge
 _atom_site_pbe_ddec_spin_density
 _atom_site_pbe_ddec_sum_bond_order
 _atom_site_pbe_magmom
Ni  Ni0  1  0.97633510  0.14763541  0.72826552  1  1.206697  1.575422  0.6498  0.850805  1.773523  2.495263  1.563
Ni  Ni1  1  0.14746706  0.64756858  0.22841592  1  1.203697  1.575636  0.649725  0.850099  1.774671  2.49704  1.563
Ni  Ni2  1  0.85253127  0.35242752  0.77158617  1  1.203657  1.575634  0.649743  0.850086  1.774676  2.497105  1.563
Ni  Ni3  1  0.02366319  0.85237040  0.27173066  1  1.206581  1.575429  0.649798  0.850868  1.773524  2.495177  1.563
H  H4  1  0.55468737  0.30680201  0.63958148  1  0.155939  0.000224  0.100158  0.114537  0.000105  1.040588  0.0
H  H5  1  0.99405180  0.32450822  0.42832214  1  0.077014  2e-06  0.104732  0.111043  -1e-06  0.988411  0.0
H  H6  1  0.73989825  0.47978960  0.54936872  1  0.068759  1.4e-05  0.097944  0.09916  -1e-06  1.032043  0.0
H  H7  1  0.74588923  0.26938761  0.90488933  1  0.190908  0.000372  0.144915  0.12382  -9e-06  1.012829  0.0
H  H8  1  0.49861622  0.45876516  0.77860078  1  0.131821  0.000352  0.138874  0.10648  1.9e-05  0.987733  0.0
H  H9  1  0.98431670  0.34597320  0.06208526  1  0.081343  -3e-06  0.101583  0.102189  -6e-06  1.019277  0.0
H  H10  1  0.54300407  0.27452148  0.99223435  1  0.127549  6.2e-05  0.116822  0.103276  2.4e-05  1.035726  0.0
H  H11  1  0.94594733  0.44233076  0.59999691  1  0.082026  -4.1e-05  0.106357  0.114623  -8.3e-05  0.991491  0.0
H  H12  1  0.93409909  0.63632496  0.04179884  1  0.064104  5e-06  0.101852  0.103893  -1e-05  1.015018  0.0
H  H13  1  0.89169238  0.62718567  0.17186071  1  0.176313  0.000481  0.145972  0.120472  1e-05  0.989839  0.0
H  H14  1  0.50162876  0.19333498  0.86025306  1  0.125675  0.000228  0.099938  0.114729  0.000105  1.040575  0.0
H  H15  1  0.68171995  0.16250590  0.52353993  1  0.100333  0.000178  0.117624  0.106931  7.8e-05  0.984498  0.0
H  H16  1  0.52697147  0.22426962  0.34732182  1  0.056996  9.6e-05  0.091917  0.083343  6.9e-05  1.05387  0.0
H  H17  1  0.45635931  0.97055232  0.37143715  1  0.142692  0.000191  0.114459  0.100505  0.00013  1.039949  0.0
H  H18  1  0.69100534  0.87267215  0.32815164  1  0.159603  0.000479  0.14651  0.121384  1e-05  0.989473  0.0
H  H19  1  0.10982067  0.59069469  0.85767116  1  0.057368  9.1e-05  0.122144  0.112977  3.1e-05  0.952668  0.0
H  H20  1  0.01567785  0.65402706  0.93791473  1  0.081365  -3e-06  0.101591  0.102175  -6e-06  1.019254  0.0
H  H21  1  0.96209032  0.21840984  0.01852632  1  0.04015  1.2e-05  0.095798  0.09532  1e-06  1.025326  0.0
H  H22  1  0.76915237  0.02019228  0.95036903  1  0.06494  1.5e-05  0.098149  0.099483  -1e-06  1.031955  0.0
H  H23  1  0.32485235  0.30901978  0.70132775  1  0.095015  0.000242  0.102225  0.1069  0.000102  1.001816  0.0
H  H24  1  0.47303684  0.77572926  0.65267810  1  0.056771  9.6e-05  0.091892  0.083312  6.9e-05  1.053848  0.0
H  H25  1  0.57429967  0.82383584  0.03440511  1  0.079239  -9e-06  0.096517  0.09405  -1.4e-05  1.043352  0.0
H  H26  1  0.79842701  0.52911712  0.12864647  1  0.140374  0.000193  0.113888  0.100114  0.00013  1.040167  0.0
H  H27  1  0.49837245  0.80666390  0.13974704  1  0.125703  0.000228  0.099913  0.1147  0.000105  1.04044  0.0
H  H28  1  0.28824182  0.43847885  0.20242693  1  0.133968  0.000387  0.140028  0.106225  5e-05  0.973226  0.0
H  H29  1  0.43087458  0.98439345  0.11048554  1  0.090939  5.9e-05  0.100998  0.112475  6e-06  1.069141  0.0
H  H30  1  0.08055378  0.76916502  0.40500562  1  0.165858  0.000365  0.144564  0.123396  -1e-05  1.013041  0.0
H  H31  1  0.64473015  0.01146276  0.08895442  1  0.073495  4e-06  0.105939  0.084807  -1.3e-05  0.988094  0.0
H  H32  1  0.69679911  0.21922413  0.40836946  1  0.075454  1.6e-05  0.103369  0.117311  -1e-06  1.008783  0.0
H  H33  1  0.91944698  0.23083733  0.59499386  1  0.16581  0.000365  0.144555  0.123378  -1e-05  1.013116  0.0
H  H34  1  0.63154411  0.66295595  0.02343603  1  0.069644  0.000184  0.117716  0.106547  7.8e-05  0.983241  0.0
H  H35  1  0.38780099  0.13641398  0.54171961  1  0.07467  5e-06  0.101816  0.104045  -1e-05  1.0156  0.0
H  H36  1  0.67514725  0.69098048  0.29867426  1  0.095081  0.000242  0.102194  0.106861  0.000102  1.001847  0.0
H  H37  1  0.50138701  0.54123372  0.22139996  1  0.131807  0.000352  0.138881  0.106543  1.9e-05  0.987722  0.0
H  H38  1  0.20156913  0.47088175  0.87135528  1  0.140402  0.000193  0.113855  0.10009  0.00013  1.040172  0.0
H  H39  1  0.44177997  0.09039891  0.35770019  1  0.067859  8.8e-05  0.121548  0.112629  3.1e-05  0.952569  0.0
H  H40  1  0.92938106  0.06142157  0.29778324  1  0.151996  0.000388  0.13925  0.105811  5e-05  0.973786  0.0
H  H41  1  0.55822396  0.90960552  0.64229905  1  0.067949  8.8e-05  0.121544  0.112585  3.1e-05  0.952638  0.0
H  H42  1  0.80909153  0.22535241  0.50772444  1  0.108933  6.4e-05  0.116676  0.103347  2.5e-05  1.035025  0.0
H  H43  1  0.35040188  0.37603312  0.30869202  1  0.07451  0.000267  0.097844  0.105732  0.000179  1.021461  0.0
H  H44  1  0.25289271  0.82459349  0.92860292  1  0.080715  2e-06  0.104227  0.110706  -1e-06  0.987198  0.0
H  H45  1  0.10830970  0.37281598  0.82813717  1  0.176298  0.000482  0.145988  0.120492  1e-05  0.989805  0.0
H  H46  1  0.63142289  0.46699251  0.47610099  1  0.046052  3e-06  0.098218  0.064713  -2e-06  1.007574  0.0
H  H47  1  0.24806910  0.96534128  0.51826986  1  0.074308  4e-06  0.096158  0.095788  5e-06  1.046713  0.0
H  H48  1  0.56912174  0.01560265  0.88951265  1  0.090924  5.9e-05  0.100995  0.112476  6e-06  1.069248  0.0
H  H49  1  0.60777279  0.84610236  0.56211089  1  0.080525  -2e-06  0.101447  0.101457  -5e-06  1.019605  0.0
H  H50  1  0.01155195  0.94241330  0.10027976  1  0.119  -4.2e-05  0.106818  0.114371  -8.4e-05  0.993453  0.0
H  H51  1  0.19425648  0.14914730  0.00789753  1  0.091234  0.000167  0.096806  0.095257  7.1e-05  1.035707  0.0
H  H52  1  0.52601968  0.51568043  0.38937647  1  0.104737  5.8e-05  0.101484  0.11281  5e-06  1.068795  0.0
H  H53  1  0.64835452  0.64941136  0.50815098  1  0.031632  0.000173  0.096744  0.095718  7.1e-05  1.03499  0.0
H  H54  1  0.47397282  0.48431984  0.61062572  1  0.104714  5.8e-05  0.10149  0.112819  5e-06  1.068743  0.0
H  H55  1  0.71319646  0.39839399  0.95663655  1  0.060359  -3.9e-05  0.09925  0.098065  -6.1e-05  1.018468  0.0
H  H56  1  0.39222375  0.15390276  0.43788924  1  0.080354  -2e-06  0.101409  0.101399  -5e-06  1.019746  0.0
H  H57  1  0.80574213  0.85085296  0.99210171  1  0.091228  0.000167  0.096792  0.09522  7.1e-05  1.035745  0.0
H  H58  1  0.89018025  0.40930488  0.14232884  1  0.05736  9.1e-05  0.122146  0.112964  3.1e-05  0.952656  0.0
H  H59  1  0.54364129  0.02945280  0.62856223  1  0.142477  0.000191  0.114408  0.100458  0.00013  1.040008  0.0
H  H60  1  0.23085017  0.97980589  0.04962784  1  0.064904  1.5e-05  0.09819  0.099551  -1e-06  1.032009  0.0
H  H61  1  0.90128247  0.72423270  0.84732032  1  0.086085  0.000117  0.091777  0.082517  8e-05  1.054771  0.0
H  H62  1  0.44531500  0.69319408  0.36042068  1  0.155955  0.000224  0.100195  0.114591  0.000105  1.040485  0.0
H  H63  1  0.75024529  0.20785035  0.78172302  1  0.650271  0.000134  0.291282  0.381059  0.000381  0.960517  0.0
H  H64  1  0.42556559  0.96703393  0.97618627  1  0.039631  3e-06  0.098011  0.065314  -2e-06  1.00765  0.0
H  H65  1  0.28680348  0.60160072  0.04336404  1  0.060416  -3.9e-05  0.099244  0.098093  -6.1e-05  1.018482  0.0
H  H66  1  0.73949690  0.29213601  0.71840220  1  0.648361  0.000142  0.291375  0.382611  0.000368  0.959188  0.0
H  H67  1  0.66389522  0.80885275  0.20159367  1  0.088918  0.000241  0.102006  0.107153  0.000102  1.002225  0.0
H  H68  1  0.98845144  0.05758765  0.89971774  1  0.118999  -4.2e-05  0.106765  0.114301  -8.4e-05  0.993487  0.0
H  H69  1  0.26010263  0.52021483  0.45063240  1  0.068629  1.4e-05  0.09794  0.099144  -1e-06  1.032118  0.0
H  H70  1  0.73132141  0.53521587  0.98143420  1  0.08091  5e-06  0.095669  0.094954  5e-06  1.046939  0.0
H  H71  1  0.19917511  0.28148619  0.48116048  1  0.036462  1.2e-05  0.095514  0.095012  1e-06  1.025387  0.0
H  H72  1  0.75193574  0.03465620  0.48172979  1  0.074378  4e-06  0.096157  0.095772  5e-06  1.046866  0.0
H  H73  1  0.71175388  0.56151864  0.79757552  1  0.133952  0.000387  0.139965  0.106145  5e-05  0.973263  0.0
H  H74  1  0.96504544  0.87591746  0.80874925  1  0.073722  0.000274  0.097684  0.10559  0.000182  1.022053  0.0
H  H75  1  0.06792153  0.10204387  0.54310347  1  0.095349  -3.9e-05  0.099237  0.098066  -6.1e-05  1.01858  0.0
H  H76  1  0.07062232  0.93857938  0.70221629  1  0.152112  0.000388  0.139209  0.105772  5e-05  0.97366  0.0
H  H77  1  0.03495807  0.12408558  0.19124947  1  0.073786  0.000274  0.097688  0.105616  0.000182  1.022083  0.0
H  H78  1  0.30899149  0.12733228  0.67184900  1  0.159632  0.000479  0.14649  0.121342  1e-05  0.989508  0.0
H  H79  1  0.73599203  0.04106825  0.72142072  1  0.137328  0.000356  0.139086  0.107114  2e-05  0.987212  0.0
H  H80  1  0.19091071  0.77464646  0.49227395  1  0.108952  6.4e-05  0.116668  0.103375  2.5e-05  1.035001  0.0
H  H81  1  0.35164697  0.35058682  0.49185086  1  0.031661  0.000173  0.096691  0.095613  7.1e-05  1.034955  0.0
H  H82  1  0.67528072  0.71921405  0.90830398  1  0.06363  1.7e-05  0.103231  0.118436  -0.0  1.008442  0.0
H  H83  1  0.35527444  0.98853055  0.91104401  1  0.073558  4e-06  0.105974  0.084838  -1.3e-05  0.988123  0.0
H  H84  1  0.42570242  0.17616095  0.96559572  1  0.079257  -9e-06  0.096541  0.094106  -1.4e-05  1.043254  0.0
H  H85  1  0.56750609  0.32367878  0.53424589  1  0.079614  -9e-06  0.096349  0.093443  -1.4e-05  1.044628  0.0
H  H86  1  0.93208564  0.89795292  0.45689653  1  0.095223  -3.9e-05  0.099241  0.098061  -6.1e-05  1.018599  0.0
H  H87  1  0.64960746  0.62396575  0.69130456  1  0.074201  0.000267  0.097897  0.105812  0.000179  1.021433  0.0
H  H88  1  0.74528389  0.48857586  0.41089214  1  0.071806  4e-06  0.105448  0.08378  -1.3e-05  0.988157  0.0
H  H89  1  0.36857712  0.53300915  0.52390234  1  0.046047  3e-06  0.098231  0.064699  -2e-06  1.007587  0.0
H  H90  1  0.36845743  0.33703737  0.97656428  1  0.069735  0.000184  0.117739  0.10661  7.8e-05  0.983191  0.0
H  H91  1  0.05405444  0.55767159  0.40000411  1  0.082117  -4.1e-05  0.106311  0.114558  -8.3e-05  0.991439  0.0
H  H92  1  0.25411519  0.73060849  0.09510982  1  0.190966  0.000372  0.144934  0.123875  -9e-06  1.012829  0.0
H  H93  1  0.25471207  0.51142579  0.58911153  1  0.071782  4e-06  0.105491  0.083855  -1.3e-05  0.988032  0.0
H  H94  1  0.80082158  0.71851616  0.51884138  1  0.036345  1.2e-05  0.095524  0.095011  1e-06  1.025449  0.0
H  H95  1  0.31828389  0.83749158  0.47645859  1  0.100465  0.000177  0.117606  0.106919  7.8e-05  0.984495  0.0
H  H96  1  0.26050258  0.70786217  0.28159818  1  0.648378  0.000142  0.291359  0.382625  0.000368  0.959194  0.0
H  H97  1  0.26400670  0.95893409  0.27857852  1  0.137305  0.000356  0.139096  0.10709  2e-05  0.987179  0.0
H  H98  1  0.24975331  0.79214991  0.21827663  1  0.650278  0.000134  0.291266  0.381025  0.000381  0.960579  0.0
H  H99  1  0.57444103  0.03295939  0.02381159  1  0.03991  3e-06  0.098001  0.065296  -2e-06  1.007599  0.0
H  H100  1  0.74711102  0.17539705  0.07139814  1  0.080797  2e-06  0.104232  0.110722  -1e-06  0.987132  0.0
H  H101  1  0.03790873  0.78158695  0.98147517  1  0.040406  1.2e-05  0.095817  0.095347  1e-06  1.025263  0.0
H  H102  1  0.09872974  0.27576895  0.15267876  1  0.086137  0.000117  0.091781  0.082551  8e-05  1.054797  0.0
H  H103  1  0.45699862  0.72547392  0.00776629  1  0.127274  6.2e-05  0.116781  0.103187  2.4e-05  1.035678  0.0
H  H104  1  0.43249583  0.67632079  0.46575646  1  0.079585  -9e-06  0.096336  0.093395  -1.4e-05  1.044653  0.0
H  H105  1  0.32473400  0.28077927  0.09169483  1  0.06371  1.8e-05  0.103263  0.118499  -0.0  1.008351  0.0
H  H106  1  0.61219310  0.86358975  0.45828016  1  0.07475  5e-06  0.101786  0.10401  -1e-05  1.015483  0.0
H  H107  1  0.26867503  0.46478230  0.01856480  1  0.080932  4e-06  0.095652  0.094949  5e-06  1.04697  0.0
H  H108  1  0.06589112  0.36367600  0.95820016  1  0.064053  5e-06  0.101867  0.103906  -1e-05  1.014984  0.0
H  H109  1  0.30319757  0.78077822  0.59163443  1  0.075172  1.6e-05  0.103353  0.117292  -1e-06  1.008812  0.0
H  H110  1  0.00594620  0.67549343  0.57168015  1  0.076912  2e-06  0.104687  0.110976  -1e-06  0.98845  0.0
H  H111  1  0.33610525  0.19115029  0.79840530  1  0.08891  0.000241  0.101998  0.10711  0.000102  1.002239  0.0
C  C112  1  0.34125034  0.68055556  0.11698521  1  0.988175  -0.002394  0.171446  0.097161  -0.003361  3.852476  -0.002
C  C113  1  0.03666440  0.42378439  0.97635006  1  -0.053389  0.000257  -0.090518  -0.131387  0.000126  3.978102  0.0
C  C114  1  0.90111265  0.67394005  0.50404641  1  -0.111146  0.000103  -0.095237  -0.138782  3.5e-05  4.001484  0.0
C  C115  1  0.39057930  0.13408110  0.09567364  1  0.376995  0.000642  0.077114  0.254785  0.000328  4.066622  0.0
C  C116  1  0.79976183  0.14995171  0.03352877  1  -0.014204  0.000125  -0.094679  -0.131824  7.3e-05  4.001275  0.0
C  C117  1  0.53836812  0.68607178  0.37918907  1  -0.031127  0.000963  -0.099908  -0.096078  0.000506  4.027421  0.001
C  C118  1  0.48957862  0.42220447  0.98600871  1  -0.025761  8.6e-05  -0.015875  0.087262  3.1e-05  3.977968  0.0
C  C119  1  0.60306706  0.81391440  0.12101727  1  -0.034388  0.000968  -0.099915  -0.096054  0.000506  4.029269  0.001
C  C120  1  0.29601660  0.21569189  0.10799220  1  -0.035559  -0.000921  -0.104493  -0.19701  -0.001071  3.980379  -0.001
C  C121  1  0.86606754  0.87180189  0.83579340  1  -0.053157  -0.000505  -0.107052  -0.137309  -0.00069  4.013074  0.0
C  C122  1  0.89759785  0.07768755  0.51400672  1  -0.053771  8.5e-05  -0.01478  0.088931  3.1e-05  3.977332  0.0
C  C123  1  0.35797229  0.04920215  0.11798644  1  0.030282  0.000308  -0.109018  -0.245985  -9.6e-05  3.970383  0.0
C  C124  1  0.64513969  0.82439843  0.06224747  1  -0.071108  -0.00041  -0.102896  -0.0983  -0.000496  4.041129  0.0
C  C125  1  0.18783692  0.93702886  0.03418254  1  -0.028073  0.000113  -0.091433  -0.130713  4.3e-05  3.98138  0.0
C  C126  1  0.17070907  0.17260327  0.86752521  1  -0.104294  0.012283  -0.012805  -0.069215  0.007273  3.929428  0.009
C  C127  1  0.49782848  0.98986776  0.55899418  1  -0.012172  0.000216  -0.01061  0.089794  0.000117  3.977604  0.0
C  C128  1  0.46163511  0.31392709  0.62081249  1  -0.031381  0.000963  -0.099865  -0.095967  0.000506  4.027385  0.001
C  C129  1  0.92119170  0.17382669  0.00373326  1  -0.127444  9.8e-05  -0.095287  -0.139324  3.3e-05  4.001609  0.0
C  C130  1  0.78673992  0.15930011  0.53127446  1  0.289259  0.000983  -0.043603  -0.147748  0.000595  3.910544  0.001
C  C131  1  0.98385713  0.56749004  0.17394085  1  0.972175  -0.003351  0.168824  0.096444  -0.00433  3.864961  -0.002
C  C132  1  0.53186451  0.67573912  0.43794849  1  -0.102308  -0.000426  -0.103373  -0.098707  -0.000513  4.039819  0.0
C  C133  1  0.08394790  0.30965412  0.67382389  1  1.586203  0.004127  0.210302  0.580432  0.003061  4.204879  0.002
C  C134  1  0.65875205  0.31944054  0.88301491  1  0.987353  -0.002395  0.171441  0.097233  -0.003362  3.852468  -0.002
C  C135  1  0.62031430  0.36597055  0.40422663  1  0.437073  0.000634  0.078386  0.25437  0.000327  4.068118  0.0
C  C136  1  0.64202678  0.95079464  0.88201220  1  0.03006  0.000308  -0.109092  -0.246106  -9.6e-05  3.970786  0.0
C  C137  1  0.18438343  0.47047132  0.18838605  1  0.966406  -0.002126  0.147937  0.141604  -0.002762  3.996253  -0.001
C  C138  1  0.06463798  0.91484188  0.06322463  1  -0.08424  0.000131  -0.081289  -0.098184  5.7e-05  3.939261  0.0
C  C139  1  0.27443179  0.06766123  0.67386249  1  0.993988  -0.003367  0.168777  0.09534  -0.00435  3.864282  -0.002
C  C140  1  0.80280087  0.04512007  0.81848918  1  1.559196  -0.001125  0.203177  0.556449  -0.001954  4.211891  -0.002
C  C141  1  0.91605083  0.69034823  0.32617576  1  1.586152  0.004128  0.210311  0.580551  0.003061  4.204827  0.002
C  C142  1  0.61914073  0.44280554  0.97569918  1  -0.06486  0.0001  -0.094638  -0.130143  2e-05  3.987729  0.0
C  C143  1  0.76654563  0.08410802  0.68028975  1  0.975818  -0.001054  0.148178  0.138411  -0.001518  3.991094  0.0
C  C144  1  0.56315611  0.92372778  0.47640316  1  -0.068329  0.00025  -0.089929  -0.13113  0.000123  3.978885  0.0
C  C145  1  0.81561372  0.52952756  0.81161562  1  0.966371  -0.002125  0.148047  0.141756  -0.002761  3.99632  -0.001
C  C146  1  0.91102526  0.64085086  0.45565473  1  0.067753  0.000371  -0.009069  0.065901  0.000247  4.006358  0.0
C  C147  1  0.87148350  0.84011243  0.07267899  1  0.0344  0.000393  -0.006761  0.037911  -0.000116  3.971764  0.0
C  C148  1  0.50360896  0.02051166  0.37786305  1  0.265321  0.001092  -0.0422  -0.141394  0.000662  3.904388  0.001
C  C149  1  0.78431615  0.66005629  0.42762503  1  -0.00225  0.000424  -0.007128  0.037276  -0.000119  3.97455  0.0
C  C150  1  0.38260823  0.93616203  0.95133026  1  0.425842  -1.4e-05  -0.061003  -0.015836  -2.1e-05  3.903234  0.0
C  C151  1  0.90212555  0.47925216  0.12218887  1  0.298777  0.001092  -0.042397  -0.141579  0.000666  3.906107  0.001
C  C152  1  0.83150525  0.78783816  0.85785962  1  0.009174  0.0002  -0.101423  -0.072916  4.6e-05  4.081422  0.0
C  C153  1  0.37036341  0.47988981  0.01052090  1  -0.030114  0.000118  -0.091747  -0.125735  7.8e-05  3.993198  0.0
C  C154  1  0.84344564  0.02942232  0.31177371  1  0.954034  -0.002114  0.150003  0.142861  -0.002767  3.995216  -0.001
C  C155  1  0.73002980  0.43616299  0.45117351  1  0.412612  -1.5e-05  -0.0608  -0.013261  -2.1e-05  3.902903  0.0
C  C156  1  0.47732478  0.71211310  0.64218006  1  -0.023743  0.0002  -0.101763  -0.074911  5.2e-05  4.081079  0.0
C  C157  1  0.95741203  0.41475605  0.56295567  1  -0.082167  0.000134  -0.082282  -0.100487  5.9e-05  3.937544  0.0
C  C158  1  0.38047422  0.71565424  0.60803157  1  -0.069806  -0.000921  -0.104949  -0.194748  -0.00107  3.980933  -0.001
C  C159  1  0.86071295  0.01976033  0.48965531  1  -0.01532  0.000118  -0.093442  -0.128716  7.8e-05  3.99282  0.0
C  C160  1  0.69479166  0.81671429  0.15556554  1  -0.071839  0.000812  -0.092514  -0.112052  0.000212  3.995884  0.001
C  C161  1  0.13393525  0.12820046  0.16420592  1  -0.053568  -0.000506  -0.107088  -0.137341  -0.00069  4.013339  0.0
C  C162  1  0.62963378  0.52010420  0.98947964  1  -0.029453  0.000118  -0.091739  -0.125597  7.8e-05  3.993388  0.0
C  C163  1  0.96332812  0.57621587  0.02364928  1  -0.053433  0.000257  -0.090492  -0.131403  0.000126  3.978233  0.0
C  C164  1  0.21568519  0.33994467  0.57237548  1  -0.002403  0.000424  -0.007119  0.037254  -0.000119  3.97451  0.0
C  C165  1  0.00716284  0.85926769  0.04465921  1  0.024003  0.000366  -0.009632  0.065235  0.000244  4.007441  0.0
C  C166  1  0.09888535  0.32606160  0.49595506  1  -0.111101  0.000104  -0.09521  -0.138755  3.5e-05  4.001291  0.0
C  C167  1  0.81216532  0.06297001  0.96581463  1  -0.028203  0.000113  -0.091371  -0.130501  4.3e-05  3.981355  0.0
C  C168  1  0.42884851  0.45362241  0.34712060  1  -0.02934  0.006727  -0.024421  -0.013214  0.003922  3.999988  0.005
C  C169  1  0.52209197  0.65949443  0.03125005  1  0.294801  0.000973  -0.043987  -0.147371  0.000592  3.910656  0.001
C  C170  1  0.39693560  0.18608587  0.87898245  1  -0.034401  0.000968  -0.099924  -0.096078  0.000506  4.029456  0.001
C  C171  1  0.47467028  0.54911717  0.61810956  1  -0.025733  0.00031  -0.109882  -0.247058  -0.0001  3.970537  0.0
C  C172  1  0.14691845  0.59353102  0.51533044  1  -0.04691  0.000183  -0.019353  0.068342  9.8e-05  3.99359  0.0
C  C173  1  0.33240225  0.31675105  0.65530806  1  -0.124926  0.000821  -0.092083  -0.110423  0.000202  3.99336  0.001
C  C174  1  0.93181889  0.80960042  0.17414846  1  1.59962  0.004034  0.210029  0.583249  0.003022  4.203124  0.002
C  C175  1  0.38085617  0.55718917  0.02430166  1  -0.064311  0.000101  -0.094671  -0.130154  2e-05  3.987692  0.0
C  C176  1  0.01614060  0.43251231  0.82605808  1  0.97227  -0.003351  0.1688  0.096456  -0.004329  3.864973  -0.002
C  C177  1  0.96250998  0.94255889  0.47585195  1  -0.086613  0.000102  -0.094415  -0.129463  2.1e-05  3.987858  0.0
C  C178  1  0.99283751  0.14073327  0.95533894  1  0.023896  0.000365  -0.009621  0.065248  0.000244  4.007503  0.0
C  C179  1  0.21047686  0.32735226  0.63216920  1  -0.021776  0.012219  -0.013713  -0.070589  0.00728  3.930935  0.009
C  C180  1  0.61952305  0.28434672  0.39197172  1  -0.070049  -0.000921  -0.104989  -0.194842  -0.00107  3.981119  -0.001
C  C181  1  0.52532772  0.45088448  0.38189191  1  -0.026078  0.000311  -0.10989  -0.247026  -0.0001  3.970438  0.0
C  C182  1  0.99052867  0.41376785  0.03479790  1  -0.050127  0.000138  -0.087474  -0.130915  8.4e-05  3.989231  0.0
C  C183  1  0.66759779  0.68325060  0.34469284  1  -0.124957  0.000821  -0.092039  -0.11035  0.000202  3.993433  0.001
C  C184  1  0.15887676  0.56303734  0.46607698  1  -0.018879  0.000119  -0.090623  -0.128226  4.6e-05  3.980555  0.0
C  C185  1  0.26996486  0.56383936  0.54882973  1  0.412448  -1.4e-05  -0.060893  -0.013324  -2.1e-05  3.902664  0.0
C  C186  1  0.51042131  0.57779024  0.01399229  1  -0.025925  8.5e-05  -0.015825  0.087168  3.1e-05  3.978265  0.0
C  C187  1  0.30520981  0.18328875  0.84443498  1  -0.071705  0.000812  -0.092464  -0.111931  0.000212  3.995913  0.001
C  C188  1  0.01658309  0.65003853  0.53382639  1  -0.036836  0.000129  -0.095554  -0.132766  7.5e-05  4.006526  0.0
C  C189  1  0.49639062  0.97949346  0.62213642  1  0.265411  0.001092  -0.042162  -0.14134  0.000662  3.904528  0.001
C  C190  1  0.13935630  0.81931902  0.38308064  1  1.00693  -0.002353  0.172232  0.098816  -0.003321  3.851205  -0.002
C  C191  1  0.34627727  0.33828054  0.53820307  1  -0.063489  0.000787  -0.096964  -0.143576  0.000399  4.005628  0.001
C  C192  1  0.04258640  0.58524699  0.43704591  1  -0.082229  0.000134  -0.082285  -0.100524  5.9e-05  3.937526  0.0
C  C193  1  0.77055801  0.95353578  0.84719435  1  -0.080604  0.006715  -0.024181  -0.014687  0.003913  4.000688  0.005
C  C194  1  0.06817984  0.19040193  0.82585119  1  1.599203  0.004038  0.210061  0.583337  0.003021  4.202984  0.002
C  C195  1  0.25567140  0.90653395  0.98492648  1  -0.038189  0.000178  -0.021113  0.06836  9.6e-05  3.99336  0.0
C  C196  1  0.50216662  0.01013597  0.44100674  1  -0.012078  0.000215  -0.010583  0.089908  0.000117  3.977559  0.0
C  C197  1  0.42642357  0.37189602  0.33572452  1  -0.043285  -0.000467  -0.107004  -0.13714  -0.000659  4.010515  0.0
C  C198  1  0.61739636  0.06383129  0.04866776  1  0.425461  -1.4e-05  -0.060906  -0.015633  -2.1e-05  3.902774  0.0
C  C199  1  0.21326274  0.84070015  0.46872404  1  0.289038  0.000982  -0.043621  -0.147816  0.000595  3.910653  0.001
C  C200  1  0.52267815  0.28788647  0.35782139  1  -0.024155  0.0002  -0.101726  -0.07487  5.2e-05  4.080984  0.0
C  C201  1  0.82929067  0.82739908  0.13247436  1  -0.104196  0.012283  -0.012787  -0.069135  0.007273  3.929531  0.009
C  C202  1  0.84112226  0.43696431  0.53392481  1  -0.019221  0.000119  -0.0907  -0.128362  4.6e-05  3.980533  0.0
C  C203  1  0.78952157  0.67265078  0.36783156  1  -0.022079  0.012219  -0.013614  -0.070465  0.00728  3.930965  0.009
C  C204  1  0.15656005  0.97057795  0.68822698  1  0.954254  -0.002113  0.150104  0.143041  -0.002766  3.995032  -0.001
C  C205  1  0.95344366  0.48973451  0.05901784  1  -0.034616  0.000214  -0.009454  0.091796  0.000116  3.975849  0.0
C  C206  1  0.70399129  0.78430559  0.89200639  1  -0.035917  -0.00092  -0.104526  -0.196988  -0.001071  3.980629  -0.001
C  C207  1  0.65372423  0.66171764  0.46179958  1  -0.063399  0.000787  -0.097035  -0.143787  0.000399  4.00571  0.001
C  C208  1  0.46880006  0.58419006  0.18028757  1  0.989498  -0.001037  0.146978  0.137241  -0.001506  3.99184  0.0
C  C209  1  0.13929203  0.98023924  0.51034476  1  -0.015343  0.000118  -0.093476  -0.12869  7.8e-05  3.992591  0.0
C  C210  1  0.43683462  0.07628151  0.52359585  1  -0.068308  0.00025  -0.089883  -0.130987  0.000123  3.978889  0.0
C  C211  1  0.60942311  0.86591499  0.90432405  1  0.377388  0.000642  0.077146  0.254738  0.000328  4.066763  0.0
C  C212  1  0.04654828  0.51026713  0.94098169  1  -0.034582  0.000215  -0.009473  0.091746  0.000116  3.975811  0.0
C  C213  1  0.23345150  0.91589571  0.31970937  1  0.975805  -0.001054  0.148241  0.138598  -0.001518  3.990962  0.0
C  C214  1  0.86064648  0.18068333  0.61691949  1  1.00684  -0.002354  0.172229  0.098764  -0.003322  3.851218  -0.002
C  C215  1  0.20024521  0.85004299  0.96647042  1  -0.013838  0.000125  -0.094689  -0.131783  7.3e-05  4.001208  0.0
C  C216  1  0.33380906  0.54519470  0.31842522  1  1.540776  -0.001167  0.202317  0.554265  -0.001945  4.211613  -0.002
C  C217  1  0.53120276  0.41580743  0.81971267  1  0.989191  -0.001038  0.146971  0.137322  -0.001506  3.99184  0.0
C  C218  1  0.56094550  0.91384698  0.53481753  1  -0.050563  0.000133  -0.087129  -0.129253  8.1e-05  3.989376  0.0
C  C219  1  0.46813741  0.32426045  0.56205345  1  -0.10217  -0.000425  -0.103361  -0.098791  -0.000513  4.039757  0.0
C  C220  1  0.98341520  0.34996243  0.46617601  1  -0.036496  0.000129  -0.095612  -0.132883  7.5e-05  4.006638  0.0
C  C221  1  0.72556504  0.93234320  0.32613856  1  0.994012  -0.003367  0.168818  0.095392  -0.004349  3.864342  -0.002
C  C222  1  0.43904740  0.08615953  0.46518304  1  -0.050593  0.000133  -0.087135  -0.129344  8.1e-05  3.989545  0.0
C  C223  1  0.57357981  0.62810494  0.66427419  1  -0.043222  -0.000468  -0.107054  -0.137262  -0.00066  4.010667  0.0
C  C224  1  0.57114967  0.54637647  0.65287935  1  -0.029585  0.006728  -0.024458  -0.013204  0.003922  4.000082  0.005
C  C225  1  0.19719382  0.95488227  0.18150959  1  1.559377  -0.001126  0.20316  0.556484  -0.001956  4.211866  -0.002
C  C226  1  0.77688035  0.83845676  0.03845405  1  -0.136432  0.00079  -0.09801  -0.144486  0.0004  4.008049  0.001
C  C227  1  0.66618798  0.45480209  0.68157319  1  1.54111  -0.001168  0.202438  0.554417  -0.001944  4.211699  -0.002
C  C228  1  0.10240671  0.92231063  0.48599242  1  -0.053729  8.6e-05  -0.014806  0.088825  3.1e-05  3.977359  0.0
C  C229  1  0.37968267  0.63403110  0.59577737  1  0.437019  0.000634  0.078369  0.254352  0.000327  4.068184  0.0
C  C230  1  0.07881184  0.82617148  0.99626637  1  -0.127807  9.8e-05  -0.095316  -0.139412  3.3e-05  4.001408  0.0
C  C231  1  0.12851553  0.15988922  0.92732077  1  0.034444  0.000394  -0.006762  0.03794  -0.000115  3.971784  0.0
C  C232  1  0.35486182  0.17559975  0.93775274  1  -0.071145  -0.00041  -0.103002  -0.098468  -0.000496  4.041013  0.0
C  C233  1  0.08897243  0.35915149  0.54434867  1  0.06772  0.000371  -0.009088  0.065863  0.000247  4.006218  0.0
C  C234  1  0.00946255  0.58623310  0.96520182  1  -0.050205  0.000138  -0.087447  -0.130854  8.4e-05  3.989219  0.0
C  C235  1  0.09787102  0.52074810  0.87781095  1  0.298745  0.001092  -0.042357  -0.141569  0.000666  3.906142  0.001
C  C236  1  0.93536207  0.08515977  0.93677261  1  -0.084331  0.000131  -0.081264  -0.098235  5.7e-05  3.939279  0.0
C  C237  1  0.16849682  0.21216349  0.14213989  1  0.009162  0.0002  -0.101456  -0.07301  4.6e-05  4.081438  0.0
C  C238  1  0.22943900  0.04646586  0.15280436  1  -0.080624  0.006716  -0.024203  -0.014756  0.003914  4.00064  0.005
C  C239  1  0.03749530  0.05743998  0.52414701  1  -0.086751  0.000102  -0.094423  -0.129519  2.1e-05  3.987785  0.0
C  C240  1  0.22311926  0.16154350  0.96154551  1  -0.136396  0.00079  -0.098004  -0.144481  0.0004  4.008106  0.001
C  C241  1  0.85308027  0.40647133  0.48467124  1  -0.047247  0.000183  -0.019319  0.068441  9.8e-05  3.993626  0.0
C  C242  1  0.47791058  0.34049889  0.96875059  1  0.294177  0.000973  -0.044049  -0.147543  0.000592  3.91071  0.001
C  C243  1  0.74433129  0.09346145  0.01507172  1  -0.037714  0.000179  -0.021184  0.068234  9.6e-05  3.993462  0.0
N  N244  1  0.89984514  0.44600782  0.80305633  1  -1.157677  0.060296  -0.334461  -0.291911  0.034643  3.552556  0.054
N  N245  1  0.78246753  0.15081400  0.59218630  1  -0.809976  0.001793  -0.136029  0.165665  0.000757  3.743467  0.001
N  N246  1  0.64626099  0.00532107  0.34729864  1  -0.805003  0.001555  -0.133436  0.16386  0.000568  3.751619  0.001
N  N247  1  0.14858548  0.05412856  0.69679075  1  -1.163973  0.060388  -0.335541  -0.292554  0.034726  3.553148  0.054
N  N248  1  0.35374351  0.99468197  0.65270325  1  -0.804845  0.001555  -0.133404  0.163898  0.000568  3.751447  0.001
N  N249  1  0.85141528  0.94587378  0.30320914  1  -1.163916  0.060389  -0.335596  -0.292648  0.034726  3.55331  0.054
N  N250  1  0.14678986  0.86101286  0.32715706  1  -1.199415  0.066554  -0.338699  -0.304017  0.038278  3.546374  0.059
N  N251  1  0.33458892  0.63887636  0.17290927  1  -1.19999  0.066447  -0.337737  -0.302321  0.03821  3.548072  0.059
N  N252  1  0.87287879  0.56819231  0.83867593  1  -0.669147  0.004738  -0.224951  -0.276069  0.002596  3.107359  0.004
N  N253  1  0.27794503  0.91141390  0.36797225  1  -0.689812  0.005166  -0.222365  -0.27309  0.002763  3.140693  0.004
N  N254  1  0.10015142  0.55399245  0.19694512  1  -1.157668  0.060298  -0.33447  -0.291859  0.034644  3.552469  0.054
N  N255  1  0.99888060  0.49451589  0.15275377  1  -0.819178  0.001562  -0.134836  0.162445  0.000568  3.753316  0.001
N  N256  1  0.47404449  0.65088338  0.09218198  1  -0.816943  0.001774  -0.134586  0.166913  0.000751  3.743799  0.001
N  N257  1  0.85321061  0.13899018  0.67284191  1  -1.19938  0.066556  -0.338703  -0.303925  0.038279  3.546462  0.059
N  N258  1  0.00111974  0.50548507  0.84724520  1  -0.819167  0.001562  -0.134865  0.162407  0.000568  3.753332  0.001
N  N259  1  0.21753294  0.84918904  0.40781348  1  -0.810061  0.001793  -0.136029  0.165687  0.000757  3.743609  0.001
N  N260  1  0.72031828  0.06805742  0.33878194  1  -0.684949  0.00477  -0.227273  -0.277666  0.00262  3.108743  0.004
N  N261  1  0.72205211  0.08858983  0.63202687  1  -0.689836  0.005165  -0.222321  -0.272965  0.002763  3.140664  0.004
N  N262  1  0.52596009  0.34910994  0.90781849  1  -0.816069  0.001774  -0.134546  0.166853  0.00075  3.743851  0.001
N  N263  1  0.12711706  0.43180726  0.16132489  1  -0.669135  0.004738  -0.224907  -0.276018  0.002596  3.107368  0.004
N  N264  1  0.44299686  0.41121865  0.86802225  1  -0.696498  0.00517  -0.22307  -0.273012  0.002769  3.139222  0.004
N  N265  1  0.27968537  0.93194285  0.66122014  1  -0.685351  0.00477  -0.227379  -0.277842  0.002619  3.108825  0.004
N  N266  1  0.55700351  0.58877744  0.13197764  1  -0.696959  0.005168  -0.223063  -0.273036  0.002768  3.139302  0.004
N  N267  1  0.66541259  0.36112182  0.82709053  1  -1.200052  0.06645  -0.337736  -0.302342  0.038212  3.548095  0.059
O  O268  1  0.89426255  0.85032402  0.21448697  1  -1.154473  0.067166  -0.307794  -0.541373  0.036878  2.305177  0.062
O  O269  1  0.95932797  0.64958899  0.28584782  1  -1.151534  0.067356  -0.308592  -0.540438  0.036996  2.306723  0.062
O  O270  1  0.03867339  0.24827009  0.66508377  1  -1.156861  0.059872  -0.31668  -0.565125  0.032385  2.420427  0.054
O  O271  1  0.95287136  0.25184776  0.83464648  1  -1.162582  0.059905  -0.316726  -0.567036  0.032446  2.418662  0.054
O  O272  1  0.19915231  0.74999437  0.24999199  1  -1.232451  0.125457  -0.557713  -0.772754  0.071064  2.497746  0.114
O  O273  1  0.92235815  0.03952261  0.78749658  1  -1.151  0.06961  -0.318371  -0.556169  0.038289  2.38156  0.065
O  O274  1  0.80084600  0.25000658  0.75000756  1  -1.232451  0.125462  -0.557731  -0.77275  0.071066  2.49774  0.114
O  O275  1  0.71040492  0.11994534  0.82456564  1  -1.185671  0.001895  -0.318032  -0.537874  0.000259  2.182338  0.002
O  O276  1  0.65425772  0.37995765  0.67568105  1  -1.170371  0.001988  -0.315868  -0.536098  0.000315  2.18165  0.002
O  O277  1  0.48682821  0.85507590  0.93822727  1  -1.088097  0.000299  -0.183903  -0.215135  0.000156  2.582295  0.0
O  O278  1  0.04712898  0.74815320  0.16535209  1  -1.162866  0.059915  -0.316708  -0.567009  0.032449  2.418601  0.054
O  O279  1  0.28008333  0.64488874  0.56193598  1  -1.084899  0.000297  -0.184463  -0.215033  0.000155  2.583432  0.0
O  O280  1  0.10573837  0.14967555  0.78551262  1  -1.154384  0.067171  -0.307799  -0.541378  0.03688  2.305019  0.062
O  O281  1  0.96132113  0.75173503  0.33491612  1  -1.156784  0.059874  -0.316678  -0.565143  0.032386  2.420283  0.054
O  O282  1  0.04066757  0.35041613  0.71415077  1  -1.151555  0.06736  -0.308572  -0.540303  0.036998  2.306662  0.062
O  O283  1  0.71991089  0.35511223  0.43806919  1  -1.085134  0.000297  -0.184493  -0.215041  0.000155  2.583488  0.0
O  O284  1  0.28959251  0.88005769  0.17543236  1  -1.185775  0.001895  -0.317985  -0.53786  0.000259  2.182343  0.002
O  O285  1  0.34574207  0.62003983  0.32431659  1  -1.170115  0.001988  -0.315868  -0.536091  0.000315  2.181426  0.002
O  O286  1  0.25045959  0.53958901  0.28763427  1  -1.144092  0.069668  -0.320092  -0.557104  0.038294  2.381677  0.065
O  O287  1  0.74953397  0.46040639  0.71236672  1  -1.144178  0.06967  -0.320159  -0.557173  0.038294  2.38149  0.065
O  O288  1  0.51317276  0.14491880  0.06177039  1  -1.08806  0.000299  -0.183962  -0.215303  0.000156  2.582078  0.0
O  O289  1  0.07763582  0.96047904  0.21250197  1  -1.15106  0.069612  -0.318415  -0.556247  0.03829  2.381618  0.065
