# generated using pymatgen
data_CdH8C10(NCl)2
_symmetry_space_group_name_H-M   'P 1'
_cell_length_a   7.14876329
_cell_length_b   9.30117940
_cell_length_c   9.65163612
_cell_angle_alpha   118.69583986
_cell_angle_beta   106.74563668
_cell_angle_gamma   90.10391191
_symmetry_Int_Tables_number   1
_chemical_formula_structural   CdH8C10(NCl)2
_chemical_formula_sum   'Cd2 H16 C20 N4 Cl4'
_cell_volume   531.50656986
_cell_formula_units_Z   2
loop_
 _symmetry_equiv_pos_site_id
 _symmetry_equiv_pos_as_xyz
  1  'x, y, z'
loop_
 _atom_site_type_symbol
 _atom_site_label
 _atom_site_symmetry_multiplicity
 _atom_site_fract_x
 _atom_site_fract_y
 _atom_site_fract_z
 _atom_site_occupancy
 _atom_site_hle17_bader_spin_density
 _atom_site_hle17_ddec_charge
 _atom_site_hle17_ddec_spin_density
 _atom_site_hle17_ddec_sum_bond_order
 _atom_site_hle17_magmom
 _atom_site_hse06_10hf_bader_spin_density
 _atom_site_hse06_10hf_ddec_charge
 _atom_site_hse06_10hf_ddec_spin_density
 _atom_site_hse06_10hf_ddec_sum_bond_order
 _atom_site_hse06_10hf_magmom
 _atom_site_hse06_bader_spin_density
 _atom_site_hse06_ddec_charge
 _atom_site_hse06_ddec_spin_density
 _atom_site_hse06_ddec_sum_bond_order
 _atom_site_hse06_magmom
 _atom_site_pbe_bader_spin_density
 _atom_site_pbe_cm5_charge
 _atom_site_pbe_ddec_charge
 _atom_site_pbe_ddec_spin_density
 _atom_site_pbe_ddec_sum_bond_order
 _atom_site_pbe_magmom
Cd  Cd0  1  0.24982433  0.91393746  0.00007000  1  0  0.938223  0  1.977506  0  0  0.768096  0  2.44433  0  0  0.814763  0  2.4038  0  0  0.592242  0.735664  0  2.470981  0
Cd  Cd1  1  0.75017962  0.08606230  0.99993047  1  0  0.938155  0  1.97753  0  0  0.768017  0  2.444353  0  0  0.814687  0  2.40382  0  0  0.592195  0.735584  0  2.471003  0
H  H2  1  0.91759626  0.64545495  0.65071617  1  0  0.074153  0  0.958769  0  0  0.08102  0  1.027511  0  0  0.083235  0  1.026021  0  0  0.104635  0.078815  0  1.030175  0
H  H3  1  0.58179031  0.99472290  0.34945383  1  0  0.074037  0  0.959289  0  0  0.080391  0  1.028907  0  0  0.082583  0  1.027478  0  0  0.104534  0.078673  0  1.030053  0
H  H4  1  0.08240360  0.35455360  0.34929151  1  0  0.074152  0  0.958924  0  0  0.081068  0  1.027604  0  0  0.083263  0  1.026133  0  0  0.104663  0.078856  0  1.030281  0
H  H5  1  0.41821509  0.00527686  0.65054696  1  0  0.074105  0  0.959456  0  0  0.080491  0  1.029035  0  0  0.082648  0  1.02764  0  0  0.104548  0.078768  0  1.030184  0
H  H6  1  0.79271324  0.33522059  0.47159945  1  0  0.10716  0  0.984338  0  0  0.113368  0  1.052569  0  0  0.116502  0  1.051588  0  0  0.092582  0.11096  0  1.053736  0
H  H7  1  0.70723011  0.86337918  0.52852561  1  0  0.106677  0  0.984826  0  0  0.112935  0  1.052791  0  0  0.116109  0  1.051804  0  0  0.09236  0.110292  0  1.054526  0
H  H8  1  0.20727827  0.66478307  0.52840625  1  0  0.107165  0  0.984568  0  0  0.113373  0  1.05278  0  0  0.116509  0  1.051799  0  0  0.092604  0.11097  0  1.05394  0
H  H9  1  0.29276549  0.13661568  0.47147288  1  0  0.106735  0  0.984852  0  0  0.11295  0  1.052846  0  0  0.116132  0  1.051853  0  0  0.092355  0.11033  0  1.054556  0
H  H10  1  0.16338886  0.28400939  0.87851602  1  0  0.112176  0  0.971167  0  0  0.120227  0  1.036289  0  0  0.123432  0  1.034899  0  0  0.098936  0.117981  0  1.037287  0
H  H11  1  0.33719629  0.40534279  0.12160501  1  0  0.111415  0  0.972726  0  0  0.120149  0  1.037006  0  0  0.123363  0  1.035603  0  0  0.099003  0.117761  0  1.038231  0
H  H12  1  0.83662526  0.71598280  0.12148018  1  0  0.112219  0  0.97127  0  0  0.120283  0  1.036374  0  0  0.123483  0  1.034985  0  0  0.099021  0.118036  0  1.037375  0
H  H13  1  0.66280641  0.59465071  0.87838926  1  0  0.111407  0  0.972791  0  0  0.120149  0  1.037057  0  0  0.123364  0  1.035658  0  0  0.098986  0.117763  0  1.038282  0
H  H14  1  0.92370786  0.15516654  0.59454303  1  0  0.096738  0  0.931994  0  0  0.10981  0  0.988334  0  0  0.11215  0  0.986962  0  0  0.105074  0.107887  0  0.989702  0
H  H15  1  0.57693089  0.56030106  0.40552331  1  0  0.096464  0  0.932093  0  0  0.109379  0  0.988975  0  0  0.111784  0  0.987512  0  0  0.105169  0.108036  0  0.98922  0
H  H16  1  0.07629351  0.84484195  0.40546081  1  0  0.096621  0  0.931888  0  0  0.109684  0  0.988265  0  0  0.112023  0  0.986896  0  0  0.105015  0.107759  0  0.989634  0
H  H17  1  0.42306533  0.43969615  0.59446705  1  0  0.096481  0  0.931767  0  0  0.109377  0  0.988716  0  0  0.111785  0  0.987248  0  0  0.105152  0.108035  0  0.988957  0
C  C18  1  0.17490107  0.53429062  0.91499636  1  0  0.175327  0  3.748464  0  0  0.172256  0  3.988276  0  0  0.178853  0  4.008823  0  0  0.117678  0.167942  0  3.975289  0
C  C19  1  0.32497754  0.61931532  0.08518989  1  0  0.176644  0  3.749867  0  0  0.173775  0  3.989592  0  0  0.180267  0  4.010219  0  0  0.118748  0.168658  0  3.976569  0
C  C20  1  0.82509103  0.46569429  0.08499584  1  0  0.175322  0  3.74867  0  0  0.17228  0  3.988491  0  0  0.178875  0  4.009035  0  0  0.117659  0.167966  0  3.975505  0
C  C21  1  0.67502779  0.38068453  0.91481715  1  0  0.176697  0  3.749679  0  0  0.173832  0  3.989416  0  0  0.180324  0  4.010038  0  0  0.118766  0.168714  0  3.976394  0
C  C22  1  0.96981702  0.55932407  0.69432583  1  0  0.131872  0  3.708933  0  0  0.103375  0  3.95799  0  0  0.109581  0  3.977225  0  0  0.046123  0.098381  0  3.948057  0
C  C23  1  0.52979182  0.86493377  0.30584079  1  0  0.130265  0  3.711494  0  0  0.101491  0  3.9617  0  0  0.107647  0  3.980987  0  0  0.045997  0.098215  0  3.94787  0
C  C24  1  0.03017358  0.44066091  0.30567022  1  0  0.131858  0  3.708521  0  0  0.103339  0  3.957563  0  0  0.109563  0  3.976802  0  0  0.046058  0.098348  0  3.947628  0
C  C25  1  0.47021676  0.13505366  0.69416447  1  0  0.130101  0  3.711382  0  0  0.101288  0  3.961563  0  0  0.107471  0  3.980857  0  0  0.045947  0.098018  0  3.947734  0
C  C26  1  0.90148030  0.38862059  0.59666243  1  0  -0.125087  0  3.727925  0  0  -0.135429  0  3.974874  0  0  -0.142611  0  3.997204  0  0  -0.085573  -0.129981  0  3.96105  0
C  C27  1  0.59847564  0.79177527  0.40346239  1  0  -0.122443  0  3.727684  0  0  -0.132321  0  3.974585  0  0  -0.139517  0  3.996911  0  0  -0.085136  -0.127865  0  3.959473  0
C  C28  1  0.09851658  0.61140163  0.40334764  1  0  -0.125142  0  3.727696  0  0  -0.135485  0  3.974626  0  0  -0.142662  0  3.996952  0  0  -0.085633  -0.130042  0  3.9608  0
C  C29  1  0.40151998  0.20823310  0.59653080  1  0  -0.122397  0  3.727371  0  0  -0.132206  0  3.974198  0  0  -0.139402  0  3.996512  0  0  -0.085067  -0.127773  0  3.959078  0
C  C30  1  0.10935617  0.36237768  0.82580150  1  0  -0.138736  0  3.697057  0  0  -0.159897  0  3.947252  0  0  -0.166501  0  3.968516  0  0  -0.081905  -0.15464  0  3.932704  0
C  C31  1  0.39085474  0.53646448  0.17434798  1  0  -0.138539  0  3.698507  0  0  -0.15977  0  3.948286  0  0  -0.166345  0  3.969569  0  0  -0.082928  -0.155626  0  3.934756  0
C  C32  1  0.89064574  0.63763325  0.17420045  1  0  -0.138804  0  3.696817  0  0  -0.160054  0  3.947124  0  0  -0.166644  0  3.968375  0  0  -0.082045  -0.154799  0  3.93258  0
C  C33  1  0.60914131  0.46353893  0.82564411  1  0  -0.138462  0  3.698397  0  0  -0.159727  0  3.948202  0  0  -0.1663  0  3.969484  0  0  -0.08283  -0.155596  0  3.934695  0
C  C34  1  0.97303562  0.28929020  0.66495793  1  0  0.008566  0  3.714773  0  0  -0.010084  0  3.964678  0  0  -0.006923  0  3.983608  0  0  -0.066345  -0.012158  0  3.950961  0
C  C35  1  0.52722286  0.62412061  0.33515977  1  0  0.007577  0  3.713665  0  0  -0.011527  0  3.964077  0  0  -0.008375  0  3.983005  0  0  -0.066532  -0.013065  0  3.950241  0
C  C36  1  0.02695530  0.71069593  0.33503249  1  0  0.008709  0  3.715073  0  0  -0.009885  0  3.964962  0  0  -0.006733  0  3.983901  0  0  -0.066246  -0.011954  0  3.95124  0
C  C37  1  0.47278920  0.37587679  0.66485283  1  0  0.007413  0  3.71405  0  0  -0.01167  0  3.964485  0  0  -0.008527  0  3.983429  0  0  -0.066659  -0.013205  0  3.950647  0
N  N38  1  0.10352170  0.62958681  0.84827518  1  0  -0.343767  0  3.252422  0  0  -0.27378  0  3.508929  0  0  -0.292769  0  3.528845  0  0  -0.326643  -0.261526  0  3.495939  0
N  N39  1  0.39604959  0.78136083  0.15194876  1  0  -0.345123  0  3.256284  0  0  -0.275522  0  3.513388  0  0  -0.294409  0  3.533373  0  0  -0.326604  -0.262056  0  3.498572  0
N  N40  1  0.89647239  0.37042168  0.15172499  1  0  -0.343702  0  3.253075  0  0  -0.27372  0  3.509572  0  0  -0.292709  0  3.529486  0  0  -0.326509  -0.261466  0  3.496578  0
N  N41  1  0.60395298  0.21864639  0.84805374  1  0  -0.345121  0  3.25676  0  0  -0.275497  0  3.513841  0  0  -0.29438  0  3.53381  0  0  -0.326574  -0.26203  0  3.499021  0
Cl  Cl42  1  0.50629506  0.18287603  0.19523200  1  0  -0.566624  0  0.972048  0  0  -0.503635  0  1.252678  0  0  -0.521137  0  1.232013  0  0  -0.300781  -0.491062  0  1.26625  0
Cl  Cl43  1  0.99385792  0.98760205  0.80453844  1  0  -0.566935  0  0.972065  0  0  -0.504289  0  1.252689  0  0  -0.521667  0  1.23202  0  0  -0.300627  -0.491262  0  1.267005  0
Cl  Cl44  1  0.49370813  0.81711999  0.80476558  1  0  -0.566617  0  0.972047  0  0  -0.503622  0  1.252645  0  0  -0.521121  0  1.231974  0  0  -0.300784  -0.491048  0  1.266215  0
Cl  Cl45  1  0.00614260  0.01239523  0.19545912  1  0  -0.566938  0  0.972099  0  0  -0.504283  0  1.252719  0  0  -0.521659  0  1.232047  0  0  -0.30063  -0.491257  0  1.267041  0
