# generated using pymatgen
data_CdH22C18S(N2O3)3
_symmetry_space_group_name_H-M   'P 1'
_cell_length_a   6.48731969
_cell_length_b   9.76026657
_cell_length_c   19.43133914
_cell_angle_alpha   90.00051491
_cell_angle_beta   89.99936561
_cell_angle_gamma   98.74370441
_symmetry_Int_Tables_number   1
_chemical_formula_structural   CdH22C18S(N2O3)3
_chemical_formula_sum   'Cd2 H44 C36 S2 N12 O18'
_cell_volume   1216.05404684
_cell_formula_units_Z   2
loop_
 _symmetry_equiv_pos_site_id
 _symmetry_equiv_pos_as_xyz
  1  'x, y, z'
loop_
 _atom_site_type_symbol
 _atom_site_label
 _atom_site_symmetry_multiplicity
 _atom_site_fract_x
 _atom_site_fract_y
 _atom_site_fract_z
 _atom_site_occupancy
 _atom_site_hle17_bader_spin_density
 _atom_site_hle17_ddec_charge
 _atom_site_hle17_ddec_spin_density
 _atom_site_hle17_ddec_sum_bond_order
 _atom_site_hle17_magmom
 _atom_site_hse06_10hf_bader_spin_density
 _atom_site_hse06_10hf_ddec_charge
 _atom_site_hse06_10hf_ddec_spin_density
 _atom_site_hse06_10hf_ddec_sum_bond_order
 _atom_site_hse06_10hf_magmom
 _atom_site_hse06_bader_spin_density
 _atom_site_hse06_ddec_charge
 _atom_site_hse06_ddec_spin_density
 _atom_site_hse06_ddec_sum_bond_order
 _atom_site_hse06_magmom
 _atom_site_pbe_bader_spin_density
 _atom_site_pbe_cm5_charge
 _atom_site_pbe_ddec_charge
 _atom_site_pbe_ddec_spin_density
 _atom_site_pbe_ddec_sum_bond_order
 _atom_site_pbe_magmom
Cd  Cd0  1  0.44580069  0.83119466  0.26263761  1  0  1.179695  0  1.668981  0  0  0.997049  0  2.115141  0  0  1.046797  0  2.065436  0  0  0.784881  0.96179  0  2.14956  0
Cd  Cd1  1  0.55420400  0.16879544  0.76263440  1  0  1.179679  0  1.669006  0  0  0.997018  0  2.115157  0  0  1.046767  0  2.065455  0  0  0.784868  0.961757  0  2.149578  0
H  H2  1  0.68899524  0.97290601  0.64691517  1  0  0.079429  0  0.933853  0  0  0.089881  0  0.994205  0  0  0.092725  0  0.99159  0  0  0.113916  0.087553  0  0.996681  0
H  H3  1  0.31100555  0.02709885  0.14692348  1  0  0.079409  0  0.933908  0  0  0.089861  0  0.994248  0  0  0.092735  0  0.991596  0  0  0.113876  0.087532  0  0.996727  0
H  H4  1  0.57641105  0.87316197  0.53047798  1  0  0.103242  0  0.937905  0  0  0.115667  0  0.992158  0  0  0.118838  0  0.991046  0  0  0.108756  0.113678  0  0.99263  0
H  H5  1  0.42357052  0.12683577  0.03048531  1  0  0.103272  0  0.937754  0  0  0.115699  0  0.992017  0  0  0.118868  0  0.990907  0  0  0.108774  0.113705  0  0.992486  0
H  H6  1  0.26896679  0.94802522  0.47346258  1  0  0.136145  0  0.9516  0  0  0.145873  0  1.009987  0  0  0.149839  0  1.006528  0  0  0.113709  0.142961  0  1.012542  0
H  H7  1  0.73101216  0.05197094  0.97346179  1  0  0.136227  0  0.951527  0  0  0.145903  0  1.009969  0  0  0.149868  0  1.006511  0  0  0.113741  0.142993  0  1.012519  0
H  H8  1  0.23457338  0.22866858  0.64380543  1  0  0.089768  0  0.983032  0  0  0.096313  0  1.049293  0  0  0.099467  0  1.046844  0  0  0.115017  0.094068  0  1.050943  0
H  H9  1  0.76544116  0.77134257  0.14380720  1  0  0.089758  0  0.982919  0  0  0.096297  0  1.049194  0  0  0.099449  0  1.046748  0  0  0.115014  0.094049  0  1.050846  0
H  H10  1  0.75506056  0.46389713  0.58280818  1  0  0.109845  0  0.986743  0  0  0.115945  0  1.053242  0  0  0.119874  0  1.050717  0  0  0.098344  0.11309  0  1.055231  0
H  H11  1  0.24494385  0.53612231  0.08281131  1  0  0.109859  0  0.986801  0  0  0.115932  0  1.053325  0  0  0.119857  0  1.050811  0  0  0.098355  0.113079  0  1.055314  0
H  H12  1  0.47235034  0.60987611  0.57862300  1  0  0.072999  0  0.978824  0  0  0.083405  0  1.04099  0  0  0.08497  0  1.041202  0  0  0.092282  0.08259  0  1.040259  0
H  H13  1  0.52766453  0.39014854  0.07862856  1  0  0.073073  0  0.978747  0  0  0.083559  0  1.040821  0  0  0.085126  0  1.041031  0  0  0.092367  0.082743  0  1.04009  0
H  H14  1  0.20387340  0.57877127  0.48739811  1  0  0.117891  0  0.959986  0  0  0.12776  0  1.016217  0  0  0.13173  0  1.014022  0  0  0.105608  0.124888  0  1.017978  0
H  H15  1  0.79614343  0.42124615  0.98740235  1  0  0.117729  0  0.959891  0  0  0.127579  0  1.016175  0  0  0.131554  0  1.013975  0  0  0.105515  0.124703  0  1.017935  0
H  H16  1  0.49790368  0.24954587  0.40174293  1  0  0.124298  0  0.962133  0  0  0.137286  0  1.019515  0  0  0.140653  0  1.017944  0  0  0.108045  0.134808  0  1.020887  0
H  H17  1  0.50208051  0.75044925  0.90173687  1  0  0.124312  0  0.962069  0  0  0.137256  0  1.019546  0  0  0.140611  0  1.017987  0  0  0.108026  0.134774  0  1.020911  0
H  H18  1  0.65416232  0.24062588  0.23373619  1  0  0.121211  0  0.942194  0  0  0.133555  0  0.996724  0  0  0.13708  0  0.993955  0  0  0.115126  0.130734  0  0.999292  0
H  H19  1  0.34582402  0.75936775  0.73373486  1  0  0.121254  0  0.942227  0  0  0.133608  0  0.996744  0  0  0.137134  0  0.993975  0  0  0.115094  0.130784  0  0.999316  0
H  H20  1  0.32833237  0.30418748  0.18445211  1  0  0.10483  0  0.927094  0  0  0.12117  0  0.974238  0  0  0.12369  0  0.973879  0  0  0.113629  0.119088  0  0.975157  0
H  H21  1  0.67166867  0.69580968  0.68444621  1  0  0.104869  0  0.927045  0  0  0.121186  0  0.974212  0  0  0.123713  0  0.973839  0  0  0.113598  0.119096  0  0.975145  0
H  H22  1  0.25322161  0.54876058  0.20038325  1  0  0.087348  0  0.941549  0  0  0.097999  0  1.002896  0  0  0.100605  0  1.000592  0  0  0.118086  0.095954  0  1.004952  0
H  H23  1  0.74678494  0.45122860  0.70038215  1  0  0.087483  0  0.941313  0  0  0.09807  0  1.002747  0  0  0.100689  0  1.000425  0  0  0.118133  0.096024  0  1.004805  0
H  H24  1  0.79355787  0.65605547  0.31537200  1  0  0.108929  0  0.976278  0  0  0.111784  0  1.045047  0  0  0.115858  0  1.040817  0  0  0.118483  0.108665  0  1.048364  0
H  H25  1  0.20644057  0.34394261  0.81537086  1  0  0.108959  0  0.976256  0  0  0.111825  0  1.045003  0  0  0.115901  0  1.040766  0  0  0.118478  0.108706  0  1.048318  0
H  H26  1  0.94066417  0.29789817  0.30150775  1  0  0.3048  0  0.930001  0  0  0.282053  0  1.000865  0  0  0.290241  0  0.994281  0  0  0.307128  0.276495  0  1.005155  0
H  H27  1  0.05933271  0.70209762  0.80150310  1  0  0.304706  0  0.930077  0  0  0.281991  0  1.000915  0  0  0.290178  0  0.994331  0  0  0.307098  0.276436  0  1.005197  0
H  H28  1  0.18177354  0.29027068  0.36102742  1  0  0.30077  0  0.918454  0  0  0.282355  0  0.981857  0  0  0.290293  0  0.975691  0  0  0.310414  0.276776  0  0.986203  0
H  H29  1  0.81822221  0.70972910  0.86102310  1  0  0.300818  0  0.918341  0  0  0.282324  0  0.981832  0  0  0.290261  0  0.97567  0  0  0.310404  0.276752  0  0.986176  0
H  H30  1  0.77645163  0.19046522  0.44844879  1  0  0.304001  0  0.9344  0  0  0.282116  0  1.003741  0  0  0.290432  0  0.997153  0  0  0.304318  0.27624  0  1.00842  0
H  H31  1  0.22353490  0.80953373  0.94844608  1  0  0.303987  0  0.934399  0  0  0.282134  0  1.003714  0  0  0.290461  0  0.997106  0  0  0.304331  0.276258  0  1.008389  0
H  H32  1  0.01340086  0.07778355  0.47563695  1  0  0.307374  0  0.936987  0  0  0.28698  0  1.004153  0  0  0.295558  0  0.997179  0  0  0.304255  0.280923  0  1.009065  0
H  H33  1  0.98658733  0.92220550  0.97563451  1  0  0.307397  0  0.936908  0  0  0.286937  0  1.004142  0  0  0.295508  0  0.997175  0  0  0.304309  0.280907  0  1.009045  0
H  H34  1  0.99711117  0.83027687  0.25024424  1  0  0.430373  0  0.868141  0  0  0.399948  0  0.930459  0  0  0.410303  0  0.915401  0  0  0.290724  0.392565  0  0.941194  0
H  H35  1  0.00289256  0.16971407  0.75024203  1  0  0.430463  0  0.868027  0  0  0.400024  0  0.930372  0  0  0.410383  0  0.915306  0  0  0.290728  0.392644  0  0.941103  0
H  H36  1  0.07317374  0.76160822  0.18046058  1  0  0.42726  0  0.877824  0  0  0.392784  0  0.948228  0  0  0.403637  0  0.932398  0  0  0.289747  0.385141  0  0.95934  0
H  H37  1  0.92683445  0.23839308  0.68046197  1  0  0.427247  0  0.877833  0  0  0.392753  0  0.948268  0  0  0.403608  0  0.932434  0  0  0.289727  0.385114  0  0.959373  0
H  H38  1  0.26981153  0.07976099  0.29352706  1  0  0.425454  0  0.882514  0  0  0.39216  0  0.949474  0  0  0.403274  0  0.933391  0  0  0.28408  0.384382  0  0.960716  0
H  H39  1  0.73019907  0.92023274  0.79351989  1  0  0.425435  0  0.88256  0  0  0.392109  0  0.949571  0  0  0.403219  0  0.933494  0  0  0.2841  0.384324  0  0.960825  0
H  H40  1  0.51035328  0.07941113  0.31852335  1  0  0.419236  0  0.892675  0  0  0.387557  0  0.95814  0  0  0.398398  0  0.942388  0  0  0.286634  0.379929  0  0.969229  0
H  H41  1  0.48965987  0.92058404  0.81851707  1  0  0.419189  0  0.892718  0  0  0.387523  0  0.958153  0  0  0.398361  0  0.942399  0  0  0.286682  0.379899  0  0.969232  0
H  H42  1  0.25470443  0.71325373  0.38574553  1  0  0.427938  0  0.874322  0  0  0.393913  0  0.942831  0  0  0.40471  0  0.9273  0  0  0.291904  0.386314  0  0.953758  0
H  H43  1  0.74529521  0.28674647  0.88574420  1  0  0.427973  0  0.874284  0  0  0.393917  0  0.942849  0  0  0.404719  0  0.927311  0  0  0.291878  0.386307  0  0.953793  0
H  H44  1  0.49351521  0.73920515  0.40210326  1  0  0.414426  0  0.831564  0  0  0.395664  0  0.890751  0  0  0.403379  0  0.882581  0  0  0.314804  0.39014  0  0.896686  0
H  H45  1  0.50648305  0.26079838  0.90210115  1  0  0.4144  0  0.831616  0  0  0.395639  0  0.890794  0  0  0.403354  0  0.882623  0  0  0.314755  0.390114  0  0.896722  0
C  C46  1  0.55844500  0.00463771  0.61901654  1  0  0.09619  0  3.752015  0  0  0.059281  0  4.015479  0  0  0.065315  0  4.033583  0  0  0.027199  0.055315  0  4.003279  0
C  C47  1  0.44154937  0.99536150  0.11902308  1  0  0.096192  0  3.752026  0  0  0.059307  0  4.015471  0  0  0.065319  0  4.033576  0  0  0.027205  0.055337  0  4.003276  0
C  C48  1  0.49303927  0.94857428  0.55533815  1  0  -0.10127  0  3.775679  0  0  -0.114603  0  4.033307  0  0  -0.119107  0  4.053905  0  0  -0.087578  -0.111664  0  4.018786  0
C  C49  1  0.50695722  0.05142501  0.05534277  1  0  -0.101357  0  3.775619  0  0  -0.11472  0  4.0333  0  0  -0.119229  0  4.053913  0  0  -0.087657  -0.11177  0  4.018766  0
C  C50  1  0.32176584  0.99062698  0.52340870  1  0  -0.109732  0  3.645305  0  0  -0.134045  0  3.890848  0  0  -0.133935  0  3.907315  0  0  -0.073843  -0.133785  0  3.879478  0
C  C51  1  0.67822036  0.00936967  0.02340786  1  0  -0.10975  0  3.645235  0  0  -0.134035  0  3.890748  0  0  -0.133927  0  3.907218  0  0  -0.07379  -0.133779  0  3.87937  0
C  C52  1  0.21916627  0.09108120  0.55541494  1  0  0.230862  0  3.782088  0  0  0.229505  0  4.026837  0  0  0.234737  0  4.048973  0  0  0.107697  0.225493  0  4.012028  0
C  C53  1  0.78082404  0.90891803  0.05541419  1  0  0.230799  0  3.782122  0  0  0.229547  0  4.02671  0  0  0.234772  0  4.048843  0  0  0.107686  0.225568  0  4.011936  0
C  C54  1  0.30016931  0.14619137  0.61841109  1  0  0.020383  0  3.679405  0  0  -0.019249  0  3.936307  0  0  -0.015491  0  3.953848  0  0  0.032932  -0.021253  0  3.923966  0
C  C55  1  0.69983628  0.85381724  0.11841193  1  0  0.020342  0  3.679434  0  0  -0.019293  0  3.936298  0  0  -0.015535  0  3.953835  0  0  0.032866  -0.021289  0  3.923959  0
C  C56  1  0.93046940  0.23060342  0.54091984  1  0  0.735672  0  3.848755  0  0  0.660609  0  4.161127  0  0  0.695522  0  4.157276  0  0  0.337804  0.637233  0  4.16266  0
C  C57  1  0.06953234  0.76940398  0.04092107  1  0  0.735719  0  3.848555  0  0  0.66075  0  4.160834  0  0  0.695657  0  4.156991  0  0  0.337832  0.637415  0  4.162371  0
C  C58  1  0.64275760  0.34531718  0.49307163  1  0  0.296354  0  3.793354  0  0  0.28967  0  4.043627  0  0  0.30034  0  4.064179  0  0  0.098373  0.282431  0  4.029844  0
C  C59  1  0.35723992  0.65468979  0.99307082  1  0  0.296425  0  3.793254  0  0  0.289611  0  4.043711  0  0  0.300286  0  4.064269  0  0  0.098375  0.282384  0  4.029926  0
C  C60  1  0.63838380  0.44988641  0.54246322  1  0  -0.197324  0  3.749606  0  0  -0.222421  0  4.005272  0  0  -0.229785  0  4.026431  0  0  -0.114809  -0.217809  0  3.99118  0
C  C61  1  0.36162357  0.55013348  0.04246600  1  0  -0.197208  0  3.749575  0  0  -0.222237  0  4.005325  0  0  -0.229605  0  4.026496  0  0  -0.114737  -0.217639  0  3.991241  0
C  C62  1  0.48064342  0.53203997  0.53888443  1  0  -0.043357  0  3.850159  0  0  -0.053253  0  4.100861  0  0  -0.051799  0  4.123429  0  0  -0.09905  -0.053847  0  4.084844  0
C  C63  1  0.51936384  0.46797883  0.03888779  1  0  -0.04365  0  3.849967  0  0  -0.05363  0  4.100702  0  0  -0.05218  0  4.123274  0  0  -0.099212  -0.054228  0  4.084686  0
C  C64  1  0.32891121  0.51634515  0.48743840  1  0  -0.20955  0  3.76419  0  0  -0.231466  0  4.017339  0  0  -0.238272  0  4.037102  0  0  -0.116162  -0.227234  0  4.004081  0
C  C65  1  0.67109484  0.48366492  0.98744081  1  0  -0.20916  0  3.763687  0  0  -0.231074  0  4.016833  0  0  -0.237879  0  4.036595  0  0  -0.116032  -0.22683  0  4.003561  0
C  C66  1  0.33772380  0.41444963  0.43692697  1  0  0.278303  0  3.827827  0  0  0.269758  0  4.085329  0  0  0.279934  0  4.106069  0  0  0.088998  0.263008  0  4.071233  0
C  C67  1  0.66227849  0.58555654  0.93692781  1  0  0.278185  0  3.827888  0  0  0.269715  0  4.085264  0  0  0.27989  0  4.106003  0  0  0.088977  0.26297  0  4.071176  0
C  C68  1  0.49322622  0.32983399  0.44034159  1  0  -0.276699  0  3.663902  0  0  -0.304579  0  3.920514  0  0  -0.313364  0  3.94014  0  0  -0.110247  -0.298802  0  3.907603  0
C  C69  1  0.50676892  0.67016803  0.94033875  1  0  -0.276608  0  3.663759  0  0  -0.30447  0  3.920456  0  0  -0.313252  0  3.940078  0  0  -0.110182  -0.29869  0  3.907543  0
C  C70  1  0.05237775  0.46767622  0.35988197  1  0  0.731628  0  3.847367  0  0  0.657265  0  4.158577  0  0  0.692152  0  4.154387  0  0  0.338465  0.63368  0  4.160802  0
C  C71  1  0.94762307  0.53233291  0.85987843  1  0  0.731596  0  3.847182  0  0  0.657251  0  4.158371  0  0  0.692151  0  4.154169  0  0  0.338424  0.633669  0  4.160598  0
C  C72  1  0.74936926  0.44243607  0.27999730  1  0  0.237954  0  3.786644  0  0  0.234755  0  4.033634  0  0  0.239897  0  4.055237  0  0  0.11037  0.230889  0  4.019048  0
C  C73  1  0.25061814  0.55755517  0.77999181  1  0  0.237885  0  3.786577  0  0  0.234798  0  4.03344  0  0  0.239942  0  4.055032  0  0  0.110359  0.230929  0  4.018857  0
C  C74  1  0.61773294  0.34506947  0.24044576  1  0  -0.113086  0  3.674259  0  0  -0.137806  0  3.922077  0  0  -0.137587  0  3.938607  0  0  -0.073978  -0.137942  0  3.911692  0
C  C75  1  0.38227414  0.65492859  0.74044691  1  0  -0.113182  0  3.674349  0  0  -0.137955  0  3.922155  0  0  -0.137738  0  3.938689  0  0  -0.073933  -0.138085  0  3.911763  0
C  C76  1  0.43638990  0.38071479  0.21246097  1  0  -0.088865  0  3.767224  0  0  -0.102739  0  4.025768  0  0  -0.1068  0  4.045625  0  0  -0.083372  -0.100358  0  4.01325  0
C  C77  1  0.56361138  0.61928796  0.71245563  1  0  -0.08881  0  3.767079  0  0  -0.102651  0  4.025582  0  0  -0.106714  0  4.045448  0  0  -0.083329  -0.100266  0  4.013066  0
C  C78  1  0.39288325  0.51482035  0.22126054  1  0  0.097294  0  3.731219  0  0  0.057764  0  3.996443  0  0  0.064448  0  4.014069  0  0  0.030898  0.053047  0  3.985155  0
C  C79  1  0.60711956  0.48517635  0.72125289  1  0  0.097251  0  3.731263  0  0  0.057759  0  3.996496  0  0  0.064436  0  4.014118  0  0  0.030866  0.053045  0  3.985203  0
C  C80  1  0.69572195  0.57609034  0.28640539  1  0  0.024805  0  3.658127  0  0  -0.015139  0  3.915395  0  0  -0.010203  0  3.930801  0  0  0.036147  -0.018008  0  3.904694  0
C  C81  1  0.30427826  0.42390422  0.78640271  1  0  0.024814  0  3.657948  0  0  -0.015163  0  3.915183  0  0  -0.010224  0  3.930577  0  0  0.036144  -0.018032  0  3.904483  0
S  S82  1  0.89219638  0.02439581  0.34409564  1  0  1.560472  0  5.831981  0  0  1.431275  0  6.380953  0  0  1.486134  0  6.345396  0  0  0.560282  1.393492  0  6.404266  0
S  S83  1  0.10779948  0.97559441  0.84408639  1  0  1.560074  0  5.832673  0  0  1.430741  0  6.38179  0  0  1.485592  0  6.346249  0  0  0.560004  1.39296  0  6.405095  0
N  N84  1  0.52323376  0.60969222  0.25662915  1  0  -0.341955  0  3.34557  0  0  -0.258966  0  3.615978  0  0  -0.278581  0  3.636637  0  0  -0.33905  -0.245563  0  3.601739  0
N  N85  1  0.47678077  0.39030719  0.75662825  1  0  -0.342139  0  3.345827  0  0  -0.259146  0  3.616224  0  0  -0.278763  0  3.636888  0  0  -0.339073  -0.24574  0  3.60198  0
N  N86  1  0.92223804  0.39962732  0.31031956  1  0  -0.493569  0  3.332699  0  0  -0.437809  0  3.579644  0  0  -0.461044  0  3.588308  0  0  -0.405078  -0.421544  0  3.57327  0
N  N87  1  0.07775772  0.60036446  0.81031798  1  0  -0.493226  0  3.332683  0  0  -0.437578  0  3.579592  0  0  -0.460835  0  3.588317  0  0  -0.404969  -0.421318  0  3.573215  0
N  N88  1  0.19164403  0.38608215  0.38362565  1  0  -0.498521  0  3.332177  0  0  -0.444341  0  3.583227  0  0  -0.467289  0  3.590674  0  0  -0.410043  -0.428514  0  3.577823  0
N  N89  1  0.80834843  0.61391278  0.88362299  1  0  -0.498585  0  3.332264  0  0  -0.444364  0  3.583312  0  0  -0.467311  0  3.590754  0  0  -0.410038  -0.428563  0  3.577929  0
N  N90  1  0.78965666  0.25390206  0.49129001  1  0  -0.494666  0  3.311414  0  0  -0.437134  0  3.55675  0  0  -0.46072  0  3.564531  0  0  -0.404437  -0.420971  0  3.551109  0
N  N91  1  0.21033718  0.74610175  0.99128912  1  0  -0.494793  0  3.311565  0  0  -0.437283  0  3.556907  0  0  -0.46084  0  3.564585  0  0  -0.404507  -0.421102  0  3.551201  0
N  N92  1  0.04792040  0.13005436  0.52173007  1  0  -0.501699  0  3.326177  0  0  -0.444499  0  3.568199  0  0  -0.46838  0  3.577498  0  0  -0.403629  -0.42795  0  3.561578  0
N  N93  1  0.95206606  0.86994330  0.02172902  1  0  -0.501592  0  3.32611  0  0  -0.44442  0  3.568196  0  0  -0.468284  0  3.577483  0  0  -0.403647  -0.427976  0  3.561635  0
N  N94  1  0.46307496  0.10178571  0.64913889  1  0  -0.332428  0  3.320361  0  0  -0.255208  0  3.591769  0  0  -0.273682  0  3.612552  0  0  -0.335456  -0.242196  0  3.577134  0
N  N95  1  0.53693414  0.89822237  0.14914361  1  0  -0.332423  0  3.320563  0  0  -0.255227  0  3.591981  0  0  -0.273701  0  3.61278  0  0  -0.335405  -0.24222  0  3.577355  0
O  O96  1  0.95092579  0.29338086  0.59714664  1  0  -0.626738  0  1.967033  0  0  -0.564472  0  2.187476  0  0  -0.586951  0  2.178306  0  0  -0.304081  -0.548939  0  2.193109  0
O  O97  1  0.04908795  0.70662647  0.09714972  1  0  -0.626789  0  1.966843  0  0  -0.564584  0  2.187291  0  0  -0.587057  0  2.178114  0  0  -0.304087  -0.549053  0  2.192911  0
O  O98  1  0.09901124  0.77469620  0.23059144  1  0  -0.853332  0  1.859464  0  0  -0.791924  0  2.061506  0  0  -0.813698  0  2.028114  0  0  -0.593143  -0.776403  0  2.084736  0
O  O99  1  0.90099790  0.22530277  0.73059389  1  0  -0.85335  0  1.859334  0  0  -0.791935  0  2.061399  0  0  -0.813706  0  2.027994  0  0  -0.593082  -0.776417  0  2.084628  0
O  O100  1  0.40884490  0.05554546  0.28016020  1  0  -0.857556  0  1.909066  0  0  -0.79302  0  2.115371  0  0  -0.817337  0  2.08338  0  0  -0.596409  -0.775205  0  2.137695  0
O  O101  1  0.59116390  0.94444495  0.78015159  1  0  -0.857539  0  1.909213  0  0  -0.792975  0  2.115526  0  0  -0.817283  0  2.083551  0  0  -0.596476  -0.775161  0  2.137849  0
O  O102  1  0.04277113  0.58798082  0.37972186  1  0  -0.603281  0  1.954766  0  0  -0.539976  0  2.164359  0  0  -0.562212  0  2.154791  0  0  -0.293812  -0.524656  0  2.170745  0
O  O103  1  0.95723975  0.41201319  0.87972443  1  0  -0.603499  0  1.95434  0  0  -0.540136  0  2.163862  0  0  -0.562402  0  2.15431  0  0  -0.29386  -0.524817  0  2.170283  0
O  O104  1  0.81208950  0.91302184  0.29349089  1  0  -0.764308  0  1.999413  0  0  -0.69077  0  2.260384  0  0  -0.715406  0  2.241605  0  0  -0.361869  -0.673306  0  2.272892  0
O  O105  1  0.18791337  0.08697181  0.79348608  1  0  -0.764251  0  1.999543  0  0  -0.69071  0  2.260597  0  0  -0.71535  0  2.241821  0  0  -0.361844  -0.673248  0  2.273098  0
O  O106  1  0.38280443  0.78450191  0.38272147  1  0  -0.808894  0  1.848166  0  0  -0.754351  0  2.039691  0  0  -0.77504  0  2.012424  0  0  -0.57107  -0.740092  0  2.058866  0
O  O107  1  0.61719883  0.21550034  0.88272132  1  0  -0.808895  0  1.848138  0  0  -0.754345  0  2.039652  0  0  -0.775035  0  2.012379  0  0  -0.571027  -0.740081  0  2.05883  0
O  O108  1  0.71655680  0.09461715  0.36902904  1  0  -0.742415  0  1.994647  0  0  -0.679006  0  2.238193  0  0  -0.700623  0  2.221159  0  0  -0.358284  -0.663807  0  2.249624  0
O  O109  1  0.28343325  0.90537132  0.86901883  1  0  -0.742249  0  1.994783  0  0  -0.678776  0  2.238316  0  0  -0.700389  0  2.221275  0  0  -0.358141  -0.663576  0  2.24973  0
O  O110  1  0.04521026  0.13195408  0.30698729  1  0  -0.753385  0  1.958331  0  0  -0.68841  0  2.19461  0  0  -0.709682  0  2.175979  0  0  -0.364804  -0.673721  0  2.207321  0
O  O111  1  0.95478977  0.86804286  0.80697649  1  0  -0.753242  0  1.95859  0  0  -0.688159  0  2.194834  0  0  -0.709424  0  2.176208  0  0  -0.364735  -0.673472  0  2.207548  0
O  O112  1  0.99441495  0.96696570  0.40262314  1  0  -0.694523  0  1.917882  0  0  -0.643872  0  2.154464  0  0  -0.663809  0  2.137189  0  0  -0.358832  -0.629739  0  2.165963  0
O  O113  1  0.00556968  0.03302427  0.90261516  1  0  -0.694508  0  1.917987  0  0  -0.643801  0  2.154575  0  0  -0.663739  0  2.137309  0  0  -0.358849  -0.629678  0  2.166077  0
