# generated using pymatgen
data_CaCuH27C19(NO2)5
_symmetry_space_group_name_H-M   'P 1'
_cell_length_a   8.49458710
_cell_length_b   16.87590526
_cell_length_c   18.71455493
_cell_angle_alpha   90.00007152
_cell_angle_beta   89.99981430
_cell_angle_gamma   102.22465459
_symmetry_Int_Tables_number   1
_chemical_formula_structural   CaCuH27C19(NO2)5
_chemical_formula_sum   'Ca4 Cu4 H108 C76 N20 O40'
_cell_volume   2621.97052945
_cell_formula_units_Z   4
loop_
 _symmetry_equiv_pos_site_id
 _symmetry_equiv_pos_as_xyz
  1  'x, y, z'
loop_
 _atom_site_type_symbol
 _atom_site_label
 _atom_site_symmetry_multiplicity
 _atom_site_fract_x
 _atom_site_fract_y
 _atom_site_fract_z
 _atom_site_occupancy
 _atom_site_pbe_bader_charge
 _atom_site_pbe_bader_spin_density
 _atom_site_pbe_cm5_charge
 _atom_site_pbe_ddec_charge
 _atom_site_pbe_ddec_spin_density
 _atom_site_pbe_ddec_sum_bond_order
 _atom_site_pbe_magmom
Ca  Ca0  1  0.55468708  0.11724626  0.03431199  1  1.634773  4.7e-05  0.864631  1.338341  2e-05  1.553882  0.0
Ca  Ca1  1  0.05468254  0.61724773  0.46568651  1  1.634743  4.7e-05  0.864652  1.338375  2e-05  1.553839  0.0
Ca  Ca2  1  0.44531104  0.88274944  0.96568383  1  1.6347  4.7e-05  0.864689  1.338371  2e-05  1.553853  0.0
Ca  Ca3  1  0.94531761  0.38275525  0.53431359  1  1.634699  4.7e-05  0.864663  1.338439  2e-05  1.553764  0.0
Cu  Cu4  1  0.90386991  0.20249785  0.82910814  1  0.971104  0.523892  0.751692  0.572669  0.691594  2.280576  0.522
Cu  Cu5  1  0.40387393  0.70249788  0.67089182  1  0.971091  0.523905  0.751688  0.572583  0.691615  2.280711  0.522
Cu  Cu6  1  0.09612864  0.79750150  0.17089089  1  0.971177  0.5239  0.75168  0.572604  0.691602  2.280598  0.522
Cu  Cu7  1  0.59612371  0.29750208  0.32910561  1  0.971014  0.523897  0.75165  0.572664  0.691607  2.280458  0.522
H  H8  1  0.00398259  0.10461307  0.70779888  1  0.076639  0.000671  0.111968  0.100584  0.000254  0.976818  0.001
H  H9  1  0.50398381  0.60461109  0.79220529  1  0.077515  0.00067  0.111962  0.100552  0.000254  0.976786  0.001
H  H10  1  0.99601324  0.89538811  0.29220175  1  0.076608  0.000671  0.111944  0.100549  0.000254  0.976794  0.001
H  H11  1  0.49601501  0.39538886  0.20779641  1  0.076619  0.000671  0.111969  0.100568  0.000254  0.976768  0.001
H  H12  1  0.88607367  0.00452091  0.71864375  1  0.020588  0.007947  0.100729  0.079347  0.004185  0.970717  0.004
H  H13  1  0.38607377  0.50451920  0.78135761  1  0.020538  0.007947  0.100699  0.079275  0.004186  0.970814  0.004
H  H14  1  0.11392162  0.99547906  0.28135688  1  0.020592  0.007948  0.100726  0.079336  0.004186  0.970728  0.004
H  H15  1  0.61392739  0.49548074  0.21864248  1  0.020532  0.007946  0.10071  0.079321  0.004185  0.970755  0.004
H  H16  1  0.13451331  0.00531067  0.77556844  1  0.050639  -4e-05  0.098741  0.102423  -8.1e-05  0.973818  0.0
H  H17  1  0.63451201  0.50530987  0.72443169  1  0.050629  -4e-05  0.098754  0.102462  -8.1e-05  0.973825  0.0
H  H18  1  0.86548460  0.99468989  0.22443059  1  0.050364  -4e-05  0.098739  0.10241  -8.1e-05  0.97373  0.0
H  H19  1  0.36549167  0.49469309  0.27556948  1  0.050605  -4e-05  0.098753  0.102466  -8.1e-05  0.973756  0.0
H  H20  1  0.00056069  0.00407020  0.84580051  1  0.088019  -3.6e-05  0.103957  0.114521  -4.1e-05  1.031789  0.0
H  H21  1  0.50055806  0.50407058  0.65420035  1  0.088016  -3.6e-05  0.103939  0.114524  -4.1e-05  1.031747  0.0
H  H22  1  0.99943390  0.99592552  0.15420226  1  0.088142  -3.6e-05  0.103972  0.114577  -4.1e-05  1.031714  0.0
H  H23  1  0.49944166  0.49592876  0.34579975  1  0.087987  -3.6e-05  0.10397  0.114552  -4.1e-05  1.031753  0.0
H  H24  1  0.27829971  0.09794713  0.85867964  1  0.069144  0.008437  0.107697  0.091026  0.004456  1.008077  0.006
H  H25  1  0.77830224  0.59794565  0.64132252  1  0.069117  0.008436  0.107708  0.091045  0.004455  1.008137  0.006
H  H26  1  0.72169622  0.90205162  0.14132207  1  0.069106  0.008435  0.107714  0.091039  0.004455  1.008093  0.006
H  H27  1  0.22169684  0.40205491  0.35867597  1  0.069095  0.008435  0.107744  0.091074  0.004455  1.008081  0.006
H  H28  1  0.22612492  0.15624578  0.78604907  1  0.034309  0.000974  0.107622  0.088634  0.000399  0.995685  0.001
H  H29  1  0.72612449  0.65624679  0.71395270  1  0.034461  0.000974  0.107622  0.088656  0.000399  0.995671  0.001
H  H30  1  0.77387571  0.84375294  0.21394889  1  0.034368  0.000974  0.107615  0.088598  0.000399  0.99572  0.001
H  H31  1  0.27388062  0.34375677  0.28604954  1  0.034532  0.000974  0.10763  0.088646  0.000399  0.995729  0.001
H  H32  1  0.30458099  0.23945141  0.93800779  1  0.118469  0.003326  0.123684  0.129354  0.001801  0.980445  0.002
H  H33  1  0.80458434  0.73945048  0.56199128  1  0.118505  0.003326  0.123735  0.129396  0.001801  0.980467  0.002
H  H34  1  0.69541937  0.76054671  0.06198857  1  0.118418  0.003326  0.123718  0.129403  0.001801  0.980447  0.002
H  H35  1  0.19541672  0.26055188  0.43800935  1  0.118474  0.003326  0.123718  0.129405  0.001801  0.98046  0.002
H  H36  1  0.29651203  0.26015899  0.84546647  1  0.083916  -3e-06  0.119469  0.109228  -0.000129  0.991917  0.0
H  H37  1  0.79651628  0.76015629  0.65453318  1  0.083888  -3e-06  0.119486  0.109229  -0.00013  0.991901  0.0
H  H38  1  0.70347830  0.73984040  0.15453149  1  0.083968  -3e-06  0.119449  0.10921  -0.00013  0.9918  0.0
H  H39  1  0.20348227  0.23984306  0.34546586  1  0.0839  -2e-06  0.11947  0.109237  -0.000129  0.991855  0.0
H  H40  1  0.69068114  0.38772181  0.82887115  1  0.049077  0.003518  0.104259  0.089129  0.001893  0.971045  0.002
H  H41  1  0.19068649  0.88772486  0.67113040  1  0.048899  0.003518  0.104254  0.089116  0.001893  0.971058  0.002
H  H42  1  0.30932002  0.61227813  0.17113109  1  0.049058  0.003517  0.104249  0.089113  0.001893  0.971047  0.002
H  H43  1  0.80931430  0.11227690  0.32886970  1  0.048912  0.003518  0.104276  0.089141  0.001893  0.971053  0.002
H  H44  1  0.66289525  0.30475511  0.88986856  1  0.126668  0.000325  0.122279  0.123658  4.4e-05  0.99884  0.0
H  H45  1  0.16289382  0.80475513  0.61012972  1  0.126637  0.000325  0.122282  0.123666  4.4e-05  0.998813  0.0
H  H46  1  0.33710628  0.69524300  0.11013047  1  0.126646  0.000325  0.122295  0.123641  4.4e-05  0.998858  0.0
H  H47  1  0.83710030  0.19524485  0.38986931  1  0.126695  0.000325  0.122296  0.123667  4.4e-05  0.998842  0.0
H  H48  1  0.49378740  0.26298513  0.75922543  1  0.020289  0.006346  0.101853  0.082972  0.003311  0.963029  0.004
H  H49  1  0.99378732  0.76298737  0.74077553  1  0.020189  0.006346  0.101849  0.08295  0.003311  0.963013  0.004
H  H50  1  0.50621574  0.73701662  0.24077467  1  0.020208  0.006346  0.101843  0.082939  0.003311  0.963057  0.004
H  H51  1  0.00621085  0.23701380  0.25922831  1  0.020137  0.006346  0.101842  0.083011  0.003311  0.963074  0.004
H  H52  1  0.53907036  0.20315165  0.83189394  1  0.068907  0.000346  0.109154  0.088032  0.000101  1.029273  0.0
H  H53  1  0.03907088  0.70315169  0.66810549  1  0.068915  0.000346  0.109171  0.088048  0.000101  1.029226  0.0
H  H54  1  0.46093395  0.79685009  0.16810509  1  0.069168  0.000346  0.109158  0.08798  0.000101  1.029244  0.0
H  H55  1  0.96092153  0.29684708  0.33189622  1  0.06885  0.000346  0.109165  0.088045  0.000101  1.029288  0.0
H  H56  1  0.53298276  0.16977978  0.67343009  1  0.084456  -0.000118  0.103237  0.110675  -0.000131  0.976888  0.0
H  H57  1  0.03297801  0.66978117  0.82656983  1  0.084434  -0.000118  0.103209  0.110692  -0.000131  0.976816  0.0
H  H58  1  0.46702444  0.83022316  0.32656840  1  0.084497  -0.000118  0.10323  0.110721  -0.000131  0.976848  0.0
H  H59  1  0.96703036  0.33022177  0.17343401  1  0.084533  -0.000118  0.103209  0.110693  -0.000131  0.976804  0.0
H  H60  1  0.46889159  0.10504108  0.74612593  1  0.028316  0.00019  0.093828  0.090564  0.000105  0.994489  0.0
H  H61  1  0.96889441  0.60504210  0.75387382  1  0.028261  0.00019  0.09383  0.090543  0.000105  0.994562  0.0
H  H62  1  0.53110594  0.89496131  0.25387257  1  0.028191  0.00019  0.093842  0.09062  0.000105  0.994543  0.0
H  H63  1  0.03110611  0.39495905  0.24613055  1  0.02844  0.00019  0.093844  0.090575  0.000105  0.994503  0.0
H  H64  1  0.68116346  0.06463686  0.68030960  1  0.070409  0.005968  0.097991  0.071763  0.003155  1.017833  0.003
H  H65  1  0.18116282  0.56463944  0.81969587  1  0.07039  0.005968  0.097965  0.071737  0.003155  1.017838  0.003
H  H66  1  0.31883680  0.93536369  0.31969103  1  0.070378  0.005968  0.097987  0.071755  0.003155  1.017808  0.003
H  H67  1  0.81884096  0.43536109  0.18030690  1  0.070379  0.005967  0.098012  0.071798  0.003155  1.017832  0.003
H  H68  1  0.80689130  0.16205553  0.68294762  1  0.088063  0.000623  0.111227  0.092858  0.000195  1.012756  0.0
H  H69  1  0.30689004  0.66205932  0.81705725  1  0.088012  0.000623  0.111193  0.092818  0.000195  1.012831  0.0
H  H70  1  0.19311536  0.83794620  0.31705622  1  0.088111  0.000623  0.111193  0.092812  0.000195  1.01279  0.0
H  H71  1  0.69311545  0.33794242  0.18294339  1  0.088066  0.000623  0.111218  0.092834  0.000195  1.012833  0.0
H  H72  1  0.33458469  0.39812074  0.95681675  1  0.094314  0.001797  0.114741  0.129444  0.000928  0.977827  0.001
H  H73  1  0.83459116  0.89811857  0.54318353  1  0.094549  0.001797  0.114746  0.129503  0.000928  0.977839  0.001
H  H74  1  0.66541792  0.60187979  0.04317908  1  0.094308  0.001797  0.114721  0.129493  0.000928  0.977794  0.001
H  H75  1  0.16541369  0.10188438  0.45682245  1  0.094255  0.001797  0.114739  0.129468  0.000928  0.977804  0.001
H  H76  1  0.18623384  0.51250322  0.95322880  1  0.163798  5e-06  0.109716  0.117131  -1.6e-05  1.043892  0.0
H  H77  1  0.68623776  0.01250054  0.54676752  1  0.163813  5e-06  0.109743  0.117194  -1.6e-05  1.043802  0.0
H  H78  1  0.81376876  0.48749732  0.04676756  1  0.163777  5e-06  0.109735  0.117173  -1.6e-05  1.043835  0.0
H  H79  1  0.31376619  0.98750303  0.45323739  1  0.163806  5e-06  0.109734  0.117215  -1.6e-05  1.043769  0.0
H  H80  1  0.91053638  0.48854949  0.90042818  1  0.081632  0.00185  0.113014  0.124198  0.000946  0.979399  0.001
H  H81  1  0.41054154  0.98854825  0.59956728  1  0.081741  0.00185  0.11298  0.124115  0.000946  0.979534  0.001
H  H82  1  0.08946243  0.51145046  0.09956871  1  0.081662  0.00185  0.11298  0.124143  0.000946  0.979419  0.001
H  H83  1  0.58946080  0.01145168  0.40043496  1  0.081703  0.00185  0.113001  0.124137  0.000946  0.979507  0.001
H  H84  1  0.59647283  0.00321255  0.79322548  1  0.053017  0.003807  0.118172  0.120555  0.001951  0.97348  0.002
H  H85  1  0.09646764  0.50321629  0.70677897  1  0.052873  0.003806  0.118152  0.120522  0.001951  0.973488  0.002
H  H86  1  0.40353180  0.99678190  0.20677248  1  0.053057  0.003806  0.11818  0.120556  0.00195  0.973496  0.002
H  H87  1  0.90353507  0.49678181  0.29322433  1  0.052967  0.003806  0.118154  0.120526  0.001951  0.973499  0.002
H  H88  1  0.76501167  0.98904442  0.84099248  1  0.124951  0.000397  0.129447  0.139718  0.000173  0.994379  0.0
H  H89  1  0.26500599  0.48904883  0.65900907  1  0.12499  0.000397  0.129474  0.139754  0.000173  0.994394  0.0
H  H90  1  0.23498960  0.01095309  0.15900709  1  0.125025  0.000397  0.129453  0.139732  0.000173  0.994337  0.0
H  H91  1  0.73499534  0.51095415  0.34099103  1  0.124942  0.000397  0.129428  0.139704  0.000173  0.994343  0.0
H  H92  1  0.94803668  0.07513517  0.93520353  1  0.099006  0.000711  0.119327  0.121318  0.000202  1.019167  0.0
H  H93  1  0.44803439  0.57513516  0.56479729  1  0.098968  0.000711  0.11934  0.121415  0.000202  1.019084  0.0
H  H94  1  0.05195717  0.92486420  0.06479390  1  0.099009  0.000712  0.119364  0.12134  0.000202  1.01917  0.0
H  H95  1  0.55196785  0.42486720  0.43520334  1  0.099157  0.000712  0.119311  0.121417  0.000202  1.019091  0.0
H  H96  1  0.97330299  0.17133904  0.97456063  1  0.107182  0.001151  0.120861  0.124966  0.000452  1.004577  0.001
H  H97  1  0.47330214  0.67133900  0.52544026  1  0.107201  0.001151  0.120868  0.124955  0.000452  1.004627  0.001
H  H98  1  0.02669871  0.82866211  0.02543840  1  0.107181  0.001151  0.120881  0.124954  0.000452  1.004586  0.001
H  H99  1  0.52670073  0.32866214  0.47456038  1  0.107204  0.001151  0.120877  0.124987  0.000452  1.004586  0.001
H  H100  1  0.81206748  0.38291363  0.72402753  1  0.046116  0.004045  0.110469  0.10522  0.002083  0.995536  0.002
H  H101  1  0.31205993  0.88291318  0.77597277  1  0.046191  0.004045  0.110504  0.105256  0.002083  0.995537  0.002
H  H102  1  0.18794063  0.61708870  0.27597311  1  0.04623  0.004045  0.11049  0.105231  0.002083  0.995603  0.002
H  H103  1  0.68795298  0.11708669  0.22402466  1  0.046156  0.004046  0.110492  0.105233  0.002084  0.995564  0.002
H  H104  1  0.72880323  0.29482915  0.67611510  1  0.124953  0.001085  0.124575  0.134289  0.000504  1.006465  0.001
H  H105  1  0.22881163  0.79482561  0.82388255  1  0.124935  0.001085  0.124523  0.134239  0.000504  1.006507  0.001
H  H106  1  0.27119655  0.70517565  0.32388393  1  0.124914  0.001085  0.124564  0.134303  0.000504  1.006445  0.001
H  H107  1  0.77119333  0.20517492  0.17611542  1  0.124902  0.001085  0.124555  0.134233  0.000504  1.006529  0.001
H  H108  1  0.89071750  0.07017237  0.06859199  1  0.620526  9e-06  0.287056  0.381568  4e-06  0.961767  0.0
H  H109  1  0.39071357  0.57017200  0.43140650  1  0.620534  9e-06  0.287058  0.38157  4e-06  0.961732  0.0
H  H110  1  0.10927032  0.92982399  0.93140651  1  0.621184  9e-06  0.287119  0.381696  4e-06  0.961562  0.0
H  H111  1  0.60928722  0.42982977  0.56859413  1  0.620533  9e-06  0.287044  0.381577  4e-06  0.961734  0.0
H  H112  1  0.73566587  0.00004940  0.05830809  1  0.598139  3.4e-05  0.300728  0.372365  4.1e-05  0.973396  0.0
H  H113  1  0.23566203  0.50005207  0.44169322  1  0.598145  3.4e-05  0.300759  0.372428  4.1e-05  0.97331  0.0
H  H114  1  0.26432494  0.99994573  0.94169682  1  0.598211  3.4e-05  0.300709  0.372402  4.1e-05  0.973345  0.0
H  H115  1  0.76433993  0.49994969  0.55830528  1  0.598112  3.4e-05  0.300743  0.372384  4.1e-05  0.973377  0.0
C  C116  1  0.94119547  0.06088519  0.74729844  1  0.242816  -6.6e-05  -0.072322  -0.071422  -0.000476  3.879539  -0.001
C  C117  1  0.44119865  0.56088466  0.75270397  1  0.24191  -6.5e-05  -0.072331  -0.071349  -0.000476  3.879528  -0.001
C  C118  1  0.05879865  0.93911479  0.25270219  1  0.242799  -6.6e-05  -0.072293  -0.071374  -0.000476  3.87952  -0.001
C  C119  1  0.55880422  0.43911648  0.24729666  1  0.242834  -6.6e-05  -0.072315  -0.071417  -0.000476  3.879498  -0.001
C  C120  1  0.06069114  0.04276991  0.80242195  1  -0.034586  0.002951  -0.165379  -0.201127  0.001831  3.947091  0.003
C  C121  1  0.56069291  0.54277029  0.69757887  1  -0.034572  0.002951  -0.165365  -0.201167  0.00183  3.947143  0.003
C  C122  1  0.93930282  0.95722703  0.19757922  1  -0.034379  0.002951  -0.165401  -0.201174  0.00183  3.947032  0.003
C  C123  1  0.43930906  0.45723147  0.30242070  1  -0.034595  0.002951  -0.165384  -0.201156  0.00183  3.947063  0.003
C  C124  1  0.17774432  0.11687466  0.83118828  1  0.254299  0.000438  -0.074345  -0.079621  -2.7e-05  3.87847  -0.001
C  C125  1  0.67774655  0.61687562  0.66881191  1  0.254099  0.000437  -0.07434  -0.079675  -2.7e-05  3.878652  -0.001
C  C126  1  0.82225279  0.88312409  0.16881021  1  0.254185  0.000437  -0.074327  -0.07956  -2.7e-05  3.878525  -0.001
C  C127  1  0.32225504  0.38312796  0.33118819  1  0.254062  0.000437  -0.074394  -0.079735  -2.7e-05  3.878724  -0.001
C  C128  1  0.22258872  0.24580597  0.89390047  1  0.249442  0.003345  -0.058174  -0.165664  0.002634  3.8713  0.001
C  C129  1  0.72259278  0.74580203  0.60609873  1  0.249402  0.003344  -0.058252  -0.165691  0.002633  3.871295  0.001
C  C130  1  0.77740918  0.75419459  0.10609695  1  0.249435  0.003343  -0.058233  -0.165677  0.002633  3.871209  0.001
C  C131  1  0.27740657  0.25419914  0.39390137  1  0.248993  0.003345  -0.058212  -0.165701  0.002633  3.871187  0.001
C  C132  1  0.14026671  0.31510684  0.90505286  1  0.534496  0.000221  0.131906  0.263889  -0.000443  3.938828  0.0
C  C133  1  0.64027821  0.81510893  0.59494815  1  0.53403  0.000222  0.131969  0.264093  -0.000442  3.938561  0.0
C  C134  1  0.85972543  0.68489133  0.09494671  1  0.534247  0.000219  0.131939  0.263895  -0.000443  3.938775  0.0
C  C135  1  0.35972285  0.18489344  0.40505623  1  0.533949  0.000221  0.13191  0.264009  -0.000442  3.938751  0.0
C  C136  1  0.90765769  0.36302490  0.87656540  1  0.515613  0.000558  0.124092  0.249265  7.8e-05  3.939175  0.0
C  C137  1  0.40766358  0.86302307  0.62343419  1  0.514086  0.00056  0.124048  0.249086  7.8e-05  3.93943  0.0
C  C138  1  0.09234140  0.63697565  0.12343470  1  0.51564  0.000556  0.12408  0.249201  7.7e-05  3.939115  0.0
C  C139  1  0.59233497  0.13697628  0.37656698  1  0.513966  0.000561  0.124007  0.249063  7.8e-05  3.93947  0.0
C  C140  1  0.74060155  0.33565299  0.84667327  1  0.240913  0.002348  -0.058687  -0.158142  0.001692  3.892984  0.001
C  C141  1  0.24060073  0.83565242  0.65332761  1  0.241197  0.002348  -0.058673  -0.158089  0.001693  3.892941  0.001
C  C142  1  0.25940132  0.66434815  0.15332843  1  0.241021  0.002348  -0.058647  -0.158047  0.001692  3.892864  0.001
C  C143  1  0.75939665  0.16434693  0.34667196  1  0.241133  0.002347  -0.0587  -0.158108  0.001692  3.892969  0.001
C  C144  1  0.57775056  0.22562469  0.77845583  1  0.293229  -0.000174  -0.072651  -0.081324  -0.000359  3.887477  -0.001
C  C145  1  0.07775097  0.72562538  0.72154516  1  0.293307  -0.000175  -0.072674  -0.081311  -0.000359  3.887431  -0.001
C  C146  1  0.42225429  0.77437827  0.22154480  1  0.293005  -0.000175  -0.072578  -0.081141  -0.000359  3.887311  -0.001
C  C147  1  0.92224982  0.27437639  0.27845601  1  0.293405  -0.000175  -0.072672  -0.081452  -0.000359  3.88762  -0.001
C  C148  1  0.56824294  0.15339219  0.72713532  1  -0.055886  0.002048  -0.161907  -0.183548  0.001297  3.907239  0.002
C  C149  1  0.06824236  0.65339413  0.77286507  1  -0.055821  0.002048  -0.161875  -0.18351  0.001297  3.907198  0.002
C  C150  1  0.43175876  0.84660896  0.27286425  1  -0.055823  0.002048  -0.161932  -0.183698  0.001297  3.907347  0.002
C  C151  1  0.93175843  0.34660764  0.22713716  1  -0.056117  0.002048  -0.161875  -0.183511  0.001297  3.907186  0.002
C  C152  1  0.71833285  0.11908202  0.71399942  1  0.204786  -0.000281  -0.076748  -0.081832  -0.000623  3.887407  -0.001
C  C153  1  0.21833362  0.61908457  0.78600499  1  0.205126  -0.000281  -0.076717  -0.081822  -0.000623  3.887205  -0.001
C  C154  1  0.28166741  0.88091853  0.28600281  1  0.204675  -0.000281  -0.076757  -0.081829  -0.000622  3.887325  -0.001
C  C155  1  0.78166573  0.38091659  0.21399618  1  0.205174  -0.000281  -0.076788  -0.081937  -0.000623  3.887428  -0.001
C  C156  1  0.21388322  0.38983720  0.93415212  1  -0.086695  0.004227  -0.082372  -0.180264  0.003048  3.929084  0.003
C  C157  1  0.71388654  0.88983627  0.56584886  1  -0.086504  0.004225  -0.082385  -0.180445  0.003048  3.929312  0.003
C  C158  1  0.78612003  0.61016212  0.06584424  1  -0.086456  0.004226  -0.082392  -0.180418  0.003049  3.92915  0.003
C  C159  1  0.28612119  0.11016788  0.43415819  1  -0.086237  0.004225  -0.082442  -0.180466  0.003048  3.929205  0.003
C  C160  1  0.13089717  0.45283044  0.93232743  1  0.010909  -0.001945  -0.065409  -0.01926  -0.002325  3.962239  -0.001
C  C161  1  0.63090229  0.95282829  0.56767053  1  0.010723  -0.001946  -0.065457  -0.019338  -0.002326  3.962059  -0.001
C  C162  1  0.86910517  0.54716949  0.06767053  1  0.010947  -0.001947  -0.065382  -0.019223  -0.002327  3.962059  -0.001
C  C163  1  0.36910357  0.04717162  0.43233438  1  0.010816  -0.001947  -0.065305  -0.019193  -0.002326  3.961858  -0.001
C  C164  1  0.97658328  0.43981717  0.90240945  1  -0.05737  0.004385  -0.081337  -0.171277  0.003206  3.940799  0.003
C  C165  1  0.47657942  0.93981416  0.59758906  1  -0.057365  0.004385  -0.081301  -0.171108  0.003206  3.940693  0.003
C  C166  1  0.02342221  0.56018456  0.09758958  1  -0.057412  0.004386  -0.081324  -0.171236  0.003206  3.940704  0.003
C  C167  1  0.52342110  0.06018700  0.40241264  1  -0.057412  0.004385  -0.081327  -0.171158  0.003205  3.940951  0.003
C  C168  1  0.70185274  0.03604433  0.82312996  1  0.219692  0.001366  -0.068692  -0.234076  0.001508  3.846681  0.0
C  C169  1  0.20184892  0.53604805  0.67687332  1  0.21936  0.001367  -0.068605  -0.233801  0.001507  3.846525  0.0
C  C170  1  0.29814447  0.96395198  0.17687228  1  0.219196  0.001367  -0.0686  -0.233808  0.001507  3.846437  0.0
C  C171  1  0.79814962  0.46395129  0.32312785  1  0.219691  0.001365  -0.068553  -0.233805  0.001507  3.846611  0.0
C  C172  1  0.64488371  0.07049637  0.89111667  1  1.593641  0.002106  0.212724  0.611154  0.001496  4.19323  0.002
C  C173  1  0.14488704  0.57050183  0.60888725  1  1.594319  0.002105  0.212613  0.610871  0.001496  4.193548  0.002
C  C174  1  0.35510640  0.92949452  0.10888503  1  1.594329  0.002106  0.212633  0.610938  0.001496  4.193378  0.002
C  C175  1  0.85511124  0.42949691  0.39111338  1  1.594268  0.002105  0.212662  0.611011  0.001496  4.193451  0.002
C  C176  1  0.03836500  0.13011653  0.94767046  1  0.214551  -0.000548  -0.080057  -0.264174  -0.00064  3.872206  -0.002
C  C177  1  0.53836435  0.63011440  0.55232835  1  0.214045  -0.000546  -0.080113  -0.264312  -0.00064  3.872281  -0.002
C  C178  1  0.96162939  0.86988406  0.05232644  1  0.214353  -0.000545  -0.080123  -0.264211  -0.00064  3.872332  -0.002
C  C179  1  0.46163617  0.36988676  0.44767122  1  0.214006  -0.000546  -0.080115  -0.264432  -0.00064  3.87242  -0.002
C  C180  1  0.15354264  0.10434060  0.00206251  1  1.596196  0.004653  0.221428  0.629561  0.00327  4.168895  0.004
C  C181  1  0.65353720  0.60433756  0.49793636  1  1.596665  0.004651  0.221394  0.629561  0.00327  4.169032  0.004
C  C182  1  0.84645698  0.89566117  0.99793492  1  1.596605  0.004652  0.221425  0.629589  0.00327  4.168866  0.004
C  C183  1  0.34646701  0.39566662  0.50206320  1  1.596754  0.004652  0.221415  0.629613  0.00327  4.169017  0.004
C  C184  1  0.80842132  0.31737810  0.72128578  1  0.214231  0.001468  -0.076029  -0.254996  0.00127  3.866923  0.0
C  C185  1  0.30843137  0.81737756  0.77871498  1  0.214159  0.001468  -0.076064  -0.255019  0.00127  3.867058  0.0
C  C186  1  0.19157974  0.68262426  0.27871379  1  0.214446  0.001467  -0.076072  -0.255087  0.00127  3.867139  0.0
C  C187  1  0.69157892  0.18262172  0.22128512  1  0.214206  0.001468  -0.076003  -0.25492  0.00127  3.866986  0.0
C  C188  1  0.97829003  0.30665957  0.69851193  1  1.63085  0.002769  0.198556  0.612802  0.001725  4.228153  0.002
C  C189  1  0.47829234  0.80665786  0.80149124  1  1.630768  0.002768  0.198651  0.612804  0.001724  4.228004  0.002
C  C190  1  0.02171231  0.69334036  0.30148871  1  1.630404  0.00277  0.198571  0.612764  0.001724  4.228053  0.002
C  C191  1  0.52171165  0.19333781  0.19850832  1  1.630866  0.002769  0.198669  0.612926  0.001725  4.227996  0.002
N  N192  1  0.80758149  0.09618537  0.77679646  1  -0.96372  0.082738  -0.353513  -0.070699  0.056265  3.477401  0.072
N  N193  1  0.30758333  0.59618665  0.72320726  1  -0.96372  0.082738  -0.35353  -0.070764  0.056267  3.477165  0.072
N  N194  1  0.19241300  0.90381279  0.22320631  1  -0.963482  0.082737  -0.353514  -0.070744  0.056266  3.47734  0.072
N  N195  1  0.69241693  0.40381390  0.27679391  1  -0.964129  0.082734  -0.353563  -0.070743  0.056263  3.477425  0.072
N  N196  1  0.10535661  0.16864777  0.88007064  1  -0.976906  0.110453  -0.333313  -0.041557  0.074172  3.475443  0.095
N  N197  1  0.60535785  0.66864568  0.61992758  1  -0.976745  0.110445  -0.333327  -0.041586  0.074167  3.475521  0.095
N  N198  1  0.89463777  0.83135281  0.11992518  1  -0.977073  0.110445  -0.333316  -0.041597  0.074168  3.475412  0.095
N  N199  1  0.39464294  0.33135609  0.38007306  1  -0.97633  0.110451  -0.333298  -0.041482  0.074171  3.475425  0.095
N  N200  1  0.99039738  0.30341559  0.87873688  1  -1.239623  0.088231  -0.356618  -0.27733  0.059543  3.587286  0.074
N  N201  1  0.49040239  0.80341437  0.62126360  1  -1.238041  0.088232  -0.356602  -0.277293  0.059545  3.587344  0.074
N  N202  1  0.00959828  0.69658255  0.12126429  1  -1.239703  0.088237  -0.356614  -0.277231  0.059546  3.587249  0.074
N  N203  1  0.50959579  0.19658680  0.37873704  1  -1.237937  0.088233  -0.35655  -0.277263  0.059545  3.587206  0.074
N  N204  1  0.74025367  0.27678636  0.78782439  1  -1.017577  0.087144  -0.335581  -0.055419  0.0588  3.492398  0.075
N  N205  1  0.24025922  0.77678519  0.71217642  1  -1.017556  0.087142  -0.335571  -0.055489  0.058799  3.492473  0.075
N  N206  1  0.25974974  0.72321599  0.21217625  1  -1.017384  0.087133  -0.335653  -0.055483  0.058794  3.492476  0.075
N  N207  1  0.75974403  0.22321413  0.28782314  1  -1.017561  0.087144  -0.335619  -0.055488  0.0588  3.492397  0.075
N  N208  1  0.71757279  0.29001588  0.03429434  1  0.813759  5.5e-05  0.084601  0.720146  1.4e-05  4.429376  0.0
N  N209  1  0.21757450  0.79001549  0.46570519  1  0.813827  5.5e-05  0.084642  0.720298  1.4e-05  4.429453  0.0
N  N210  1  0.28243099  0.70998466  0.96570416  1  0.813849  5.5e-05  0.084624  0.720237  1.4e-05  4.429488  0.0
N  N211  1  0.78243425  0.20998562  0.53429438  1  0.813987  5.5e-05  0.084687  0.720336  1.4e-05  4.429427  0.0
O  O212  1  0.55097123  0.02121878  0.93089484  1  -1.233256  0.001941  -0.374224  -0.619075  0.001177  2.314811  0.001
O  O213  1  0.05097554  0.52122847  0.56910703  1  -1.233361  0.001941  -0.374245  -0.61902  0.001177  2.314847  0.001
O  O214  1  0.44901465  0.97876787  0.06910045  1  -1.233356  0.001942  -0.37428  -0.619137  0.001178  2.314938  0.001
O  O215  1  0.94901741  0.47877151  0.43089574  1  -1.233474  0.001941  -0.374299  -0.619129  0.001177  2.314778  0.001
O  O216  1  0.69520548  0.14467720  0.90727950  1  -1.194201  0.00265  -0.328482  -0.594681  0.001502  2.282393  0.003
O  O217  1  0.19520737  0.64468448  0.59272604  1  -1.194432  0.00265  -0.328341  -0.59452  0.001502  2.282459  0.003
O  O218  1  0.30478372  0.85531429  0.09272167  1  -1.194502  0.002652  -0.328369  -0.594544  0.001504  2.282404  0.003
O  O219  1  0.80478883  0.35531487  0.40727619  1  -1.194417  0.002651  -0.328343  -0.594561  0.001503  2.2824  0.003
O  O220  1  0.09091604  0.07883172  0.06101345  1  -1.179623  0.005511  -0.309979  -0.5488  0.003416  2.162158  0.004
O  O221  1  0.59091443  0.57883106  0.43898709  1  -1.179679  0.005509  -0.309905  -0.548706  0.003415  2.162274  0.004
O  O222  1  0.90907887  0.92115670  0.93897970  1  -1.179701  0.005511  -0.310034  -0.54882  0.003416  2.161969  0.004
O  O223  1  0.40909154  0.42116643  0.56101568  1  -1.179745  0.005511  -0.31  -0.548783  0.003416  2.16212  0.004
O  O224  1  0.29883139  0.10721003  0.98315547  1  -1.224206  0.001078  -0.372072  -0.626768  0.000566  2.261223  0.001
O  O225  1  0.79883062  0.60720971  0.51684347  1  -1.224158  0.001077  -0.372075  -0.6268  0.000565  2.261123  0.001
O  O226  1  0.70116913  0.89279112  0.01684196  1  -1.22419  0.001077  -0.371983  -0.62673  0.000566  2.261147  0.001
O  O227  1  0.20117610  0.39279749  0.48315877  1  -1.224128  0.001077  -0.372002  -0.626807  0.000566  2.261309  0.001
O  O228  1  0.03384444  0.34869890  0.64472990  1  -1.217893  0.001701  -0.388676  -0.6236  0.000996  2.233701  0.001
O  O229  1  0.53385142  0.84870299  0.85526862  1  -1.21787  0.001701  -0.388752  -0.623596  0.000995  2.23378  0.001
O  O230  1  0.96614941  0.65130047  0.35526806  1  -1.217848  0.001701  -0.388726  -0.623571  0.000996  2.23368  0.001
O  O231  1  0.46615241  0.15128964  0.14473148  1  -1.218007  0.001702  -0.388841  -0.623718  0.000996  2.233699  0.001
O  O232  1  0.04604781  0.25778700  0.73170332  1  -1.192644  0.009803  -0.345144  -0.576818  0.006089  2.231276  0.009
O  O233  1  0.54604989  0.75778925  0.76829187  1  -1.192611  0.009804  -0.345157  -0.576751  0.00609  2.231065  0.009
O  O234  1  0.95395047  0.74221173  0.26829624  1  -1.192644  0.009813  -0.345137  -0.576802  0.006096  2.231149  0.009
O  O235  1  0.45394914  0.24220584  0.23170395  1  -1.192493  0.009806  -0.345115  -0.576813  0.006091  2.23107  0.009
O  O236  1  0.77032368  0.05674095  0.07370841  1  -1.25061  0.000725  -0.63192  -0.806404  0.000463  2.028473  0.0
O  O237  1  0.27031969  0.55674300  0.42629077  1  -1.250647  0.000725  -0.631958  -0.806467  0.000463  2.028511  0.0
O  O238  1  0.22966531  0.94325541  0.92629436  1  -1.251331  0.000725  -0.631951  -0.806509  0.000463  2.028283  0.0
O  O239  1  0.72968137  0.44325937  0.57370879  1  -1.250602  0.000725  -0.631927  -0.806431  0.000463  2.028537  0.0
O  O240  1  0.57709492  0.26873758  0.00696116  1  -0.58808  0.000264  -0.21945  -0.504987  0.00016  1.945312  0.0
O  O241  1  0.07709687  0.76874086  0.49303962  1  -0.58808  0.000264  -0.219422  -0.504992  0.00016  1.945366  0.0
O  O242  1  0.42290849  0.73126477  0.99303787  1  -0.588127  0.000264  -0.219472  -0.505046  0.00016  1.945355  0.0
O  O243  1  0.92291194  0.23126572  0.50695941  1  -0.588232  0.000264  -0.219516  -0.505135  0.00016  1.945205  0.0
O  O244  1  0.78444125  0.23443674  0.05879070  1  -0.586731  0.000321  -0.219963  -0.488593  0.00019  1.967699  0.0
O  O245  1  0.28443998  0.73443453  0.44120760  1  -0.586832  0.000321  -0.219989  -0.488669  0.00019  1.967736  0.0
O  O246  1  0.21556578  0.76556317  0.94120406  1  -0.586858  0.000321  -0.219921  -0.48856  0.00019  1.967771  0.0
O  O247  1  0.71556940  0.26556536  0.55879304  1  -0.58682  0.000321  -0.21992  -0.488561  0.00019  1.967727  0.0
O  O248  1  0.78875626  0.36292652  0.03706383  1  -0.52722  0.000215  -0.192408  -0.451955  7.8e-05  1.98779  0.0
O  O249  1  0.28875564  0.86292614  0.46293567  1  -0.527175  0.000215  -0.192455  -0.45205  7.8e-05  1.98787  0.0
O  O250  1  0.21124192  0.63707465  0.96293574  1  -0.527106  0.000215  -0.192451  -0.452015  7.8e-05  1.987837  0.0
O  O251  1  0.71124985  0.13707560  0.53706389  1  -0.527153  0.000215  -0.192481  -0.452065  7.8e-05  1.987974  0.0
