# generated using pymatgen
data_Cu5H26(C8O13)2
_symmetry_space_group_name_H-M   'P 1'
_cell_length_a   8.62438803
_cell_length_b   8.91011478
_cell_length_c   12.64349139
_cell_angle_alpha   106.95558794
_cell_angle_beta   90.57321457
_cell_angle_gamma   109.48763631
_symmetry_Int_Tables_number   1
_chemical_formula_structural   Cu5H26(C8O13)2
_chemical_formula_sum   'Cu5 H26 C16 O26'
_cell_volume   869.88369525
_cell_formula_units_Z   1
loop_
 _symmetry_equiv_pos_site_id
 _symmetry_equiv_pos_as_xyz
  1  'x, y, z'
loop_
 _atom_site_type_symbol
 _atom_site_label
 _atom_site_symmetry_multiplicity
 _atom_site_fract_x
 _atom_site_fract_y
 _atom_site_fract_z
 _atom_site_occupancy
 _atom_site_hle17_ddec_charge
 _atom_site_hle17_ddec_spin_density
 _atom_site_hle17_ddec_sum_bond_order
 _atom_site_hle17_magmom
 _atom_site_hse06_10hf_ddec_charge
 _atom_site_hse06_10hf_ddec_spin_density
 _atom_site_hse06_10hf_ddec_sum_bond_order
 _atom_site_hse06_10hf_magmom
 _atom_site_hse06_ddec_charge
 _atom_site_hse06_ddec_spin_density
 _atom_site_hse06_ddec_sum_bond_order
 _atom_site_hse06_magmom
 _atom_site_pbe_cm5_charge
 _atom_site_pbe_ddec_charge
 _atom_site_pbe_ddec_spin_density
 _atom_site_pbe_ddec_sum_bond_order
 _atom_site_pbe_magmom
Cu  Cu0  1  0.00010524  0.00023568  0.99988650  1  1.031095  -0.715855  1.60554  -0.538  1.033037  -0.812097  1.981334  -0.665  1.115477  -0.873714  1.921755  -0.746  0.69325  0.962015  -0.765048  2.052217  -0.609
Cu  Cu1  1  0.00553371  0.05537235  0.32683327  1  1.047413  -0.709642  1.669211  -0.537  1.055467  -0.815727  2.054791  -0.672  1.135518  -0.883259  1.999896  -0.759  0.69448  0.98332  -0.751466  2.125124  -0.602
Cu  Cu2  1  0.99496264  0.94459085  0.67323011  1  1.04697  -0.726852  1.667316  -0.549  1.05295  -0.822309  2.055693  -0.677  1.133289  -0.883966  2.000134  -0.76  0.695028  0.983731  -0.776524  2.124175  -0.622
Cu  Cu3  1  0.64580772  0.06693601  0.33979736  1  1.038487  0.762582  1.628628  0.52  1.027638  0.855418  2.026323  0.651  1.11798  0.943171  1.956063  0.737  0.694861  0.956467  0.770597  2.094442  0.58
Cu  Cu4  1  0.35340056  0.93265085  0.65980283  1  1.03498  -0.709862  1.626399  -0.532  1.024353  -0.80248  2.023765  -0.656  1.115352  -0.864748  1.952902  -0.737  0.693281  0.953817  -0.754611  2.091712  -0.6
H  H5  1  0.87543421  0.52450153  0.24325499  1  0.112147  -0.001647  0.903307  -0.002  0.119145  -0.000991  0.955785  -0.001  0.122021  -0.000605  0.954021  -0.001  0.110644  0.116971  -0.001374  0.957494  -0.002
H  H6  1  0.12431688  0.47554782  0.75680173  1  0.112017  -0.001374  0.903793  -0.002  0.119185  -0.001228  0.956132  -0.001  0.122124  -0.000753  0.954337  -0.001  0.110692  0.116955  -0.001679  0.957847  -0.002
H  H7  1  0.11204573  0.57868462  0.13994043  1  0.120444  0.000504  0.888913  0.001  0.13219  0.000239  0.936405  0.0  0.134567  0.000192  0.935815  0.0  0.121388  0.1303  0.00026  0.937314  0.0
H  H8  1  0.88818296  0.42190055  0.86048678  1  0.120257  0.000264  0.88877  0.0  0.132097  8.7e-05  0.936165  0.0  0.134462  0.000106  0.935572  0.0  0.12158  0.130225  3.3e-05  0.93705  0.0
H  H9  1  0.31646691  0.55365960  0.32809786  1  0.111235  -0.000536  0.906974  -0.001  0.117931  -0.000286  0.963724  0.0  0.121852  -0.000158  0.960506  0.0  0.111268  0.115154  -0.000423  0.966295  0.0
H  H10  1  0.68338691  0.44609255  0.67211008  1  0.111604  -2.4e-05  0.906764  0.0  0.118202  -0.000126  0.963505  0.0  0.122207  -5.1e-05  0.960244  0.0  0.11111  0.115365  -0.000223  0.966156  -0.001
H  H11  1  0.11295665  0.60281773  0.44579108  1  0.099345  -0.000569  0.92116  -0.001  0.106865  -0.000369  0.980821  0.0  0.108478  -0.000169  0.981138  0.0  0.10684  0.105906  -0.000576  0.980606  -0.001
H  H12  1  0.88642409  0.39673004  0.55432392  1  0.0996  -0.00067  0.920441  -0.001  0.107008  -0.000522  0.980201  0.0  0.108598  -0.000307  0.980538  0.0  0.106976  0.106099  -0.000729  0.979906  -0.001
H  H13  1  0.23702491  0.07166174  0.88313838  1  0.433607  -6.7e-05  0.863773  0.001  0.410209  -0.001006  0.915773  0.0  0.423593  -0.000585  0.896818  0.0  0.288381  0.401095  -0.001398  0.928499  -0.001
H  H14  1  0.76377993  0.92924542  0.11716718  1  0.432876  -1.9e-05  0.864906  0.001  0.409029  -0.000607  0.917576  0.0  0.422453  -0.000376  0.898486  0.0  0.287911  0.399745  -0.000781  0.930624  0.0
H  H15  1  0.28467783  0.18204248  0.01555939  1  0.414536  0.000111  0.885917  0.002  0.388506  -0.000671  0.942527  0.0  0.400411  -0.000379  0.925701  0.0  0.293045  0.379936  -0.000928  0.95459  0.0
H  H16  1  0.71542811  0.81864022  0.98478464  1  0.414298  8.3e-05  0.885488  0.002  0.388473  -0.000663  0.942121  0.0  0.400384  -0.000375  0.925281  0.0  0.293013  0.379856  -0.000916  0.954274  0.0
H  H17  1  0.22968713  0.95938671  0.18593114  1  0.447852  4.5e-05  0.839006  0.0  0.42761  6.7e-05  0.884719  0.0  0.438388  4e-05  0.868972  0.0  0.300002  0.419763  9.2e-05  0.896073  0.0
H  H18  1  0.76994495  0.04044893  0.81355313  1  0.448059  -3.8e-05  0.838575  0.0  0.427582  -5e-06  0.884658  0.0  0.438328  -5e-06  0.868977  0.0  0.300122  0.419902  -2.4e-05  0.895736  0.0
H  H19  1  0.23997922  0.13936441  0.18181407  1  0.424187  0.000116  0.862344  0.0  0.403683  0.00011  0.914822  0.0  0.414102  8.4e-05  0.899583  0.0  0.301478  0.396272  0.000126  0.925486  0.0
H  H20  1  0.76018631  0.86062492  0.81786720  1  0.423247  0.000134  0.863651  0.0  0.402223  0.000104  0.917089  0.0  0.412679  8.8e-05  0.90181  0.0  0.300587  0.394912  0.000103  0.927584  0.0
H  H21  1  0.20224468  0.08562029  0.47875315  1  0.419244  0.000207  0.899416  0.001  0.385683  -8.5e-05  0.968748  0.0  0.398324  3e-05  0.950743  0.0  0.290706  0.376864  -0.000189  0.981138  0.0
H  H22  1  0.79837707  0.91449551  0.52118686  1  0.418909  0.000269  0.900078  0.001  0.385635  -5.5e-05  0.969017  0.0  0.39825  6.6e-05  0.951052  0.0  0.290268  0.376853  -0.000171  0.981355  0.0
H  H23  1  0.20521991  0.27798433  0.49879235  1  0.435084  -1.1e-05  0.800761  0.0  0.426045  -0.000474  0.839454  0.0  0.435347  -0.000301  0.829971  0.0  0.33324  0.418998  -0.000616  0.846635  0.0
H  H24  1  0.79511823  0.72193745  0.50078494  1  0.434948  -3.7e-05  0.80129  0.0  0.425899  -0.000524  0.839978  0.0  0.435245  -0.000338  0.830389  0.0  0.33256  0.418907  -0.000681  0.847175  0.0
H  H25  1  0.52478871  0.17924315  0.51603257  1  0.422235  -0.000384  0.886426  -0.001  0.39415  -4.7e-05  0.946619  0.0  0.406808  -2.2e-05  0.928846  0.0  0.289394  0.385001  -8.1e-05  0.95947  0.0
H  H26  1  0.47553467  0.81990821  0.48411119  1  0.424252  0.000447  0.883229  0.001  0.39611  8e-06  0.943618  0.0  0.408755  4e-06  0.92584  0.0  0.290304  0.386965  1.5e-05  0.956455  0.0
H  H27  1  0.43199820  0.20543590  0.41915601  1  0.432601  -7e-05  0.8494  0.0  0.413467  0.000255  0.896368  0.0  0.424674  0.000165  0.8801  0.0  0.303281  0.405184  0.000311  0.908408  0.0
H  H28  1  0.56788064  0.79396419  0.58126475  1  0.433249  6.3e-05  0.847857  0.001  0.414257  -0.000379  0.894795  0.0  0.425457  -0.000207  0.878537  0.0  0.303648  0.406021  -0.000526  0.906764  -0.001
H  H29  1  0.74011905  0.83377676  0.26017358  1  0.415386  0.000445  0.834641  0.0  0.403234  0.000291  0.886725  0.0  0.413874  0.000221  0.877791  0.0  0.307429  0.395149  0.000351  0.893086  0.0
H  H30  1  0.25960439  0.16593678  0.73886179  1  0.417162  0.001709  0.831916  0.004  0.403726  -0.000732  0.886317  0.0  0.414129  -0.00028  0.877843  0.0  0.307865  0.396072  -0.001164  0.89215  -0.001
C  C31  1  0.97834507  0.49379087  0.27077782  1  -0.128409  0.002145  3.516794  0.003  -0.141373  0.000479  3.75129  0.001  -0.14684  0.000389  3.760441  0.001  -0.07967  -0.138216  0.000834  3.746275  0.002
C  C32  1  0.02137861  0.50619456  0.72930588  1  -0.127322  -0.018677  3.515223  -0.021  -0.141395  -0.010933  3.750337  -0.013  -0.147252  -0.007079  3.759648  -0.009  -0.079487  -0.137652  -0.013905  3.74496  -0.016
C  C33  1  0.91260622  0.33068733  0.29725090  1  0.69384  -0.001863  3.799073  -0.002  0.657046  -0.001364  4.104278  -0.002  0.699245  -0.001198  4.095581  -0.002  0.224702  0.627816  -0.001597  4.107859  -0.002
C  C34  1  0.08715790  0.66930414  0.70282730  1  0.69211  0.007253  3.802503  0.013  0.655277  -0.000768  4.107487  0.004  0.697481  0.000247  4.098953  0.003  0.224385  0.6262  -0.002052  4.111017  0.003
C  C35  1  0.12279572  0.50857507  0.19659621  1  -0.116149  -0.004711  3.538942  -0.005  -0.129269  -0.002654  3.775408  -0.003  -0.134581  -0.00189  3.78663  -0.002  -0.075061  -0.125769  -0.003214  3.768482  -0.003
C  C36  1  0.87700311  0.49152918  0.80358846  1  -0.115849  -0.011161  3.537237  -0.012  -0.128828  -0.006479  3.773787  -0.007  -0.133977  -0.004119  3.784986  -0.005  -0.075355  -0.125552  -0.008511  3.766963  -0.009
C  C37  1  0.14829870  0.34850780  0.13024850  1  0.666787  0.003554  3.864368  0.007  0.623016  -0.000362  4.173643  0.002  0.659584  -2e-06  4.168302  0.001  0.209478  0.598077  -0.000814  4.174965  0.002
C  C38  1  0.85170605  0.65189566  0.86966168  1  0.668421  0.003397  3.862616  0.006  0.624041  -0.000577  4.172758  0.002  0.660599  -0.000122  4.167349  0.001  0.209835  0.599132  -0.001158  4.174146  0.001
C  C39  1  0.25049688  0.62213961  0.29827859  1  -0.12799  0.004275  3.527935  0.005  -0.138824  0.001978  3.764325  0.002  -0.144222  0.001355  3.775136  0.002  -0.078388  -0.13525  0.002252  3.757572  0.003
C  C40  1  0.74928383  0.37761670  0.70199912  1  -0.128944  -0.010244  3.528751  -0.011  -0.139221  -0.006031  3.764445  -0.007  -0.14483  -0.003886  3.775597  -0.005  -0.078566  -0.135755  -0.007815  3.757687  -0.009
C  C41  1  0.37250507  0.78475723  0.29002347  1  0.670139  -0.002129  3.828566  -0.005  0.621543  -0.000228  4.139416  -0.002  0.65688  -0.000501  4.133496  -0.002  0.208892  0.597522  9.8e-05  4.141529  -0.002
C  C42  1  0.62705819  0.21503067  0.71006887  1  0.671462  0.002291  3.828937  0.005  0.622891  -0.000246  4.138643  0.002  0.658228  0.000272  4.132672  0.002  0.209214  0.599004  -0.000842  4.141044  0.001
C  C43  1  0.10232264  0.63452308  0.36915813  1  -0.131879  -0.006666  3.515863  -0.007  -0.14092  -0.003713  3.751717  -0.004  -0.147886  -0.002483  3.765151  -0.003  -0.075764  -0.136309  -0.004762  3.743206  -0.005
C  C44  1  0.89741725  0.36527374  0.63102390  1  -0.132114  -0.008047  3.513741  -0.009  -0.141073  -0.004876  3.749429  -0.006  -0.147846  -0.003055  3.762844  -0.004  -0.075866  -0.136553  -0.006495  3.740802  -0.007
C  C45  1  0.08859075  0.80575955  0.39919054  1  0.673892  0.003181  3.835639  0.005  0.629435  -9.3e-05  4.146535  0.001  0.666141  0.000145  4.139105  0.001  0.213297  0.603876  -0.000458  4.149078  0.001
C  C46  1  0.91171915  0.19423488  0.60094158  1  0.673118  0.002655  3.836379  0.005  0.628832  -0.000579  4.146796  0.001  0.665446  -0.000178  4.139403  0.001  0.213232  0.60341  -0.001044  4.14916  0.001
O  O47  1  0.75693953  0.26347647  0.29303643  1  -0.563001  0.087007  2.030455  0.108  -0.543247  0.054943  2.301779  0.076  -0.584448  0.043139  2.286251  0.063  -0.31008  -0.51331  0.060863  2.312274  0.082
O  O48  1  0.24271577  0.73632728  0.70693980  1  -0.561906  -0.083222  2.03365  -0.116  -0.54118  -0.053778  2.304287  -0.081  -0.58241  -0.040473  2.288779  -0.065  -0.309394  -0.511955  -0.06176  2.315117  -0.089
O  O49  1  0.02255667  0.27914037  0.32744299  1  -0.615035  -0.081692  2.079745  -0.111  -0.601071  -0.049992  2.375215  -0.074  -0.64612  -0.037195  2.366655  -0.058  -0.327474  -0.567226  -0.057378  2.380883  -0.081
O  O50  1  0.97712172  0.72088038  0.67282548  1  -0.614636  -0.082605  2.081783  -0.115  -0.599678  -0.050169  2.377251  -0.076  -0.644917  -0.036318  2.368845  -0.058  -0.327158  -0.566056  -0.059171  2.382692  -0.085
O  O51  1  0.01654718  0.23381184  0.07209339  1  -0.597664  -0.084633  2.0271  -0.117  -0.579308  -0.050654  2.30007  -0.076  -0.621693  -0.037729  2.290011  -0.06  -0.329246  -0.54611  -0.05911  2.306411  -0.085
O  O52  1  0.98353670  0.76660124  0.92775147  1  -0.599312  -0.086147  2.026402  -0.119  -0.580572  -0.050905  2.299677  -0.076  -0.622832  -0.037786  2.289581  -0.06  -0.33006  -0.547744  -0.060029  2.306216  -0.086
O  O53  1  0.29082751  0.33847528  0.13676173  1  -0.62142  -0.001128  1.907296  -0.002  -0.575698  -0.000212  2.107537  -0.001  -0.601216  0.00044  2.096444  0.0  -0.325256  -0.557529  -0.001108  2.114524  -0.002
O  O54  1  0.70929279  0.66211477  0.86299714  1  -0.622037  -0.00102  1.906803  -0.002  -0.576041  -0.000107  2.10745  0.0  -0.601556  0.00054  2.096336  0.0  -0.325262  -0.557888  -0.0011  2.114439  -0.002
O  O55  1  0.34980564  0.84751474  0.21790417  1  -0.596454  -0.002259  1.93583  -0.002  -0.558189  -0.001698  2.154129  -0.001  -0.582515  -0.001653  2.1411  -0.001  -0.300128  -0.540219  -0.001955  2.162571  -0.002
O  O56  1  0.64925656  0.15211284  0.78222264  1  -0.597093  -0.000303  1.934889  -0.002  -0.558367  0.000418  2.152819  0.0  -0.58255  0.00112  2.139772  0.001  -0.300613  -0.540904  -0.000612  2.161357  -0.002
O  O57  1  0.50290527  0.85600330  0.36509927  1  -0.650718  0.083277  2.083467  0.105  -0.608068  0.051911  2.350345  0.073  -0.651575  0.04088  2.340314  0.06  -0.332814  -0.575983  0.056523  2.356665  0.077
O  O58  1  0.49693455  0.14386099  0.63473685  1  -0.653786  -0.076268  2.085179  -0.106  -0.608957  -0.049653  2.350463  -0.074  -0.651917  -0.038169  2.340042  -0.061  -0.334395  -0.578315  -0.055771  2.357689  -0.08
O  O59  1  0.77718091  0.94603949  0.25264931  1  -0.865967  -0.005688  1.922442  -0.014  -0.863573  0.000316  2.216282  -0.003  -0.92155  0.002459  2.1903  -0.001  -0.559638  -0.819562  -0.002267  2.235577  -0.006
O  O60  1  0.22318598  0.05454986  0.74780061  1  -0.857132  -0.194193  1.913327  -0.263  -0.860071  -0.122578  2.210598  -0.177  -0.918839  -0.092939  2.185365  -0.142  -0.55777  -0.816789  -0.141259  2.229283  -0.195
O  O61  1  0.99399771  0.83235011  0.33373282  1  -0.608899  -0.069802  2.050276  -0.097  -0.578736  -0.042885  2.324152  -0.065  -0.615755  -0.031577  2.312906  -0.05  -0.322907  -0.550204  -0.050643  2.332546  -0.073
O  O62  1  0.00690627  0.16784444  0.66613261  1  -0.611178  -0.068944  2.050594  -0.095  -0.579031  -0.043617  2.323341  -0.065  -0.615788  -0.03225  2.311988  -0.051  -0.323148  -0.551049  -0.051669  2.331832  -0.074
O  O63  1  0.17806998  0.91561554  0.48674018  1  -0.667534  0.002482  2.085578  -0.001  -0.643617  0.00237  2.368643  0.0  -0.670313  0.002767  2.350246  0.001  -0.316785  -0.62124  0.001646  2.378711  -0.001
O  O64  1  0.82221009  0.08437026  0.51341125  1  -0.665798  -0.001357  2.083356  -0.003  -0.642581  -0.000624  2.366017  -0.002  -0.669088  2.7e-05  2.347672  -0.001  -0.316764  -0.620038  -0.001484  2.375943  -0.003
O  O65  1  0.54236687  0.20995805  0.44511216  1  -0.810437  0.051636  1.93739  0.063  -0.775143  0.039626  2.140862  0.053  -0.80531  0.032856  2.101011  0.045  -0.586187  -0.752457  0.042559  2.170396  0.055
O  O66  1  0.45759617  0.78920936  0.55495166  1  -0.813221  -0.046694  1.933457  -0.062  -0.776781  -0.037585  2.136173  -0.053  -0.806824  -0.030375  2.096342  -0.046  -0.586944  -0.754579  -0.041462  2.165666  -0.056
O  O67  1  0.21517727  0.18050849  0.44349986  1  -0.821126  -0.035231  1.95837  -0.047  -0.772331  -0.02975  2.150638  -0.042  -0.799212  -0.023777  2.116739  -0.036  -0.560123  -0.751364  -0.033126  2.176328  -0.045
O  O68  1  0.78532391  0.81934561  0.55624223  1  -0.823125  -0.035629  1.957448  -0.048  -0.773359  -0.030663  2.148813  -0.043  -0.800122  -0.024412  2.114933  -0.036  -0.560337  -0.752912  -0.034389  2.174334  -0.046
O  O69  1  0.16449326  0.03268665  0.18858216  1  -0.874561  0.002532  1.901005  0.001  -0.846675  0.002251  2.09203  0.001  -0.866422  0.002352  2.051913  0.001  -0.587781  -0.826308  0.002299  2.121817  0.001
O  O70  1  0.83534506  0.96728474  0.81081320  1  -0.873512  -0.001041  1.900785  -0.004  -0.845613  0.000509  2.092924  -0.001  -0.865722  0.00148  2.052869  0.0  -0.586957  -0.824876  -0.001414  2.122197  -0.004
O  O71  1  0.23188535  0.06722387  0.96132603  1  -0.796587  -0.068297  1.925278  -0.091  -0.762863  -0.049004  2.108461  -0.069  -0.795883  -0.037875  2.070165  -0.057  -0.581088  -0.736761  -0.056637  2.136392  -0.076
O  O72  1  0.76852854  0.93344575  0.03889875  1  -0.796302  -0.065357  1.926954  -0.087  -0.76202  -0.047219  2.110305  -0.067  -0.794719  -0.036998  2.071948  -0.056  -0.581198  -0.736424  -0.053823  2.138547  -0.072
