# generated using pymatgen
data_Ni3H36C30(NO12)2
_symmetry_space_group_name_H-M   'P 1'
_cell_length_a   12.46068220
_cell_length_b   12.26786916
_cell_length_c   17.37341515
_cell_angle_alpha   89.99967695
_cell_angle_beta   90.00018189
_cell_angle_gamma   114.56386277
_symmetry_Int_Tables_number   1
_chemical_formula_structural   Ni3H36C30(NO12)2
_chemical_formula_sum   'Ni6 H72 C60 N4 O48'
_cell_volume   2415.45044201
_cell_formula_units_Z   2
loop_
 _symmetry_equiv_pos_site_id
 _symmetry_equiv_pos_as_xyz
  1  'x, y, z'
loop_
 _atom_site_type_symbol
 _atom_site_label
 _atom_site_symmetry_multiplicity
 _atom_site_fract_x
 _atom_site_fract_y
 _atom_site_fract_z
 _atom_site_occupancy
 _atom_site_pbe_bader_charge
 _atom_site_pbe_bader_spin_density
 _atom_site_pbe_cm5_charge
 _atom_site_pbe_ddec_charge
 _atom_site_pbe_ddec_spin_density
 _atom_site_pbe_ddec_sum_bond_order
 _atom_site_pbe_magmom
Ni  Ni0  1  0.99999668  0.49999869  0.49999913  1  1.198819  1.583631  0.644047  0.834265  1.7733  2.441982  1.571
Ni  Ni1  1  0.50000060  0.50000028  0.00000072  1  1.198811  1.583632  0.644062  0.834314  1.773302  2.441918  1.571
Ni  Ni2  1  0.83923606  0.93541725  0.70018670  1  1.233739  1.616559  0.614851  0.987511  1.806548  2.259582  1.606
Ni  Ni3  1  0.66076706  0.06458209  0.20018579  1  1.233711  1.616565  0.614856  0.987571  1.806552  2.259486  1.606
Ni  Ni4  1  0.16076728  0.06458319  0.29981273  1  1.233561  1.616566  0.614833  0.987528  1.806552  2.25953  1.606
Ni  Ni5  1  0.33923584  0.93541924  0.79981421  1  1.233743  1.616562  0.614817  0.987479  1.806549  2.259594  1.606
H  H6  1  0.25046181  0.63198608  0.67469769  1  0.121585  0.000322  0.108928  0.123523  0.000233  1.005636  0.0
H  H7  1  0.24953514  0.36801630  0.17469693  1  0.12166  0.000322  0.108916  0.123507  0.000233  1.005613  0.0
H  H8  1  0.74952980  0.36801511  0.32529943  1  0.121441  0.000322  0.108926  0.123502  0.000233  1.005705  0.0
H  H9  1  0.75046418  0.63198409  0.82529675  1  0.121444  0.000322  0.10897  0.123554  0.000233  1.00566  0.0
H  H10  1  0.53709124  0.59160433  0.79137982  1  0.092437  -2.5e-05  0.10978  0.117807  -0.000115  1.008829  0.0
H  H11  1  0.96290564  0.40840050  0.29138111  1  0.092428  -2.5e-05  0.109715  0.117717  -0.000115  1.008792  0.0
H  H12  1  0.46289983  0.40839953  0.20861673  1  0.09234  -2.5e-05  0.109724  0.117749  -0.000115  1.008792  0.0
H  H13  1  0.03709976  0.59160710  0.70861832  1  0.092359  -2.5e-05  0.109727  0.117755  -0.000115  1.008789  0.0
H  H14  1  0.33566867  0.33694310  0.61805954  1  0.08765  4.9e-05  0.105272  0.111649  -2e-06  0.999827  0.0
H  H15  1  0.16433187  0.66305886  0.11805913  1  0.087556  4.9e-05  0.10524  0.111591  -2e-06  0.999883  0.0
H  H16  1  0.66432518  0.66305366  0.38194104  1  0.087404  4.9e-05  0.105266  0.111614  -2e-06  0.999769  0.0
H  H17  1  0.83567416  0.33694429  0.88194029  1  0.087512  4.9e-05  0.105284  0.111685  -2e-06  0.999801  0.0
H  H18  1  0.55917681  0.40263127  0.77319612  1  0.104261  2e-06  0.105226  0.083141  -5.2e-05  1.002583  0.0
H  H19  1  0.94082470  0.59737732  0.27319315  1  0.104214  2e-06  0.105251  0.083163  -5.2e-05  1.002551  0.0
H  H20  1  0.44082259  0.59737537  0.22680849  1  0.104337  2e-06  0.105266  0.083194  -5.2e-05  1.002592  0.0
H  H21  1  0.05918034  0.40262938  0.72680686  1  0.104177  2e-06  0.105235  0.08318  -5.2e-05  1.00253  0.0
H  H22  1  0.47831603  0.29918548  0.69902947  1  0.040539  7e-05  0.106979  0.083791  5e-06  0.976044  0.0
H  H23  1  0.02168006  0.70081850  0.19902513  1  0.040482  7e-05  0.106965  0.083755  5e-06  0.97601  0.0
H  H24  1  0.52167585  0.70081036  0.30098032  1  0.04053  7e-05  0.10697  0.08377  5e-06  0.976115  0.0
H  H25  1  0.97831863  0.29918634  0.80097257  1  0.040554  7e-05  0.106974  0.083778  5e-06  0.976095  0.0
H  H26  1  0.62612916  0.25077102  0.73106603  1  0.115575  0.000125  0.116227  0.132853  5e-06  1.019728  0.0
H  H27  1  0.87386280  0.74921815  0.23106979  1  0.115649  0.000125  0.11621  0.132876  5e-06  1.019755  0.0
H  H28  1  0.37387025  0.74921956  0.26893627  1  0.115639  0.000125  0.11622  0.132893  5e-06  1.019798  0.0
H  H29  1  0.12612943  0.25077056  0.76893885  1  0.11569  0.000125  0.11622  0.132848  6e-06  1.019816  0.0
H  H30  1  0.92338713  0.27691434  0.59377149  1  0.134935  0.002114  0.122194  0.107838  0.000846  1.011821  0.001
H  H31  1  0.57660194  0.72308116  0.09377640  1  0.134899  0.002114  0.1222  0.107785  0.000846  1.011765  0.001
H  H32  1  0.07660815  0.72308600  0.40622563  1  0.134891  0.002114  0.122195  0.107784  0.000846  1.011821  0.001
H  H33  1  0.42340095  0.27692016  0.90622533  1  0.134867  0.002114  0.122201  0.107808  0.000846  1.01177  0.001
H  H34  1  0.79212491  0.53589932  0.56648604  1  0.134605  0.001963  0.120218  0.10298  0.000545  1.03336  0.001
H  H35  1  0.70787121  0.46410004  0.06648710  1  0.134634  0.001963  0.120217  0.102959  0.000545  1.033398  0.001
H  H36  1  0.20786518  0.46409204  0.43351224  1  0.134598  0.001963  0.120176  0.102893  0.000545  1.033457  0.001
H  H37  1  0.29212470  0.53589585  0.93351578  1  0.134647  0.001963  0.120228  0.102987  0.000545  1.033367  0.001
H  H38  1  0.05257842  0.32429655  0.48993418  1  0.644509  7.9e-05  0.278753  0.360868  0.000225  0.997905  0.0
H  H39  1  0.44742094  0.67570442  0.98993176  1  0.644517  7.9e-05  0.278731  0.360785  0.000225  0.998035  0.0
H  H40  1  0.94741856  0.67570202  0.51006468  1  0.644491  7.8e-05  0.278726  0.360781  0.000225  0.998018  0.0
H  H41  1  0.55258384  0.32429961  0.01006882  1  0.644498  7.8e-05  0.278722  0.360767  0.000225  0.998042  0.0
H  H42  1  0.98144010  0.30546402  0.41016972  1  0.627274  0.001024  0.290863  0.38173  0.000867  0.949398  0.001
H  H43  1  0.51856008  0.69453373  0.91016741  1  0.627398  0.001022  0.290869  0.381717  0.000867  0.949439  0.001
H  H44  1  0.01855849  0.69453458  0.58982971  1  0.627294  0.001024  0.290811  0.381599  0.000867  0.94955  0.001
H  H45  1  0.48144174  0.30546491  0.08983202  1  0.627319  0.001023  0.290852  0.381678  0.000867  0.949487  0.001
H  H46  1  0.68472257  0.84445104  0.57976248  1  0.606591  0.0012  0.34243  0.419235  0.000704  0.853214  0.001
H  H47  1  0.81527823  0.15555184  0.07976329  1  0.606605  0.0012  0.342445  0.41928  0.000704  0.853206  0.001
H  H48  1  0.31527916  0.15554938  0.42023349  1  0.606669  0.001199  0.342406  0.419199  0.000704  0.853202  0.001
H  H49  1  0.18471992  0.84444764  0.92023729  1  0.606591  0.0012  0.342422  0.419234  0.000704  0.853238  0.001
H  H50  1  0.67034599  0.74948633  0.64317276  1  0.616543  7.5e-05  0.331854  0.419226  5e-06  0.86625  0.0
H  H51  1  0.82965892  0.25051613  0.14317322  1  0.616545  7.6e-05  0.331867  0.419233  5e-06  0.866239  0.0
H  H52  1  0.32965914  0.25051859  0.35682667  1  0.6165  7.6e-05  0.331858  0.419241  5e-06  0.866287  0.0
H  H53  1  0.17034227  0.74948696  0.85682506  1  0.616819  7.6e-05  0.331826  0.419167  4e-06  0.866219  0.0
H  H54  1  0.66404976  0.84646729  0.80468369  1  0.629521  0.000418  0.296436  0.393757  0.000509  0.926248  0.001
H  H55  1  0.83595494  0.15353486  0.30468513  1  0.629497  0.000418  0.296497  0.393803  0.000509  0.926143  0.001
H  H56  1  0.33595126  0.15353134  0.19531286  1  0.629598  0.000418  0.296479  0.39383  0.000509  0.926136  0.001
H  H57  1  0.16404975  0.84647094  0.69531372  1  0.629558  0.000418  0.296437  0.393752  0.000509  0.926265  0.001
H  H58  1  0.72270143  0.98645525  0.79420598  1  0.646251  -0.000215  0.283136  0.368155  -0.000124  0.985069  0.0
H  H59  1  0.77730325  0.01354698  0.29420726  1  0.646262  -0.000215  0.283109  0.368069  -0.000124  0.985183  0.0
H  H60  1  0.27730156  0.01354430  0.20579518  1  0.646267  -0.000215  0.283124  0.368168  -0.000124  0.985076  0.0
H  H61  1  0.22270520  0.98645619  0.70579274  1  0.645952  -0.000215  0.283131  0.368134  -0.000124  0.985096  0.0
H  H62  1  0.98449351  0.88791024  0.62468770  1  0.6539  0.000171  0.287418  0.373461  0.000288  0.972628  0.0
H  H63  1  0.51550690  0.11209320  0.12468800  1  0.653938  0.000171  0.287479  0.373874  0.000288  0.97223  0.0
H  H64  1  0.01551234  0.11209648  0.37531115  1  0.653661  0.000171  0.28746  0.373799  0.000288  0.972327  0.0
H  H65  1  0.48449125  0.88790629  0.87531143  1  0.653909  0.000171  0.287476  0.37359  0.000287  0.972453  0.0
H  H66  1  0.92502468  0.93025029  0.55680107  1  0.608246  0.001237  0.323567  0.399994  0.000893  0.882129  0.001
H  H67  1  0.57497564  0.06975365  0.05680224  1  0.608267  0.001237  0.323571  0.400018  0.000893  0.882057  0.001
H  H68  1  0.07497598  0.06974744  0.44319721  1  0.608289  0.001237  0.323553  0.400003  0.000893  0.882092  0.001
H  H69  1  0.42502448  0.93024675  0.94319834  1  0.608258  0.001237  0.323556  0.399973  0.000894  0.882164  0.001
H  H70  1  0.06269980  0.04980463  0.75597569  1  0.665015  0.000418  0.297244  0.395548  0.000502  0.940536  0.001
H  H71  1  0.43730819  0.95019639  0.25597764  1  0.665121  0.000418  0.297265  0.395558  0.000502  0.940529  0.001
H  H72  1  0.93730515  0.95019583  0.24402546  1  0.66501  0.000418  0.297242  0.395494  0.000502  0.940604  0.001
H  H73  1  0.56269677  0.04980406  0.74402409  1  0.665045  0.000417  0.297243  0.395507  0.000502  0.940584  0.001
H  H74  1  0.96570224  0.97589984  0.81869196  1  0.610987  0.000318  0.330294  0.409924  0.000194  0.860165  0.0
H  H75  1  0.53430445  0.02410312  0.31869380  1  0.610851  0.000318  0.330252  0.409881  0.000195  0.860188  0.0
H  H76  1  0.03430129  0.02409703  0.18130689  1  0.610859  0.000318  0.330289  0.409933  0.000194  0.860179  0.0
H  H77  1  0.46570203  0.97589914  0.68130678  1  0.610945  0.000318  0.330279  0.409904  0.000194  0.860156  0.0
C  C78  1  0.18284695  0.43775567  0.58309943  1  1.567387  -0.000555  0.204487  0.565523  -0.001083  4.206892  -0.001
C  C79  1  0.31715166  0.56224385  0.08309632  1  1.567344  -0.000556  0.204502  0.565551  -0.001083  4.206912  -0.001
C  C80  1  0.81714905  0.56223844  0.41690287  1  1.567124  -0.000556  0.204406  0.565398  -0.001085  4.206928  -0.001
C  C81  1  0.68285025  0.43776103  0.91690426  1  1.567092  -0.000555  0.204504  0.565523  -0.001084  4.206941  -0.001
C  C82  1  0.28285582  0.48003428  0.64031677  1  0.010466  0.006042  -0.020876  -0.035415  0.003496  3.981986  0.005
C  C83  1  0.21713901  0.51996923  0.14031647  1  0.010237  0.006043  -0.020795  -0.035409  0.003496  3.982026  0.005
C  C84  1  0.71713767  0.51996158  0.35968151  1  0.010603  0.006044  -0.02086  -0.035451  0.003497  3.981905  0.005
C  C85  1  0.78285609  0.48003468  0.85968123  1  0.010377  0.006043  -0.020847  -0.035378  0.003496  3.982145  0.005
C  C86  1  0.30501608  0.58316764  0.68338008  1  -0.040919  0.000401  -0.075866  -0.095805  -1.2e-05  3.922954  0.0
C  C87  1  0.19498097  0.41683290  0.18337785  1  -0.040893  0.000401  -0.075858  -0.095724  -1.2e-05  3.922863  0.0
C  C88  1  0.69498126  0.41683183  0.31661934  1  -0.040788  0.0004  -0.075875  -0.095758  -1.3e-05  3.923043  0.0
C  C89  1  0.80501530  0.58316389  0.81661755  1  -0.040697  0.000401  -0.075887  -0.095828  -1.2e-05  3.923073  0.0
C  C90  1  0.39603342  0.62399165  0.73762563  1  -0.030751  0.005053  -0.027386  -0.054278  0.002923  4.027508  0.004
C  C91  1  0.10396451  0.37600850  0.23762450  1  -0.030747  0.005052  -0.027461  -0.054435  0.002922  4.027668  0.004
C  C92  1  0.60396482  0.37600606  0.26237437  1  -0.030611  0.005053  -0.027433  -0.0544  0.002923  4.027619  0.004
C  C93  1  0.89603301  0.62399544  0.76237205  1  -0.030792  0.005052  -0.027459  -0.054388  0.002922  4.027546  0.004
C  C94  1  0.46692569  0.56165386  0.74836062  1  -0.011545  0.000445  -0.077817  -0.135436  -0.000171  3.922846  0.0
C  C95  1  0.03307602  0.43835161  0.24836024  1  -0.011655  0.000445  -0.077697  -0.135326  -0.000171  3.922638  0.0
C  C96  1  0.53307129  0.43834472  0.25163995  1  -0.011498  0.000444  -0.077722  -0.135317  -0.000172  3.922615  0.0
C  C97  1  0.96692589  0.56165327  0.75163746  1  -0.01162  0.000445  -0.077716  -0.135287  -0.000171  3.922606  0.0
C  C98  1  0.44591328  0.45866347  0.70511082  1  0.007857  0.001069  -0.017323  0.073245  0.000565  4.010063  0.001
C  C99  1  0.05408864  0.54134499  0.20510777  1  0.008247  0.001069  -0.017372  0.073273  0.000565  4.009903  0.001
C  C100  1  0.55408290  0.54134312  0.29489264  1  0.00785  0.001069  -0.017348  0.073215  0.000565  4.010145  0.001
C  C101  1  0.94591578  0.45865814  0.79489109  1  0.008381  0.001069  -0.017369  0.073135  0.000565  4.009993  0.001
C  C102  1  0.35400103  0.41814457  0.65134474  1  -0.046118  0.000363  -0.07208  -0.119989  -0.000102  3.912455  0.0
C  C103  1  0.14600332  0.58186253  0.15134461  1  -0.046205  0.000363  -0.072069  -0.119957  -0.000102  3.912549  0.0
C  C104  1  0.64599631  0.58185490  0.34865411  1  -0.046233  0.000362  -0.072048  -0.119866  -0.000103  3.912399  0.0
C  C105  1  0.85399770  0.41814412  0.84865366  1  -0.046112  0.000363  -0.072078  -0.120016  -0.000102  3.912551  0.0
C  C106  1  0.41310937  0.73258655  0.78362214  1  1.533757  0.00096  0.216656  0.583937  0.000136  4.185694  0.0
C  C107  1  0.08688648  0.26741591  0.28361911  1  1.533925  0.000959  0.216742  0.584098  0.000136  4.185419  0.0
C  C108  1  0.58688896  0.26741739  0.21637383  1  1.53389  0.000958  0.216687  0.584045  0.000135  4.185592  0.0
C  C109  1  0.91311391  0.73258717  0.71637687  1  1.533758  0.000961  0.216687  0.584023  0.000135  4.185645  0.0
C  C110  1  0.52469619  0.39478101  0.71413689  1  0.358065  0.000513  -0.061634  -0.022486  0.000306  3.886679  0.0
C  C111  1  0.97530587  0.60522357  0.21413455  1  0.358147  0.000513  -0.0616  -0.022385  0.000306  3.88665  0.0
C  C112  1  0.47529945  0.60522023  0.28586541  1  0.357921  0.000513  -0.061604  -0.022435  0.000306  3.886839  0.0
C  C113  1  0.02469909  0.39477689  0.78586373  1  0.357969  0.000513  -0.061591  -0.022399  0.000306  3.886608  0.0
C  C114  1  0.69691607  0.39907724  0.64984978  1  0.407859  0.005602  0.086855  0.221089  0.003143  4.084801  0.005
C  C115  1  0.80308196  0.60091795  0.14984993  1  0.407894  0.005602  0.086811  0.221013  0.003143  4.08497  0.005
C  C116  1  0.30307581  0.60091057  0.35015138  1  0.407948  0.005602  0.086811  0.221147  0.003143  4.084947  0.005
C  C117  1  0.19691565  0.39907618  0.85015410  1  0.407697  0.005602  0.086795  0.221013  0.003143  4.084939  0.005
C  C118  1  0.69126167  0.29608451  0.68695322  1  -0.001742  -0.006  -0.086135  -0.203632  -0.007051  3.961741  -0.004
C  C119  1  0.80873372  0.70390770  0.18695643  1  -0.001859  -0.005999  -0.086113  -0.203692  -0.007051  3.961728  -0.004
C  C120  1  0.30873719  0.70390874  0.31304794  1  -0.001801  -0.006001  -0.086133  -0.203782  -0.007052  3.961751  -0.004
C  C121  1  0.19126228  0.29608641  0.81304933  1  -0.001803  -0.005999  -0.086165  -0.203642  -0.007051  3.961906  -0.004
C  C122  1  0.77311743  0.25066884  0.66552181  1  -0.003007  0.011147  -0.017617  -0.064448  0.006516  4.010948  0.009
C  C123  1  0.72687829  0.74932443  0.16552753  1  -0.003363  0.011149  -0.017737  -0.064535  0.006516  4.011062  0.009
C  C124  1  0.22688323  0.74932889  0.33447762  1  -0.002988  0.011148  -0.01764  -0.064412  0.006516  4.010864  0.009
C  C125  1  0.27311842  0.25067147  0.83447766  1  -0.003132  0.011148  -0.017578  -0.064443  0.006516  4.010923  0.009
C  C126  1  0.85926228  0.31097236  0.61093263  1  0.481358  -0.004972  0.042279  0.056548  -0.006059  3.903112  -0.004
C  C127  1  0.64073336  0.68902131  0.11093494  1  0.481821  -0.004974  0.042352  0.056683  -0.006061  3.903158  -0.004
C  C128  1  0.14073488  0.68902265  0.38906795  1  0.481417  -0.004974  0.042329  0.056609  -0.006061  3.90313  -0.004
C  C129  1  0.35926801  0.31097822  0.88906679  1  0.481541  -0.004973  0.042279  0.056596  -0.00606  3.90317  -0.004
C  C130  1  0.78648220  0.45497512  0.59560712  1  0.592052  -0.006554  0.041896  -0.016133  -0.007881  3.903789  -0.004
C  C131  1  0.71351692  0.54502138  0.09560845  1  0.592164  -0.006553  0.041937  -0.016081  -0.007879  3.903925  -0.004
C  C132  1  0.21351156  0.54501539  0.40439230  1  0.591442  -0.006552  0.041994  -0.016032  -0.00788  3.90399  -0.004
C  C133  1  0.28648535  0.45497637  0.90439386  1  0.591394  -0.006551  0.041875  -0.016186  -0.007881  3.903947  -0.004
C  C134  1  0.76931850  0.13811606  0.70122427  1  1.561003  -0.001535  0.217347  0.580413  -0.002538  4.1854  -0.002
C  C135  1  0.73068184  0.86188235  0.20122668  1  1.560841  -0.001535  0.217331  0.580455  -0.002537  4.185735  -0.002
C  C136  1  0.23068565  0.86188439  0.29877688  1  1.561021  -0.001535  0.217359  0.580373  -0.002537  4.185562  -0.002
C  C137  1  0.26931846  0.13811449  0.79877908  1  1.560884  -0.001536  0.217379  0.580469  -0.002537  4.185495  -0.002
N  N138  1  0.86619864  0.41251398  0.57737945  1  -1.206074  0.066795  -0.324728  -0.198874  0.038069  3.619607  0.06
N  N139  1  0.63379929  0.58748175  0.07738157  1  -1.206422  0.066795  -0.324745  -0.198849  0.038069  3.619666  0.06
N  N140  1  0.13379503  0.58747832  0.42261768  1  -1.205768  0.066795  -0.324786  -0.198872  0.038069  3.619708  0.06
N  N141  1  0.36620370  0.41251779  0.92262016  1  -1.205543  0.066791  -0.324722  -0.198841  0.038068  3.619778  0.06
O  O142  1  0.12095117  0.49894809  0.58135577  1  -1.166064  0.067339  -0.318001  -0.560813  0.036728  2.346481  0.062
O  O143  1  0.37904663  0.50105143  0.08135304  1  -1.166027  0.067338  -0.318022  -0.560865  0.036727  2.346646  0.062
O  O144  1  0.87904017  0.50104239  0.41864596  1  -1.165934  0.067342  -0.317928  -0.560712  0.03673  2.346511  0.062
O  O145  1  0.62095851  0.49895349  0.91864581  1  -1.1659  0.067338  -0.31799  -0.560777  0.036727  2.346599  0.062
O  O146  1  0.16728010  0.34706832  0.54155278  1  -1.191278  -0.000207  -0.340625  -0.567937  -0.001343  2.129927  -0.001
O  O147  1  0.33272759  0.65294232  0.04155510  1  -1.191219  -0.000206  -0.340607  -0.567908  -0.001342  2.129918  -0.001
O  O148  1  0.83271805  0.65293117  0.45844607  1  -1.191061  -0.000207  -0.340598  -0.567895  -0.001343  2.12997  -0.001
O  O149  1  0.66728247  0.34706890  0.95844836  1  -1.191133  -0.000206  -0.340653  -0.56794  -0.001342  2.129912  -0.001
O  O150  1  0.50314201  0.77992253  0.82792950  1  -1.211408  0.002696  -0.306898  -0.567643  0.000843  2.24207  0.001
O  O151  1  0.99686021  0.22008120  0.32793219  1  -1.211363  0.002696  -0.306908  -0.567695  0.000842  2.242111  0.001
O  O152  1  0.49685695  0.22007696  0.17206705  1  -1.211495  0.002695  -0.306897  -0.567748  0.000842  2.242206  0.001
O  O153  1  0.00314367  0.77992460  0.67206551  1  -1.211487  0.002696  -0.306862  -0.567577  0.000843  2.242091  0.001
O  O154  1  0.33391976  0.77217131  0.77573694  1  -1.148924  0.061059  -0.320601  -0.583833  0.032942  2.394059  0.056
O  O155  1  0.16607420  0.22782851  0.27573366  1  -1.14901  0.06106  -0.320709  -0.583958  0.032942  2.393869  0.056
O  O156  1  0.66607508  0.22782992  0.22426421  1  -1.149  0.061061  -0.320661  -0.58389  0.032943  2.393955  0.056
O  O157  1  0.83392583  0.77217368  0.72426346  1  -1.148904  0.061058  -0.32069  -0.583954  0.032943  2.393992  0.056
O  O158  1  0.62230094  0.45264484  0.66127566  1  -1.056345  0.001472  -0.182314  -0.204215  0.000732  2.533467  0.001
O  O159  1  0.87770177  0.54736191  0.16127678  1  -1.056289  0.001472  -0.182282  -0.20419  0.000732  2.533724  0.001
O  O160  1  0.37769229  0.54734834  0.33872549  1  -1.056034  0.001472  -0.182345  -0.204268  0.000732  2.53364  0.001
O  O161  1  0.12230041  0.45263762  0.83872725  1  -1.056091  0.001472  -0.182295  -0.204194  0.000732  2.533596  0.001
O  O162  1  0.83214950  0.09093387  0.66993583  1  -1.129473  0.065629  -0.309821  -0.545951  0.035616  2.320897  0.061
O  O163  1  0.66784650  0.90906204  0.16994251  1  -1.1292  0.065631  -0.309871  -0.54607  0.035617  2.321083  0.061
O  O164  1  0.16784838  0.90906294  0.33006129  1  -1.129395  0.065631  -0.309859  -0.545965  0.035618  2.32095  0.061
O  O165  1  0.33215882  0.09093931  0.83006095  1  -1.129412  0.065629  -0.309834  -0.545997  0.035616  2.321061  0.061
O  O166  1  0.70325501  0.09708346  0.76035255  1  -1.189721  0.001541  -0.312746  -0.548762  -5.2e-05  2.212216  0.001
O  O167  1  0.79674586  0.90291362  0.26035379  1  -1.189798  0.001541  -0.31266  -0.548669  -5.2e-05  2.212353  0.001
O  O168  1  0.29674762  0.90291519  0.23964745  1  -1.189767  0.001541  -0.312695  -0.548714  -5.2e-05  2.212232  0.001
O  O169  1  0.20325524  0.09708322  0.73965024  1  -1.189669  0.001542  -0.312734  -0.548762  -5.2e-05  2.212185  0.001
O  O170  1  0.98129966  0.32886843  0.46432195  1  -1.246367  0.064298  -0.580436  -0.756855  0.035291  2.178532  0.056
O  O171  1  0.51869934  0.67112980  0.96432088  1  -1.246492  0.064301  -0.580446  -0.756826  0.035292  2.178632  0.056
O  O172  1  0.01869893  0.67113017  0.53567575  1  -1.246373  0.064299  -0.580367  -0.756644  0.035291  2.178643  0.056
O  O173  1  0.48130284  0.32886974  0.03567912  1  -1.246399  0.0643  -0.580409  -0.756712  0.035291  2.178601  0.056
O  O174  1  0.67954250  0.83184412  0.63521217  1  -1.156031  0.047079  -0.544226  -0.744834  0.025827  2.062992  0.04
O  O175  1  0.82045730  0.16815566  0.13521236  1  -1.156053  0.047079  -0.544252  -0.744898  0.025826  2.063035  0.04
O  O176  1  0.32046031  0.16815899  0.36478438  1  -1.15608  0.047079  -0.544195  -0.744805  0.025826  2.063026  0.04
O  O177  1  0.17954237  0.83184562  0.86478765  1  -1.156351  0.047079  -0.544181  -0.74477  0.025827  2.062972  0.04
O  O178  1  0.74217228  0.91455375  0.80120131  1  -1.224243  0.074149  -0.581757  -0.755488  0.040273  2.098865  0.064
O  O179  1  0.75783241  0.08544842  0.30120054  1  -1.22423  0.074146  -0.581785  -0.755454  0.040272  2.098838  0.064
O  O180  1  0.25783151  0.08544580  0.19879869  1  -1.224194  0.074143  -0.581795  -0.755576  0.040271  2.098813  0.064
O  O181  1  0.24217165  0.91455381  0.69879889  1  -1.223947  0.074146  -0.581759  -0.75548  0.040271  2.098909  0.064
O  O182  1  0.95922432  0.95288292  0.60789580  1  -1.22148  0.05513  -0.565144  -0.747818  0.02979  2.072834  0.047
O  O183  1  0.54078108  0.04712516  0.10789813  1  -1.22148  0.055125  -0.565196  -0.748233  0.029788  2.072074  0.047
O  O184  1  0.04078037  0.04712288  0.39210075  1  -1.221205  0.055127  -0.56516  -0.748156  0.02979  2.072168  0.047
O  O185  1  0.45922056  0.95287705  0.89210302  1  -1.221456  0.055128  -0.565177  -0.74789  0.029789  2.072825  0.047
O  O186  1  0.97877147  0.02631449  0.77330440  1  -1.211929  0.063319  -0.559197  -0.740266  0.034368  2.130697  0.055
O  O187  1  0.52123444  0.97368701  0.27330819  1  -1.211893  0.063318  -0.559164  -0.740218  0.034368  2.13072  0.055
O  O188  1  0.02123232  0.97368506  0.22669502  1  -1.211807  0.063318  -0.55918  -0.740215  0.034368  2.130794  0.055
O  O189  1  0.47876962  0.02631522  0.72669239  1  -1.21193  0.06332  -0.559155  -0.740174  0.034369  2.130711  0.055
