# generated using pymatgen
data_ZnH12C19NO4
_symmetry_space_group_name_H-M   'P 1'
_cell_length_a   13.95475259
_cell_length_b   15.35648262
_cell_length_c   15.32263920
_cell_angle_alpha   88.16285109
_cell_angle_beta   85.62536590
_cell_angle_gamma   85.25329308
_symmetry_Int_Tables_number   1
_chemical_formula_structural   ZnH12C19NO4
_chemical_formula_sum   'Zn4 H48 C76 N4 O16'
_cell_volume   3261.68821399
_cell_formula_units_Z   4
loop_
 _symmetry_equiv_pos_site_id
 _symmetry_equiv_pos_as_xyz
  1  'x, y, z'
loop_
 _atom_site_type_symbol
 _atom_site_label
 _atom_site_symmetry_multiplicity
 _atom_site_fract_x
 _atom_site_fract_y
 _atom_site_fract_z
 _atom_site_occupancy
 _atom_site_pbe_bader_charge
 _atom_site_pbe_bader_spin_density
 _atom_site_pbe_cm5_charge
 _atom_site_pbe_ddec_charge
 _atom_site_pbe_ddec_spin_density
 _atom_site_pbe_ddec_sum_bond_order
 _atom_site_pbe_magmom
Zn  Zn0  1  0.89141823  0.83654364  0.59975246  1  1.28508  0  0.66844  0.820549  0  2.399708  0
Zn  Zn1  1  0.68847034  0.85117043  0.61391749  1  1.288723  0  0.66565  0.819278  0  2.427048  0
Zn  Zn2  1  0.10858165  0.16345792  0.40024538  1  1.285064  0  0.668427  0.820575  0  2.399749  0
Zn  Zn3  1  0.31152971  0.14882917  0.38608236  1  1.288736  0  0.66562  0.81919  0  2.427088  0
H  H4  1  0.92712001  0.76296311  0.87408505  1  0.090133  0  0.104482  0.110122  0  0.997315  0
H  H5  1  0.92829426  0.75711347  0.03648377  1  0.051103  0  0.100625  0.098772  0  1.007843  0
H  H6  1  0.64365458  0.89117343  0.05591521  1  0.063165  0  0.099169  0.097556  0  1.010335  0
H  H7  1  0.63556715  0.81995455  0.18228524  1  0.02999  0  0.101021  0.100026  0  1.006813  0
H  H8  1  0.64189358  0.89102585  0.89373104  1  0.095164  0  0.103746  0.109107  0  0.998429  0
H  H9  1  0.64054672  0.83127529  0.34333655  1  0.090028  0  0.101142  0.106911  0  1.003276  0
H  H10  1  0.94707703  0.84455866  0.31242689  1  0.088035  0  0.101697  0.103206  0  1.032416  0
H  H11  1  0.94352655  0.83611520  0.15164488  1  0.0846  0  0.103034  0.103654  0  1.002531  0
H  H12  1  0.93632606  0.10682380  0.61036669  1  0.069658  0  0.102625  0.104075  0  1.029715  0
H  H13  1  0.62748913  0.13906771  0.61445711  1  0.087953  0  0.101248  0.10451  0  1.005416  0
H  H14  1  0.63310273  0.30019156  0.61377786  1  0.063386  0  0.099176  0.097655  0  1.010413  0
H  H15  1  0.94359486  0.26650832  0.61253917  1  0.072577  0  0.104172  0.107779  0  1.007856  0
H  H16  1  0.93192849  0.39029002  0.53940200  1  0.052431  0  0.099059  0.097519  0  1.032719  0
H  H17  1  0.93688145  0.55176378  0.53694952  1  0.076889  0  0.100293  0.101229  0  1.029552  0
H  H18  1  0.02739407  0.97482515  0.60452766  1  0.13726  0  0.12506  0.102916  0  1.004239  0
H  H19  1  0.05808197  0.70477139  0.60258583  1  0.10592  0  0.126014  0.100372  0  0.98484  0
H  H20  1  0.23655145  0.70160463  0.60545163  1  0.08243  0  0.113699  0.117969  0  0.994695  0
H  H21  1  0.20308718  0.98443624  0.61375810  1  0.083218  0  0.111054  0.11657  0  1.029802  0
H  H22  1  0.36835119  0.71266858  0.66455354  1  0.06902  0  0.114411  0.119965  0  0.993704  0
H  H23  1  0.34799992  0.97996129  0.56315499  1  0.09993  0  0.113391  0.127191  0  1.021391  0
H  H24  1  0.54647553  0.72159944  0.66252853  1  0.134313  0  0.12639  0.101672  0  0.992136  0
H  H25  1  0.52541011  0.97879016  0.57442856  1  0.109451  0  0.123499  0.095954  0  1.006714  0
H  H26  1  0.65951697  0.57810997  0.67863246  1  0.090779  0  0.102059  0.103169  0  1.00819  0
H  H27  1  0.65509702  0.41683271  0.68582101  1  0.051054  0  0.100567  0.100159  0  1.007275  0
H  H28  1  0.07288142  0.23703714  0.12591469  1  0.090158  0  0.104507  0.110147  0  0.997296  0
H  H29  1  0.07170651  0.24288612  0.96351603  1  0.051109  0  0.100635  0.098787  0  1.007855  0
H  H30  1  0.35634613  0.10882683  0.94408327  1  0.063184  0  0.099166  0.097534  0  1.010325  0
H  H31  1  0.36443242  0.18004243  0.81771407  1  0.030034  0  0.101011  0.100057  0  1.006853  0
H  H32  1  0.35810786  0.10897440  0.10626804  1  0.09514  0  0.103759  0.109128  0  0.998451  0
H  H33  1  0.35945296  0.16872038  0.65666279  1  0.090024  0  0.101115  0.106898  0  1.003294  0
H  H34  1  0.05292075  0.15544224  0.68757438  1  0.087992  0  0.101677  0.103211  0  1.032397  0
H  H35  1  0.05647183  0.16388701  0.84835500  1  0.096098  0  0.103072  0.103714  0  1.002569  0
H  H36  1  0.06367249  0.89317645  0.38963389  1  0.069616  0  0.102638  0.104128  0  1.029649  0
H  H37  1  0.37250991  0.86093516  0.38554336  1  0.087898  0  0.101272  0.104553  0  1.005355  0
H  H38  1  0.36689858  0.69981000  0.38622185  1  0.063422  0  0.09918  0.09765  0  1.010397  0
H  H39  1  0.05640514  0.73349193  0.38746001  1  0.072581  0  0.104152  0.10777  0  1.007781  0
H  H40  1  0.06807366  0.60971023  0.46059834  1  0.052474  0  0.099065  0.09757  0  1.032646  0
H  H41  1  0.06312142  0.44823647  0.46304881  1  0.076826  0  0.10028  0.101192  0  1.02952  0
H  H42  1  0.97260714  0.02517772  0.39546744  1  0.137283  0  0.125032  0.102857  0  1.00421  0
H  H43  1  0.94191497  0.29523082  0.39741676  1  0.105938  0  0.126024  0.100367  0  0.984841  0
H  H44  1  0.76344643  0.29839496  0.39455620  1  0.082377  0  0.113686  0.117954  0  0.994617  0
H  H45  1  0.79691480  0.01556598  0.38623697  1  0.083283  0  0.111066  0.116604  0  1.029812  0
H  H46  1  0.63164801  0.28733231  0.33545416  1  0.069464  0  0.114403  0.119994  0  0.993654  0
H  H47  1  0.65200210  0.02003244  0.43683576  1  0.099929  0  0.113438  0.127225  0  1.021341  0
H  H48  1  0.45352296  0.27840144  0.33748248  1  0.134405  0  0.126369  0.10168  0  0.992091  0
H  H49  1  0.47459174  0.02120552  0.42556345  1  0.109136  0  0.123508  0.095964  0  1.006738  0
H  H50  1  0.34048651  0.42189159  0.32136644  1  0.090988  0  0.102091  0.103208  0  1.008069  0
H  H51  1  0.34490423  0.58316950  0.31417802  1  0.050909  0  0.100551  0.100144  0  1.007267  0
C  C52  1  0.78522453  0.83347781  0.77633747  1  1.544833  0  0.211397  0.589111  0  4.178781  0
C  C53  1  0.78478675  0.82795185  0.87412114  1  0.005207  0  -0.019378  -0.031862  0  3.966035  0
C  C54  1  0.86529658  0.79032729  0.91494859  1  -0.064444  0  -0.084831  -0.087274  0  3.98986  0
C  C55  1  0.86579919  0.78817413  0.00573142  1  -0.032076  0  -0.092007  -0.13642  0  3.992204  0
C  C56  1  0.70545074  0.86116665  0.01674872  1  -0.063076  0  -0.093681  -0.138434  0  3.99475  0
C  C57  1  0.79547792  0.84586132  0.43524400  1  1.541739  0  0.207513  0.575546  0  4.200847  0
C  C58  1  0.79384365  0.83930447  0.33806004  1  -0.039608  0  -0.027003  -0.05187  0  3.993425  0
C  C59  1  0.70408608  0.82668130  0.21018139  1  -0.052571  0  -0.093882  -0.138064  0  3.990553  0
C  C60  1  0.70428527  0.86218180  0.92605446  1  -0.052309  0  -0.085672  -0.088726  0  3.991829  0
C  C61  1  0.70633671  0.83254440  0.30032983  1  -0.013551  0  -0.089106  -0.090867  0  4.001099  0
C  C62  1  0.87905186  0.83939980  0.28332334  1  -0.102407  0  -0.086929  -0.088386  0  3.987726  0
C  C63  1  0.87669687  0.83376556  0.19312221  1  -0.049187  0  -0.089891  -0.131593  0  3.975422  0
C  C64  1  0.78914316  0.82772124  0.15452691  1  0.025927  0  -0.002279  0.076691  0  3.993426  0
C  C65  1  0.78654894  0.82486620  0.05844770  1  0.014675  0  -0.006867  0.069013  0  4.001997  0
C  C66  1  0.77857408  0.01541952  0.60980527  1  1.570403  0  0.211338  0.586388  0  4.185175  0
C  C67  1  0.78139317  0.11246829  0.61326619  1  -0.030394  0  -0.022905  -0.042782  0  3.975031  0
C  C68  1  0.86990511  0.14949551  0.61262399  1  0.008753  0  -0.084149  -0.08597  0  3.981374  0
C  C69  1  0.69625700  0.16786428  0.61474097  1  -0.088415  0  -0.088315  -0.090393  0  4.001287  0
C  C70  1  0.69990322  0.25806148  0.61499182  1  -0.020345  0  -0.095726  -0.142083  0  3.995405  0
C  C71  1  0.87364775  0.23956902  0.61296599  1  -0.07091  0  -0.090164  -0.13422  0  3.973887  0
C  C72  1  0.78864399  0.29576261  0.61389181  1  -0.027297  0  -0.007753  0.066915  0  4.009971  0
C  C73  1  0.79248967  0.39149799  0.61197744  1  -0.001385  0  -0.007614  0.070813  0  4.007167  0
C  C74  1  0.87214871  0.43104164  0.57083380  1  -0.084374  0  -0.093971  -0.141739  0  3.986258  0
C  C75  1  0.87512105  0.52144502  0.56884682  1  -0.017142  0  -0.086561  -0.088087  0  3.989517  0
C  C76  1  0.79810711  0.57516096  0.60683585  1  -0.001598  0  -0.019097  -0.03325  0  3.967066  0
C  C77  1  0.07695308  0.91623994  0.60605727  1  0.489611  0  0.062484  0.113033  0  3.891706  0
C  C78  1  0.09434998  0.76486243  0.60473265  1  0.498404  0  0.060592  0.103974  0  3.925493  0
C  C79  1  0.19352860  0.76403150  0.60779720  1  0.009887  0  -0.074145  -0.165097  0  3.943705  0
C  C80  1  0.23634525  0.84335232  0.61089590  1  -0.022424  0  0.018078  0.102477  0  3.971464  0
C  C81  1  0.17528540  0.92062617  0.61046626  1  0.007186  0  -0.070828  -0.151322  0  3.910032  0
C  C82  1  0.34161205  0.84587132  0.61380692  1  0.059309  0  0.019528  0.111265  0  3.965126  0
C  C83  1  0.39956221  0.77285139  0.64212443  1  -0.015112  0  -0.075715  -0.171679  0  3.944003  0
C  C84  1  0.38769159  0.92157016  0.58821724  1  -0.054968  0  -0.072006  -0.161963  0  3.912696  0
C  C85  1  0.49849242  0.77714634  0.64256186  1  0.463627  0  0.058815  0.103047  0  3.925222  0
C  C86  1  0.48676193  0.92116146  0.59213714  1  0.500657  0  0.057008  0.098678  0  3.916185  0
C  C87  1  0.79952051  0.67266885  0.60392646  1  1.568904  0  0.214426  0.593488  0  4.169942  0
C  C88  1  0.71865334  0.53624989  0.64804796  1  -0.093147  0  -0.086085  -0.086904  0  4.000432  0
C  C89  1  0.71616999  0.44596569  0.65111252  1  -0.005908  0  -0.094028  -0.138622  0  3.996738  0
C  C90  1  0.21477696  0.16652178  0.22366162  1  1.544823  0  0.211384  0.589101  0  4.178799  0
C  C91  1  0.21521391  0.17204906  0.12587798  1  0.005226  0  -0.019399  -0.03186  0  3.965965  0
C  C92  1  0.13470485  0.20967296  0.08505115  1  -0.064448  0  -0.084875  -0.087328  0  3.989908  0
C  C93  1  0.13420146  0.21182677  0.99426834  1  -0.032062  0  -0.091959  -0.136376  0  3.992124  0
C  C94  1  0.29454986  0.13883491  0.98325037  1  -0.063129  0  -0.093684  -0.138397  0  3.994767  0
C  C95  1  0.20452213  0.15413828  0.56475585  1  1.542094  0  0.207549  0.575699  0  4.200809  0
C  C96  1  0.20615365  0.16069382  0.66194004  1  -0.039238  0  -0.026901  -0.051841  0  3.993443  0
C  C97  1  0.29591421  0.17331568  0.78981852  1  -0.052552  0  -0.093897  -0.1381  0  3.990668  0
C  C98  1  0.29571760  0.13781845  0.07394453  1  -0.052317  0  -0.085662  -0.088761  0  3.991761  0
C  C99  1  0.29366142  0.16745258  0.69966958  1  -0.013876  0  -0.089163  -0.090942  0  4.001237  0
C  C100  1  0.12094675  0.16059980  0.71667661  1  -0.102442  0  -0.086942  -0.088366  0  3.987532  0
C  C101  1  0.12330234  0.16623534  0.80687962  1  -0.060664  0  -0.089937  -0.13166  0  3.975468  0
C  C102  1  0.21085546  0.17227836  0.84547238  1  0.025871  0  -0.002211  0.076702  0  3.993478  0
C  C103  1  0.21345249  0.17513405  0.94155138  1  0.014679  0  -0.006892  0.069017  0  4.001924  0
C  C104  1  0.22142221  0.98458204  0.39019478  1  1.570424  0  0.211321  0.586284  0  4.18524  0
C  C105  1  0.21860760  0.88753130  0.38673492  1  -0.030293  0  -0.02294  -0.042843  0  3.975162  0
C  C106  1  0.13009128  0.85050474  0.38737674  1  0.0086  0  -0.084104  -0.085932  0  3.981217  0
C  C107  1  0.30373995  0.83213793  0.38525966  1  -0.088401  0  -0.088331  -0.090461  0  4.001495  0
C  C108  1  0.30009659  0.74194073  0.38500862  1  -0.020344  0  -0.095692  -0.141999  0  3.995322  0
C  C109  1  0.12635368  0.76043123  0.38703375  1  -0.070836  0  -0.090194  -0.13428  0  3.973931  0
C  C110  1  0.21135661  0.70423895  0.38610729  1  -0.027309  0  -0.00774  0.066938  0  4.010048  0
C  C111  1  0.20751236  0.60850357  0.38802287  1  -0.00169  0  -0.007618  0.070778  0  4.007262  0
C  C112  1  0.12785493  0.56895796  0.42916711  1  -0.08434  0  -0.094027  -0.141901  0  3.986365  0
C  C113  1  0.12488182  0.47855523  0.43115346  1  -0.017049  0  -0.086494  -0.08794  0  3.989384  0
C  C114  1  0.20189564  0.42484059  0.39316244  1  -0.001509  0  -0.019071  -0.03319  0  3.966947  0
C  C115  1  0.92304890  0.08376227  0.39394171  1  0.489618  0  0.062561  0.113179  0  3.891527  0
C  C116  1  0.90564840  0.23513978  0.39526984  1  0.498364  0  0.060513  0.103886  0  3.925675  0
C  C117  1  0.80646845  0.23596939  0.39220673  1  0.009788  0  -0.074068  -0.164962  0  3.943581  0
C  C118  1  0.76365402  0.15664793  0.38910594  1  -0.022308  0  0.018064  0.102398  0  3.971328  0
C  C119  1  0.82471459  0.07937408  0.38953357  1  0.007151  0  -0.070876  -0.151441  0  3.909925  0
C  C120  1  0.65838734  0.15412763  0.38619299  1  0.059273  0  0.019542  0.11148  0  3.965007  0
C  C121  1  0.60043795  0.22714689  0.35788002  1  -0.01546  0  -0.075739  -0.171924  0  3.944117  0
C  C122  1  0.61231097  0.07842552  0.41177864  1  -0.055075  0  -0.072032  -0.162039  0  3.912464  0
C  C123  1  0.50150624  0.22285260  0.35744267  1  0.463845  0  0.058861  0.103192  0  3.925072  0
C  C124  1  0.51323836  0.07883552  0.40785951  1  0.501377  0  0.056996  0.098636  0  3.916132  0
C  C125  1  0.20048169  0.32733075  0.39607193  1  1.569006  0  0.214487  0.593627  0  4.169832  0
C  C126  1  0.28134792  0.46375232  0.35195107  1  -0.093636  0  -0.086178  -0.087083  0  4.000569  0
C  C127  1  0.28383360  0.55403456  0.34888707  1  -0.005332  0  -0.094008  -0.138527  0  3.996814  0
N  N128  1  0.03700717  0.83965538  0.60343498  1  -1.257302  0  -0.321288  -0.201497  0  3.526861  0
N  N129  1  0.54151867  0.85010611  0.61790434  1  -1.238278  0  -0.319615  -0.194625  0  3.521082  0
N  N130  1  0.96299199  0.16034617  0.39656487  1  -1.257262  0  -0.321297  -0.201532  0  3.527056  0
N  N131  1  0.45848299  0.14989153  0.38209807  1  -1.238922  0  -0.319608  -0.194618  0  3.521065  0
O  O132  1  0.69759482  0.98575579  0.59925078  1  -1.175141  0  -0.318309  -0.555269  0  2.327256  0
O  O133  1  0.85796178  0.96931975  0.61671471  1  -1.179084  0  -0.313033  -0.552913  0  2.355278  0
O  O134  1  0.86471273  0.81287891  0.73258125  1  -1.165695  0  -0.320307  -0.55012  0  2.319776  0
O  O135  1  0.70579941  0.85931796  0.74404171  1  -1.165211  0  -0.322498  -0.546967  0  2.319937  0
O  O136  1  0.71988895  0.71652875  0.62454451  1  -1.17835  0  -0.316939  -0.558198  0  2.340891  0
O  O137  1  0.87951905  0.70457767  0.58120272  1  -1.16661  0  -0.319087  -0.547816  0  2.299662  0
O  O138  1  0.71482639  0.84281614  0.47999073  1  -1.168993  0  -0.323482  -0.558212  0  2.343155  0
O  O139  1  0.87633295  0.85494794  0.46615237  1  -1.164136  0  -0.317763  -0.545098  0  2.308499  0
O  O140  1  0.30240385  0.01424315  0.40075049  1  -1.175086  0  -0.31831  -0.555192  0  2.327198  0
O  O141  1  0.14203744  0.03068115  0.38328516  1  -1.179167  0  -0.313013  -0.55284  0  2.355329  0
O  O142  1  0.13528732  0.18712068  0.26741729  1  -1.16567  0  -0.320283  -0.55011  0  2.319754  0
O  O143  1  0.29419998  0.14068098  0.25595820  1  -1.165231  0  -0.322499  -0.546948  0  2.320055  0
O  O144  1  0.28011171  0.28347215  0.37545330  1  -1.178409  0  -0.316895  -0.558171  0  2.34092  0
O  O145  1  0.12048292  0.29542455  0.41879561  1  -1.166631  0  -0.319192  -0.547992  0  2.299766  0
O  O146  1  0.28517001  0.15718411  0.52001066  1  -1.169361  0  -0.323474  -0.558245  0  2.343398  0
O  O147  1  0.12366279  0.14505166  0.53384581  1  -1.164129  0  -0.317816  -0.545222  0  2.308286  0
