# generated using pymatgen
data_Zn4H4C40O13F16
_symmetry_space_group_name_H-M   'P 1'
_cell_length_a   23.85137537
_cell_length_b   23.85300004
_cell_length_c   23.85125813
_cell_angle_alpha   66.14190897
_cell_angle_beta   72.68279107
_cell_angle_gamma   107.32687110
_symmetry_Int_Tables_number   1
_chemical_formula_structural   Zn4H4C40O13F16
_chemical_formula_sum   'Zn8 H8 C80 O26 F32'
_cell_volume   10399.92397121
_cell_formula_units_Z   2
loop_
 _symmetry_equiv_pos_site_id
 _symmetry_equiv_pos_as_xyz
  1  'x, y, z'
loop_
 _atom_site_type_symbol
 _atom_site_label
 _atom_site_symmetry_multiplicity
 _atom_site_fract_x
 _atom_site_fract_y
 _atom_site_fract_z
 _atom_site_occupancy
 _atom_site_pbe_bader_charge
 _atom_site_pbe_bader_spin_density
 _atom_site_pbe_cm5_charge
 _atom_site_pbe_ddec_charge
 _atom_site_pbe_ddec_spin_density
 _atom_site_pbe_ddec_sum_bond_order
 _atom_site_pbe_magmom
Zn  Zn0  1  0.05647391  0.95594557  0.48759544  1  1.31979  0  0.678593  0.97158  0  2.370974  0
Zn  Zn1  1  0.05647181  0.10052927  0.45594486  1  1.318962  0  0.678545  0.971449  0  2.37117  0
Zn  Zn2  1  0.94352238  0.98759276  0.45593607  1  1.319968  0  0.678523  0.971464  0  2.371092  0
Zn  Zn3  1  0.94354144  0.95594238  0.60053071  1  1.318812  0  0.678693  0.971643  0  2.370859  0
Zn  Zn4  1  0.94352914  0.54405750  0.01240427  1  1.319833  0  0.678601  0.971511  0  2.371103  0
Zn  Zn5  1  0.05647883  0.51241056  0.04406284  1  1.319912  0  0.678548  0.971468  0  2.37101  0
Zn  Zn6  1  0.94352933  0.39947153  0.04405873  1  1.318903  0  0.678539  0.971312  0  2.37151  0
Zn  Zn7  1  0.05645792  0.54405485  0.89946926  1  1.318819  0  0.678549  0.971483  0  2.370984  0
H  H8  1  0.92403824  0.79844926  0.77750748  1  0.122852  0  0.11247  0.119763  0  0.987367  0
H  H9  1  0.07596346  0.70155188  0.72249232  1  0.122818  0  0.112447  0.119754  0  0.987368  0
H  H10  1  0.92403639  0.70154652  0.87441197  1  0.120772  0  0.112449  0.119814  0  0.987271  0
H  H11  1  0.07596376  0.79845359  0.62558829  1  0.116138  0  0.112458  0.119818  0  0.987282  0
H  H12  1  0.92403671  0.12559544  0.29843589  1  0.120893  0  0.112507  0.119732  0  0.987402  0
H  H13  1  0.07596615  0.37440813  0.20156356  1  0.120832  0  0.112491  0.119716  0  0.987395  0
H  H14  1  0.92403915  0.22250032  0.20153498  1  0.122781  0  0.112426  0.119725  0  0.987304  0
H  H15  1  0.07596302  0.27750309  0.29846558  1  0.122679  0  0.112438  0.119759  0  0.987266  0
C  C16  1  0.18050220  0.09025820  0.40974313  1  1.603315  0  0.228338  0.637582  0  4.164846  0
C  C17  1  0.99999823  0.13921718  0.36078338  1  1.556803  0  0.229336  0.601846  0  4.170558  0
C  C18  1  0.99999218  0.90974586  0.40975732  1  1.608297  0  0.228388  0.637394  0  4.164912  0
C  C19  1  0.81950131  0.90973696  0.59026949  1  1.603128  0  0.228342  0.637468  0  4.164985  0
C  C20  1  0.00000322  0.86078329  0.63921809  1  1.556822  0  0.229382  0.601917  0  4.170521  0
C  C21  1  0.99998949  0.09024553  0.59025718  1  1.627695  0  0.228394  0.637383  0  4.164961  0
C  C22  1  0.99999785  0.59024025  0.09025781  1  1.608506  0  0.228232  0.637195  0  4.165034  0
C  C23  1  0.00000351  0.36078580  0.13921749  1  1.556077  0  0.229392  0.602035  0  4.17033  0
C  C24  1  0.81950013  0.40974700  0.09024367  1  1.602448  0  0.228527  0.637726  0  4.16474  0
C  C25  1  0.99999544  0.40973664  0.90976111  1  1.627559  0  0.22834  0.637601  0  4.165006  0
C  C26  1  0.99999717  0.63921653  0.86078305  1  1.556631  0  0.229302  0.601809  0  4.170609  0
C  C27  1  0.18049899  0.59024395  0.90973714  1  1.603183  0  0.228176  0.637116  0  4.165344  0
C  C28  1  0.00000145  0.80347381  0.69652493  1  0.00699  0  -0.01334  -0.03326  0  3.972944  0
C  C29  1  0.99999943  0.69652546  0.80347502  1  0.006999  0  -0.01328  -0.033175  0  3.972936  0
C  C30  1  0.95693477  0.77668769  0.76637454  1  -0.072104  0  -0.077091  -0.088965  0  3.964533  0
C  C31  1  0.04306606  0.72331258  0.73362503  1  -0.07135  0  -0.077116  -0.088995  0  3.964585  0
C  C32  1  0.95693438  0.72331003  0.81975288  1  -0.054797  0  -0.077093  -0.089079  0  3.964488  0
C  C33  1  0.04306669  0.77668996  0.68024716  1  -0.050204  0  -0.077115  -0.089096  0  3.964491  0
C  C34  1  0.99999849  0.19652464  0.30347486  1  0.007137  0  -0.013334  -0.033243  0  3.972814  0
C  C35  1  0.00000301  0.30347861  0.19652680  1  0.007438  0  -0.013479  -0.033433  0  3.972836  0
C  C36  1  0.95693449  0.18025184  0.27668071  1  -0.055237  0  -0.076858  -0.088607  0  3.964175  0
C  C37  1  0.04306744  0.31975185  0.22332023  1  -0.054488  0  -0.076783  -0.088479  0  3.964114  0
C  C38  1  0.95693503  0.23363122  0.22330290  1  -0.071584  0  -0.077278  -0.089217  0  3.964524  0
C  C39  1  0.04306622  0.26637232  0.27669831  1  -0.071699  0  -0.077326  -0.089361  0  3.964475  0
C  C40  1  0.99999686  0.62778902  0.12781979  1  0.06598  0  -0.025496  -0.220888  0  3.949981  0
C  C41  1  0.95727316  0.65752196  0.13536137  1  0.646734  0  0.103337  0.175547  0  4.073975  0
C  C42  1  0.95734623  0.69227651  0.17019459  1  0.506298  0  0.099266  0.133331  0  4.064906  0
C  C43  1  0.99999426  0.69964215  0.19966948  1  0.229276  0  -0.00653  -0.035834  0  4.176911  0
C  C44  1  0.04264359  0.67017596  0.19231298  1  0.504867  0  0.09932  0.133525  0  4.065209  0
C  C45  1  0.04271870  0.63534418  0.15755719  1  0.6451  0  0.103265  0.1754  0  4.07445  0
C  C46  1  0.99999052  0.73475996  0.23478922  1  -0.031013  0  -0.022567  -0.037959  0  4.088706  0
C  C47  1  0.99998478  0.76520714  0.26524548  1  -0.241656  0  -0.022512  -0.03796  0  4.088953  0
C  C48  1  0.99997734  0.80032071  0.30036846  1  0.231438  0  -0.006633  -0.035935  0  4.177328  0
C  C49  1  0.95734015  0.82980297  0.30771056  1  0.504623  0  0.099269  0.133446  0  4.065043  0
C  C50  1  0.95726285  0.86463255  0.34246747  1  0.647344  0  0.103216  0.175503  0  4.074336  0
C  C51  1  0.99997371  0.87217123  0.37222117  1  0.066629  0  -0.025557  -0.221085  0  3.950096  0
C  C52  1  0.04267781  0.84241617  0.36470049  1  0.64536  0  0.103331  0.175585  0  4.07413  0
C  C53  1  0.04261059  0.80766907  0.32985959  1  0.504866  0  0.099567  0.133556  0  4.065441  0
C  C54  1  0.00000892  0.37217490  0.87221344  1  0.057521  0  -0.025481  -0.221146  0  3.95011  0
C  C55  1  0.04273651  0.40734584  0.79975887  1  0.652868  0  0.103361  0.175712  0  4.073963  0
C  C56  1  0.04265933  0.37243861  0.76507893  1  0.511324  0  0.099377  0.133597  0  4.065003  0
C  C57  1  0.00000271  0.30032446  0.80036155  1  0.205775  0  -0.006918  -0.036091  0  4.177222  0
C  C58  1  0.95735875  0.26504199  0.87247646  1  0.513413  0  0.099642  0.133852  0  4.064786  0
C  C59  1  0.95728972  0.29972348  0.90738194  1  0.652949  0  0.103373  0.175452  0  4.074377  0
C  C60  1  0.99999527  0.26521041  0.76524084  1  -0.241574  0  -0.022513  -0.037885  0  4.088962  0
C  C61  1  0.99998780  0.23476727  0.73478106  1  -0.032008  0  -0.022417  -0.038002  0  4.089119  0
C  C62  1  0.99997895  0.19965464  0.69965840  1  0.205367  0  -0.006567  -0.035785  0  4.177425  0
C  C63  1  0.04261058  0.23494201  0.62753979  1  0.512779  0  0.099393  0.13347  0  4.065193  0
C  C64  1  0.04267915  0.20026582  0.59263023  1  0.653234  0  0.103294  0.175632  0  4.073875  0
C  C65  1  0.99997529  0.12780883  0.62780390  1  0.056808  0  -0.025447  -0.220973  0  3.949981  0
C  C66  1  0.95726192  0.09263174  0.70026295  1  0.652911  0  0.103247  0.175531  0  4.07418  0
C  C67  1  0.95734007  0.12753783  0.73494431  1  0.512666  0  0.099394  0.133553  0  4.064754  0
C  C68  1  0.74439062  0.37218931  0.12780281  1  0.038455  0  -0.025603  -0.221215  0  3.950299  0
C  C69  1  0.70710858  0.40736242  0.13533790  1  0.530321  0  0.103454  0.175739  0  4.073839  0
C  C70  1  0.63752120  0.37245551  0.17016843  1  0.623844  0  0.099271  0.13336  0  4.065198  0
C  C71  1  0.60068944  0.30033864  0.19965079  1  0.108096  0  -0.006453  -0.035745  0  4.177368  0
C  C72  1  0.63752024  0.26505152  0.19230544  1  0.500332  0  0.099379  0.133494  0  4.065027  0
C  C73  1  0.70710673  0.29973215  0.15755143  1  0.686697  0  0.103352  0.1756  0  4.074223  0
C  C74  1  0.53045371  0.26522608  0.23476012  1  0.148545  0  -0.022592  -0.038102  0  4.089008  0
C  C75  1  0.46955043  0.23478475  0.26519872  1  -0.165748  0  -0.022444  -0.037825  0  4.088985  0
C  C76  1  0.39931523  0.19967060  0.30031273  1  0.105851  0  -0.006767  -0.035938  0  4.177281  0
C  C77  1  0.36248389  0.23495449  0.30767211  1  0.500975  0  0.099607  0.133768  0  4.064974  0
C  C78  1  0.29289715  0.20027415  0.34242314  1  0.686885  0  0.103262  0.17526  0  4.074428  0
C  C79  1  0.25561256  0.12782262  0.37215924  1  0.038366  0  -0.025428  -0.221041  0  3.949947  0
C  C80  1  0.29289480  0.09265036  0.36460237  1  0.531638  0  0.103272  0.175495  0  4.07406  0
C  C81  1  0.36248125  0.12755740  0.32977081  1  0.623582  0  0.099346  0.133649  0  4.064891  0
C  C82  1  0.25560912  0.62778759  0.87218554  1  0.038856  0  -0.025561  -0.221136  0  3.95012  0
C  C83  1  0.29289768  0.63531755  0.90736087  1  0.530436  0  0.103334  0.175685  0  4.07418  0
C  C84  1  0.36248403  0.67015392  0.87245153  1  0.622893  0  0.099389  0.133233  0  4.065543  0
C  C85  1  0.39931180  0.69964034  0.80033082  1  0.108434  0  -0.006583  -0.035518  0  4.177523  0
C  C86  1  0.36247375  0.69229319  0.76504411  1  0.500727  0  0.099209  0.133163  0  4.065493  0
C  C87  1  0.29288747  0.65753485  0.79972600  1  0.68533  0  0.103203  0.175411  0  4.074241  0
C  C88  1  0.46954740  0.73475590  0.76522075  1  0.148463  0  -0.022571  -0.038238  0  4.08904  0
C  C89  1  0.53045158  0.76520278  0.73479014  1  -0.16567  0  -0.022435  -0.037828  0  4.088875  0
C  C90  1  0.60068657  0.80032193  0.69967756  1  0.107011  0  -0.006859  -0.035902  0  4.177441  0
C  C91  1  0.63752635  0.80768701  0.73495993  1  0.501746  0  0.099442  0.133485  0  4.065158  0
C  C92  1  0.70711397  0.84244094  0.70027815  1  0.685269  0  0.103329  0.175496  0  4.074131  0
C  C93  1  0.74439142  0.87217214  0.62782278  1  0.037921  0  -0.025503  -0.221168  0  3.950225  0
C  C94  1  0.70710111  0.86461953  0.59265243  1  0.531357  0  0.103349  0.175764  0  4.073777  0
C  C95  1  0.63751462  0.82978616  0.62756103  1  0.623565  0  0.099396  0.133568  0  4.0649  0
O  O96  1  0.00000012  0.00000192  0.49999907  1  -1.230357  0  -0.571989  -1.039178  0  2.539824  0
O  O97  1  0.15188971  0.02499786  0.43484891  1  -1.160635  0  -0.309741  -0.535756  0  2.356863  0
O  O98  1  0.04030098  0.15731438  0.38298799  1  -1.172992  0  -0.312649  -0.543441  0  2.345518  0
O  O99  1  0.95981467  0.93483479  0.41327637  1  -1.156652  0  -0.30977  -0.535707  0  2.356369  0
O  O100  1  0.15189021  0.12690275  0.41327471  1  -1.155794  0  -0.309818  -0.535684  0  2.35645  0
O  O101  1  0.04017191  0.91328958  0.43483172  1  -1.156444  0  -0.309838  -0.535658  0  2.35693  0
O  O102  1  0.95969137  0.07671392  0.38298121  1  -1.169797  0  -0.31269  -0.543497  0  2.345422  0
O  O103  1  0.84811032  0.93483821  0.52499822  1  -1.160238  0  -0.309855  -0.535888  0  2.356052  0
O  O104  1  0.95970641  0.88298681  0.65731738  1  -1.172926  0  -0.312651  -0.543433  0  2.345474  0
O  O105  1  0.84811829  0.91326396  0.62690717  1  -1.156281  0  -0.309665  -0.535454  0  2.357193  0
O  O106  1  0.04030577  0.88298489  0.57671373  1  -1.169814  0  -0.312683  -0.543559  0  2.345288  0
O  O107  1  0.04016998  0.12689239  0.52499677  1  -1.164385  0  -0.309896  -0.535844  0  2.356464  0
O  O108  1  0.95983278  0.02499046  0.62690130  1  -1.164578  0  -0.309819  -0.535663  0  2.356955  0
O  O109  1  0.00000143  0.49999945  0.00000002  1  -1.23034  0  -0.571955  -1.039049  0  2.539853  0
O  O110  1  0.95983393  0.58671787  0.06516331  1  -1.156436  0  -0.309696  -0.535533  0  2.356963  0
O  O111  1  0.04031221  0.42328883  0.11701626  1  -1.169607  0  -0.312734  -0.543632  0  2.345428  0
O  O112  1  0.84811192  0.37310173  0.08671412  1  -1.155508  0  -0.309919  -0.535744  0  2.356543  0
O  O113  1  0.04017337  0.56515057  0.08673954  1  -1.156512  0  -0.309715  -0.535583  0  2.356367  0
O  O114  1  0.84811279  0.47500325  0.06515582  1  -1.160203  0  -0.309776  -0.535837  0  2.356907  0
O  O115  1  0.95969875  0.34268711  0.11701575  1  -1.172955  0  -0.312633  -0.543461  0  2.345524  0
O  O116  1  0.95982626  0.37309348  0.97501736  1  -1.16477  0  -0.309716  -0.535553  0  2.356829  0
O  O117  1  0.04029757  0.61701453  0.84268124  1  -1.172738  0  -0.312653  -0.543494  0  2.345327  0
O  O118  1  0.04015116  0.47499931  0.87310993  1  -1.164116  0  -0.309815  -0.535859  0  2.356653  0
O  O119  1  0.95969534  0.61701410  0.92328458  1  -1.169819  0  -0.312595  -0.54338  0  2.345515  0
O  O120  1  0.15189001  0.56516836  0.97499772  1  -1.160657  0  -0.309794  -0.535702  0  2.356558  0
O  O121  1  0.15188146  0.58671381  0.87309459  1  -1.155991  0  -0.309618  -0.535387  0  2.357054  0
F  F122  1  0.91432890  0.65386277  0.10946203  1  -0.60463  0  -0.079846  -0.088907  0  1.395738  0
F  F123  1  0.08566492  0.60944899  0.15391092  1  -0.604457  0  -0.079989  -0.089034  0  1.395546  0
F  F124  1  0.08445246  0.67582109  0.21960205  1  -0.614324  0  -0.082927  -0.0973  0  1.363362  0
F  F125  1  0.91553503  0.71955698  0.17583345  1  -0.614482  0  -0.082965  -0.09726  0  1.363132  0
F  F126  1  0.91554526  0.82417296  0.28040412  1  -0.614359  0  -0.082912  -0.097228  0  1.363276  0
F  F127  1  0.08440404  0.78036549  0.32424704  1  -0.614682  0  -0.083048  -0.097309  0  1.363615  0
F  F128  1  0.08560257  0.84605048  0.39062653  1  -0.60515  0  -0.079903  -0.088965  0  1.395521  0
F  F129  1  0.91433033  0.89054415  0.34609552  1  -0.605307  0  -0.079872  -0.088988  0  1.395792  0
F  F130  1  0.08568927  0.47618222  0.76047310  1  -0.606416  0  -0.079942  -0.089066  0  1.395624  0
F  F131  1  0.91434767  0.26043426  0.97622247  1  -0.606642  0  -0.080057  -0.089037  0  1.395572  0
F  F132  1  0.91554481  0.19595188  0.90864136  1  -0.611104  0  -0.083055  -0.09744  0  1.363186  0
F  F133  1  0.08446817  0.40860038  0.69598942  1  -0.610473  0  -0.082925  -0.097384  0  1.363275  0
F  F134  1  0.08440554  0.30403717  0.59137143  1  -0.611073  0  -0.082929  -0.097271  0  1.363339  0
F  F135  1  0.91554604  0.09137207  0.80403811  1  -0.611003  0  -0.083028  -0.097371  0  1.363027  0
F  F136  1  0.91433014  0.02379176  0.73955477  1  -0.606538  0  -0.079877  -0.089009  0  1.395842  0
F  F137  1  0.08560307  0.23955625  0.52378668  1  -0.606149  0  -0.079968  -0.089042  0  1.395201  0
F  F138  1  0.73665944  0.47620420  0.10942466  1  -0.610097  0  -0.080005  -0.089035  0  1.395449  0
F  F139  1  0.73665542  0.26043769  0.15391919  1  -0.606896  0  -0.08003  -0.089058  0  1.395644  0
F  F140  1  0.60459189  0.19595673  0.21960581  1  -0.616131  0  -0.083038  -0.097369  0  1.363351  0
F  F141  1  0.60459592  0.40862569  0.17579175  1  -0.614674  0  -0.082947  -0.097283  0  1.36328  0
F  F142  1  0.39540984  0.30404628  0.28038791  1  -0.616199  0  -0.083024  -0.097407  0  1.36321  0
F  F143  1  0.39540935  0.09139642  0.32412158  1  -0.614482  0  -0.082911  -0.097388  0  1.363141  0
F  F144  1  0.26334348  0.02381401  0.39048800  1  -0.6098  0  -0.079897  -0.088949  0  1.395588  0
F  F145  1  0.26334660  0.23956405  0.34607328  1  -0.607043  0  -0.079999  -0.088907  0  1.395516  0
F  F146  1  0.26335226  0.60940102  0.97620541  1  -0.609817  0  -0.079926  -0.088963  0  1.395464  0
F  F147  1  0.26333215  0.65389972  0.76043282  1  -0.606572  0  -0.079921  -0.088894  0  1.395535  0
F  F148  1  0.39539537  0.71959537  0.69594716  1  -0.616095  0  -0.082857  -0.097163  0  1.363345  0
F  F149  1  0.39541653  0.67577579  0.90862276  1  -0.614177  0  -0.082887  -0.097124  0  1.363472  0
F  F150  1  0.60460754  0.78040437  0.80405325  1  -0.616391  0  -0.082904  -0.097275  0  1.363349  0
F  F151  1  0.60458069  0.82413932  0.59139769  1  -0.61454  0  -0.082942  -0.097385  0  1.363188  0
F  F152  1  0.73664422  0.89051024  0.52381178  1  -0.609875  0  -0.079974  -0.089103  0  1.395447  0
F  F153  1  0.73667129  0.84609847  0.73956513  1  -0.606261  0  -0.079952  -0.08893  0  1.395482  0
