# generated using pymatgen
data_GdH10C7O11
_symmetry_space_group_name_H-M   'P 1'
_cell_length_a   6.06255811
_cell_length_b   8.59752250
_cell_length_c   12.95772617
_cell_angle_alpha   99.06780856
_cell_angle_beta   101.93885485
_cell_angle_gamma   97.84535327
_symmetry_Int_Tables_number   1
_chemical_formula_structural   GdH10C7O11
_chemical_formula_sum   'Gd2 H20 C14 O22'
_cell_volume   642.45472562
_cell_formula_units_Z   2
loop_
 _symmetry_equiv_pos_site_id
 _symmetry_equiv_pos_as_xyz
  1  'x, y, z'
loop_
 _atom_site_type_symbol
 _atom_site_label
 _atom_site_symmetry_multiplicity
 _atom_site_fract_x
 _atom_site_fract_y
 _atom_site_fract_z
 _atom_site_occupancy
 _atom_site_hle17_bader_spin_density
 _atom_site_hle17_ddec_charge
 _atom_site_hle17_ddec_spin_density
 _atom_site_hle17_ddec_sum_bond_order
 _atom_site_hle17_magmom
 _atom_site_hse06_10hf_bader_spin_density
 _atom_site_hse06_10hf_ddec_charge
 _atom_site_hse06_10hf_ddec_spin_density
 _atom_site_hse06_10hf_ddec_sum_bond_order
 _atom_site_hse06_10hf_magmom
 _atom_site_hse06_bader_spin_density
 _atom_site_hse06_ddec_charge
 _atom_site_hse06_ddec_spin_density
 _atom_site_hse06_ddec_sum_bond_order
 _atom_site_hse06_magmom
 _atom_site_pbe_bader_spin_density
 _atom_site_pbe_cm5_charge
 _atom_site_pbe_ddec_charge
 _atom_site_pbe_ddec_spin_density
 _atom_site_pbe_ddec_sum_bond_order
 _atom_site_pbe_magmom
Gd  Gd0  1  0.74583710  0.22111093  0.71731036  1  0  2.130045  0  1.806379  0  0  2.033191  0  2.165397  0  0  2.085563  0  2.112157  0  0  1.442253  1.993892  0  2.205834  0
Gd  Gd1  1  0.25416127  0.77888666  0.28268901  1  0  2.130006  0  1.806378  0  0  2.033187  0  2.16533  0  0  2.085535  0  2.112134  0  0  1.442261  1.99388  0  2.205771  0
H  H2  1  0.66756632  0.30125816  0.95032490  1  0  0.398218  0  0.906489  0  0  0.370631  0  0.977116  0  0  0.381299  0  0.961668  0  0  0.307517  0.363117  0  0.987223  0
H  H3  1  0.33243263  0.69874186  0.04967326  1  0  0.398199  0  0.906508  0  0  0.370611  0  0.977143  0  0  0.38128  0  0.961693  0  0  0.307508  0.363096  0  0.987248  0
H  H4  1  0.11727234  0.50972000  0.75249503  1  0  0.404628  0  0.808587  0  0  0.389977  0  0.861498  0  0  0.398963  0  0.851562  0  0  0.340741  0.383468  0  0.868818  0
H  H5  1  0.88274150  0.49027877  0.24750905  1  0  0.404603  0  0.808606  0  0  0.389955  0  0.86151  0  0  0.398941  0  0.851574  0  0  0.340716  0.383444  0  0.868832  0
H  H6  1  0.66271726  0.91101781  0.80873901  1  0  0.412582  0  0.858569  0  0  0.386685  0  0.930719  0  0  0.397171  0  0.918629  0  0  0.317847  0.379314  0  0.939143  0
H  H7  1  0.33728930  0.08898579  0.19126184  1  0  0.412514  0  0.85861  0  0  0.386612  0  0.930776  0  0  0.397096  0  0.91869  0  0  0.317829  0.379243  0  0.939199  0
H  H8  1  0.43683429  0.24974921  0.07058862  1  0  0.38725  0  0.918963  0  0  0.355654  0  1.000711  0  0  0.366141  0  0.985593  0  0  0.297959  0.348314  0  1.009661  0
H  H9  1  0.56317199  0.75025324  0.92941052  1  0  0.387189  0  0.919033  0  0  0.355578  0  1.000807  0  0  0.366088  0  0.985664  0  0  0.297945  0.34824  0  1.009748  0
H  H10  1  0.00943552  0.28316394  0.53693261  1  0  0.461122  0  0.782473  0  0  0.448695  0  0.818384  0  0  0.456444  0  0.80759  0  0  0.34789  0.443102  0  0.826256  0
H  H11  1  0.99056903  0.71683137  0.46306399  1  0  0.461124  0  0.782486  0  0  0.448718  0  0.818358  0  0  0.456467  0  0.807563  0  0  0.347871  0.443124  0  0.826233  0
H  H12  1  0.17230231  0.26133040  0.64584282  1  0  0.447585  0  0.849995  0  0  0.415215  0  0.915215  0  0  0.427236  0  0.897663  0  0  0.306861  0.406719  0  0.927596  0
H  H13  1  0.82769660  0.73866243  0.35415527  1  0  0.447597  0  0.849986  0  0  0.415221  0  0.915218  0  0  0.427243  0  0.897666  0  0  0.306849  0.406723  0  0.927601  0
H  H14  1  0.31403832  0.87568119  0.81734961  1  0  0.082868  0  0.906262  0  0  0.091492  0  0.96411  0  0  0.093738  0  0.961875  0  0  0.123863  0.089804  0  0.965914  0
H  H15  1  0.68596454  0.12431397  0.18265222  1  0  0.082856  0  0.906243  0  0  0.091485  0  0.964094  0  0  0.093727  0  0.961867  0  0  0.123876  0.089798  0  0.965898  0
H  H16  1  0.24326901  0.00859217  0.98072252  1  0  0.063095  0  0.90121  0  0  0.071906  0  0.963801  0  0  0.07376  0  0.961111  0  0  0.115167  0.070345  0  0.966128  0
H  H17  1  0.75672853  0.99140897  0.01927795  1  0  0.063074  0  0.901288  0  0  0.071859  0  0.963859  0  0  0.073711  0  0.96117  0  0  0.115183  0.0703  0  0.966184  0
H  H18  1  0.78204923  0.57248049  0.99697225  1  0  0.068333  0  0.908371  0  0  0.076357  0  0.967442  0  0  0.078159  0  0.965747  0  0  0.118165  0.074904  0  0.968921  0
H  H19  1  0.21795676  0.42752077  0.00302673  1  0  0.068399  0  0.908311  0  0  0.07637  0  0.967426  0  0  0.07817  0  0.965735  0  0  0.118196  0.074917  0  0.968911  0
H  H20  1  0.05652841  0.69897355  0.89628451  1  0  0.075138  0  0.924027  0  0  0.080676  0  0.990576  0  0  0.083479  0  0.987425  0  0  0.114196  0.078585  0  0.993061  0
H  H21  1  0.94348178  0.30102410  0.10371600  1  0  0.07514  0  0.924026  0  0  0.080674  0  0.990619  0  0  0.083491  0  0.987445  0  0  0.114188  0.078559  0  0.993091  0
C  C22  1  0.40129226  0.00073334  0.84672167  1  0  0.05154  0  3.621356  0  0  0.025075  0  3.874388  0  0  0.026005  0  3.881567  0  0  0.001527  0.024214  0  3.869676  0
C  C23  1  0.59870500  0.99926663  0.15327787  1  0  0.051598  0  3.621134  0  0  0.025102  0  3.874178  0  0  0.026032  0  3.881357  0  0  0.001535  0.024237  0  3.869479  0
C  C24  1  0.25816019  0.10546377  0.78612145  1  0  0.704531  0  3.810916  0  0  0.654337  0  4.114878  0  0  0.688719  0  4.105321  0  0  0.238072  0.630905  0  4.120658  0
C  C25  1  0.74185310  0.89453278  0.21387614  1  0  0.704438  0  3.810959  0  0  0.654192  0  4.115039  0  0  0.688567  0  4.105488  0  0  0.238008  0.630758  0  4.120819  0
C  C26  1  0.41572814  0.04394739  0.96779016  1  0  0.154049  0  3.587447  0  0  0.117473  0  3.851437  0  0  0.123514  0  3.8593  0  0  -0.005477  0.113369  0  3.846101  0
C  C27  1  0.58427279  0.95605381  0.03220909  1  0  0.154121  0  3.58751  0  0  0.117723  0  3.851318  0  0  0.123771  0  3.859179  0  0  -0.005468  0.113616  0  3.845985  0
C  C28  1  0.89203851  0.50332355  0.95756441  1  0  0.175321  0  3.568392  0  0  0.14784  0  3.820186  0  0  0.153375  0  3.828873  0  0  0.002713  0.144077  0  3.814365  0
C  C29  1  0.10796382  0.49667646  0.04243485  1  0  0.175182  0  3.5684  0  0  0.147758  0  3.820197  0  0  0.153296  0  3.828887  0  0  0.002675  0.143965  0  3.814354  0
C  C30  1  0.55262345  0.92911992  0.51953898  1  0  0.548329  0  3.958197  0  0  0.507312  0  4.264709  0  0  0.536879  0  4.25655  0  0  0.206118  0.487248  0  4.269383  0
C  C31  1  0.44735441  0.07088349  0.48046063  1  0  0.548293  0  3.958034  0  0  0.507264  0  4.264575  0  0  0.536829  0  4.256416  0  0  0.20611  0.487204  0  4.269251  0
C  C32  1  0.72198214  0.59218567  0.79022302  1  0  0.661048  0  3.87148  0  0  0.609914  0  4.180999  0  0  0.642743  0  4.172356  0  0  0.216328  0.587659  0  4.186199  0
C  C33  1  0.27802194  0.40782857  0.20978268  1  0  0.660893  0  3.87176  0  0  0.609805  0  4.181238  0  0  0.642617  0  4.172632  0  0  0.216246  0.587519  0  4.186426  0
C  C34  1  0.94974136  0.57998225  0.86533570  1  0  0.033892  0  3.62284  0  0  0.005404  0  3.883116  0  0  0.007138  0  3.888777  0  0  -0.009573  0.00392  0  3.879505  0
C  C35  1  0.05026266  0.42001776  0.13466449  1  0  0.033946  0  3.622794  0  0  0.00536  0  3.883221  0  0  0.007083  0  3.888908  0  0  -0.009574  0.004008  0  3.879407  0
O  O36  1  0.48669971  0.79358785  0.45834290  1  0  -0.624652  0  2.027625  0  0  -0.588197  0  2.26042  0  0  -0.610712  0  2.249681  0  0  -0.372162  -0.572337  0  2.267471  0
O  O37  1  0.51328066  0.20641201  0.54165578  1  0  -0.62466  0  2.027712  0  0  -0.588193  0  2.260511  0  0  -0.610709  0  2.249768  0  0  -0.372162  -0.572335  0  2.267565  0
O  O38  1  0.05701217  0.10518534  0.79704883  1  0  -0.666085  0  2.031315  0  0  -0.629984  0  2.285564  0  0  -0.655151  0  2.274305  0  0  -0.376765  -0.612262  0  2.292663  0
O  O39  1  0.94297633  0.89480618  0.20295043  1  0  -0.665947  0  2.031641  0  0  -0.629819  0  2.285891  0  0  -0.654977  0  2.274636  0  0  -0.376685  -0.6121  0  2.292988  0
O  O40  1  0.77586385  0.34474348  0.90809800  1  0  -0.655735  0  2.186682  0  0  -0.611662  0  2.430433  0  0  -0.630309  0  2.416884  0  0  -0.441085  -0.598224  0  2.439026  0
O  O41  1  0.22413679  0.65525653  0.09190109  1  0  -0.655687  0  2.186694  0  0  -0.611618  0  2.430437  0  0  -0.630262  0  2.416888  0  0  -0.441068  -0.598182  0  2.439035  0
O  O42  1  0.06893160  0.47036066  0.81253196  1  0  -0.570126  0  2.122306  0  0  -0.529344  0  2.348005  0  0  -0.544805  0  2.33671  0  0  -0.404179  -0.518205  0  2.355806  0
O  O43  1  0.93107550  0.52963813  0.18746993  1  0  -0.570106  0  2.122374  0  0  -0.52929  0  2.348092  0  0  -0.544745  0  2.336802  0  0  -0.404142  -0.518185  0  2.355844  0
O  O44  1  0.64129647  0.47985630  0.71070425  1  0  -0.639655  0  1.996808  0  0  -0.603358  0  2.23285  0  0  -0.626003  0  2.220457  0  0  -0.366512  -0.587464  0  2.241059  0
O  O45  1  0.35870812  0.52014611  0.28929550  1  0  -0.63953  0  1.997118  0  0  -0.603244  0  2.23314  0  0  -0.625877  0  2.220757  0  0  -0.366461  -0.587355  0  2.241362  0
O  O46  1  0.62209293  0.01923332  0.82342615  1  0  -0.612563  0  2.206492  0  0  -0.570493  0  2.449193  0  0  -0.587355  0  2.438484  0  0  -0.431807  -0.55822  0  2.456289  0
O  O47  1  0.37790856  0.98077015  0.17657806  1  0  -0.612525  0  2.20645  0  0  -0.570467  0  2.44915  0  0  -0.587327  0  2.438444  0  0  -0.431818  -0.558192  0  2.456246  0
O  O48  1  0.48623536  0.21343486  0.00207919  1  0  -0.574503  0  2.112506  0  0  -0.516309  0  2.337263  0  0  -0.534159  0  2.321761  0  0  -0.387241  -0.503636  0  2.346412  0
O  O49  1  0.51376783  0.78656872  0.99792133  1  0  -0.574501  0  2.112689  0  0  -0.516334  0  2.337448  0  0  -0.534204  0  2.321906  0  0  -0.387234  -0.503657  0  2.346589  0
O  O50  1  0.62578917  0.71037003  0.81689529  1  0  -0.646667  0  2.022265  0  0  -0.593481  0  2.255194  0  0  -0.617245  0  2.240665  0  0  -0.325521  -0.576926  0  2.264413  0
O  O51  1  0.37421966  0.28963602  0.18310451  1  0  -0.646661  0  2.022208  0  0  -0.59347  0  2.2551  0  0  -0.617216  0  2.240582  0  0  -0.32547  -0.576915  0  2.264334  0
O  O52  1  0.35453530  0.18556397  0.72740294  1  0  -0.701076  0  2.109859  0  0  -0.648712  0  2.347793  0  0  -0.676667  0  2.338517  0  0  -0.368391  -0.629055  0  2.353706  0
O  O53  1  0.64546249  0.81443116  0.27259840  1  0  -0.701099  0  2.109651  0  0  -0.648705  0  2.347589  0  0  -0.676659  0  2.338319  0  0  -0.368406  -0.629044  0  2.353498  0
O  O54  1  0.02580907  0.29710787  0.61411564  1  0  -0.907091  0  1.829056  0  0  -0.86946  0  1.99801  0  0  -0.888249  0  1.965064  0  0  -0.619753  -0.8559  0  2.021183  0
O  O55  1  0.97418590  0.70288259  0.38588025  1  0  -0.907119  0  1.829122  0  0  -0.869518  0  1.998052  0  0  -0.888303  0  1.965105  0  0  -0.61973  -0.855959  0  2.021228  0
O  O56  1  0.69636981  0.96189419  0.60957947  1  0  -0.661378  0  2.0363  0  0  -0.626821  0  2.272156  0  0  -0.649667  0  2.261084  0  0  -0.388755  -0.610716  0  2.279399  0
O  O57  1  0.30360270  0.03810800  0.39041950  1  0  -0.66138  0  2.036029  0  0  -0.626827  0  2.271902  0  0  -0.64967  0  2.26083  0  0  -0.388776  -0.61072  0  2.279144  0
