# generated using pymatgen
data_ZnH8C12(IN2)2
_symmetry_space_group_name_H-M   'P 1'
_cell_length_a   14.98045745
_cell_length_b   19.16858995
_cell_length_c   31.12244183
_cell_angle_alpha   102.30287811
_cell_angle_beta   89.98666224
_cell_angle_gamma   113.00752760
_symmetry_Int_Tables_number   1
_chemical_formula_structural   ZnH8C12(IN2)2
_chemical_formula_sum   'Zn12 H96 C144 I24 N48'
_cell_volume   8002.78283186
_cell_formula_units_Z   12
loop_
 _symmetry_equiv_pos_site_id
 _symmetry_equiv_pos_as_xyz
  1  'x, y, z'
loop_
 _atom_site_type_symbol
 _atom_site_label
 _atom_site_symmetry_multiplicity
 _atom_site_fract_x
 _atom_site_fract_y
 _atom_site_fract_z
 _atom_site_occupancy
 _atom_site_pbe_bader_charge
 _atom_site_pbe_bader_spin_density
 _atom_site_pbe_cm5_charge
 _atom_site_pbe_ddec_charge
 _atom_site_pbe_ddec_spin_density
 _atom_site_pbe_ddec_sum_bond_order
 _atom_site_pbe_magmom
Zn  Zn0  1  0.79944310  0.84028656  0.90667077  1  0.905005  0  0.444357  0.475281  0  2.735068  0
Zn  Zn1  1  0.47188806  0.64861163  0.72159547  1  0.901121  0  0.440384  0.452166  0  2.741985  0
Zn  Zn2  1  0.52336361  0.24881871  0.55690285  1  0.907472  0  0.447697  0.473912  0  2.751694  0
Zn  Zn3  1  0.04093547  0.84013328  0.40660840  1  0.904419  0  0.444284  0.475089  0  2.7365  0
Zn  Zn4  1  0.17658601  0.64856268  0.22157849  1  0.898687  0  0.440171  0.451708  0  2.740918  0
Zn  Zn5  1  0.72565626  0.24884534  0.05685679  1  0.908977  0  0.447699  0.473816  0  2.750715  0
Zn  Zn6  1  0.95906607  0.15986644  0.59339128  1  0.904481  0  0.44427  0.47505  0  2.736519  0
Zn  Zn7  1  0.82341373  0.35143878  0.77842109  1  0.898721  0  0.440143  0.451641  0  2.740973  0
Zn  Zn8  1  0.27434356  0.75115496  0.94314521  1  0.908895  0  0.447703  0.473853  0  2.750662  0
Zn  Zn9  1  0.20055539  0.15971374  0.09332898  1  0.90503  0  0.444374  0.475348  0  2.735014  0
Zn  Zn10  1  0.52810955  0.35138692  0.27840469  1  0.901157  0  0.440403  0.452193  0  2.741865  0
Zn  Zn11  1  0.47663734  0.75117984  0.44309668  1  0.907465  0  0.447713  0.473943  0  2.751682  0
H  H12  1  0.83830644  0.77491964  0.97974661  1  0.129911  0  0.105575  0.083652  0  1.025897  0
H  H13  1  0.98201448  0.79047092  0.02889029  1  0.109519  0  0.119591  0.132721  0  0.981343  0
H  H14  1  0.15435897  0.99012157  0.97897542  1  0.121947  0  0.115699  0.128304  0  0.98806  0
H  H15  1  0.00337778  0.96716940  0.93188856  1  0.129847  0  0.105973  0.080358  0  1.021194  0
H  H16  1  0.97752566  0.82560849  0.87254915  1  0.094283  0  0.109626  0.085298  0  1.012054  0
H  H17  1  0.02530738  0.74018906  0.81341790  1  0.108767  0  0.10537  0.117135  0  1.025478  0
H  H18  1  0.71940105  0.59926481  0.77594601  1  0.127038  0  0.108494  0.115033  0  1.02875  0
H  H19  1  0.68327041  0.68746832  0.83916744  1  0.134297  0  0.102554  0.083926  0  1.034775  0
H  H20  1  0.87564046  0.39824050  0.62667395  1  0.125719  0  0.107329  0.118258  0  1.015689  0
H  H21  1  0.73844117  0.29856687  0.57368055  1  0.119958  0  0.100221  0.085382  0  1.035896  0
H  H22  1  0.53361771  0.35844912  0.64423096  1  0.11217  0  0.098986  0.080695  0  1.042186  0
H  H23  1  0.66413277  0.46481649  0.69910939  1  0.135895  0  0.099874  0.111021  0  1.047463  0
H  H24  1  0.17087918  0.70102394  0.76823309  1  0.10221  0  0.116231  0.125996  0  1.00011  0
H  H25  1  0.34753362  0.72208214  0.76713897  1  0.125858  0  0.102622  0.078317  0  1.037857  0
H  H26  1  0.28229953  0.51942750  0.67051395  1  0.117748  0  0.113958  0.087794  0  1.002576  0
H  H27  1  0.10277893  0.49032493  0.66744534  1  0.117269  0  0.118426  0.129832  0  0.990088  0
H  H28  1  0.07654143  0.63545915  0.13431050  1  0.117476  0  0.105595  0.0832  0  1.028888  0
H  H29  1  0.09226612  0.71990626  0.08018408  1  0.109407  0  0.116839  0.13043  0  0.985463  0
H  H30  1  0.34894875  0.89298972  0.16056934  1  0.124856  0  0.117518  0.127702  0  0.984677  0
H  H31  1  0.31931463  0.80433298  0.21318705  1  0.070005  0  0.11134  0.081332  0  1.003886  0
H  H32  1  0.37073572  0.06395103  0.00179964  1  0.127386  0  0.111366  0.122003  0  1.006877  0
H  H33  1  0.50019835  0.99963630  0.10219564  1  0.104964  0  0.116503  0.126464  0  0.989986  0
H  H34  1  0.53396961  0.17312486  0.00176147  1  0.110806  0  0.105172  0.084082  0  1.026119  0
H  H35  1  0.65841628  0.11238394  0.09869597  1  0.117615  0  0.105126  0.078056  0  1.026765  0
H  H36  1  0.93682245  0.77495271  0.47966415  1  0.122578  0  0.105308  0.082981  0  1.02705  0
H  H37  1  0.80844650  0.79037194  0.52874977  1  0.115764  0  0.119795  0.13291  0  0.981008  0
H  H38  1  0.83610759  0.99023894  0.47896789  1  0.120239  0  0.115653  0.128325  0  0.987545  0
H  H39  1  0.96415089  0.96729670  0.43186353  1  0.085256  0  0.10614  0.080781  0  1.02151  0
H  H40  1  0.84822581  0.82563681  0.37251735  1  0.100734  0  0.109721  0.085458  0  1.01166  0
H  H41  1  0.71495520  0.74027221  0.31341537  1  0.101258  0  0.105734  0.117572  0  1.024935  0
H  H42  1  0.87978706  0.59922993  0.27587234  1  0.145477  0  0.108586  0.114977  0  1.02919  0
H  H43  1  0.00422556  0.68740561  0.33902260  1  0.103136  0  0.102406  0.083739  0  1.033927  0
H  H44  1  0.52265529  0.39817560  0.12668508  1  0.109512  0  0.107267  0.117981  0  1.015785  0
H  H45  1  0.56036700  0.29867637  0.07358731  1  0.121572  0  0.100611  0.085526  0  1.035545  0
H  H46  1  0.82481769  0.35833323  0.14419938  1  0.112465  0  0.098929  0.080406  0  1.043281  0
H  H47  1  0.80076577  0.46475882  0.19908287  1  0.137667  0  0.099577  0.110572  0  1.047827  0
H  H48  1  0.53002725  0.70090188  0.26827015  1  0.10839  0  0.116005  0.126004  0  0.999945  0
H  H49  1  0.37443628  0.72199504  0.26716194  1  0.121759  0  0.102559  0.078251  0  1.038149  0
H  H50  1  0.23691254  0.51926274  0.17064703  1  0.111249  0  0.113922  0.087491  0  1.002833  0
H  H51  1  0.38732791  0.49014571  0.16752659  1  0.117388  0  0.11806  0.129697  0  0.98957  0
H  H52  1  0.55850624  0.63542846  0.63432326  1  0.123559  0  0.105722  0.08367  0  1.029172  0
H  H53  1  0.62735816  0.71983953  0.58017916  1  0.116977  0  0.11675  0.130177  0  0.985886  0
H  H54  1  0.54402650  0.89308592  0.66057822  1  0.110392  0  0.11798  0.128274  0  0.984215  0
H  H55  1  0.48496239  0.80452869  0.71321552  1  0.106933  0  0.111383  0.081309  0  1.003533  0
H  H56  1  0.69314181  0.06385052  0.50169450  1  0.118042  0  0.111403  0.122929  0  1.005996  0
H  H57  1  0.49922408  0.99927735  0.60202885  1  0.109251  0  0.116448  0.125967  0  0.989994  0
H  H58  1  0.63909156  0.17307568  0.50175075  1  0.110459  0  0.104968  0.083735  0  1.025682  0
H  H59  1  0.45369077  0.11202013  0.59861511  1  0.122427  0  0.105363  0.078079  0  1.026466  0
H  H60  1  0.06318184  0.22504584  0.52033730  1  0.121923  0  0.10529  0.082902  0  1.027011  0
H  H61  1  0.19155921  0.20962544  0.47125185  1  0.115745  0  0.119812  0.132932  0  0.981008  0
H  H62  1  0.16388932  0.00975553  0.52103206  1  0.120062  0  0.115641  0.128299  0  0.987553  0
H  H63  1  0.03584640  0.03269719  0.56813538  1  0.085319  0  0.106199  0.080946  0  1.021549  0
H  H64  1  0.15177526  0.17436466  0.62748385  1  0.100755  0  0.10974  0.085509  0  1.011639  0
H  H65  1  0.28504475  0.25973100  0.68658605  1  0.101255  0  0.105658  0.117481  0  1.024925  0
H  H66  1  0.12021230  0.40077212  0.72412829  1  0.145366  0  0.108546  0.114879  0  1.029222  0
H  H67  1  0.99577322  0.31259527  0.66097755  1  0.103117  0  0.102396  0.083762  0  1.03392  0
H  H68  1  0.47734549  0.60182528  0.87331571  1  0.109516  0  0.107259  0.117939  0  1.0158  0
H  H69  1  0.43963311  0.70132451  0.92641348  1  0.121511  0  0.100621  0.085588  0  1.035572  0
H  H70  1  0.17518272  0.64166823  0.85580149  1  0.112381  0  0.098933  0.080403  0  1.043277  0
H  H71  1  0.19923463  0.53524264  0.80091800  1  0.137708  0  0.099572  0.110596  0  1.047783  0
H  H72  1  0.46997191  0.29909842  0.73172992  1  0.108476  0  0.116011  0.126022  0  0.99992  0
H  H73  1  0.62556250  0.27800584  0.73283821  1  0.121791  0  0.102556  0.078269  0  1.038122  0
H  H74  1  0.76308766  0.48073698  0.82935297  1  0.11125  0  0.113922  0.087493  0  1.002833  0
H  H75  1  0.61267191  0.50985459  0.83247381  1  0.117364  0  0.118085  0.129705  0  0.989573  0
H  H76  1  0.44149567  0.36457067  0.36567698  1  0.123429  0  0.10569  0.083639  0  1.029188  0
H  H77  1  0.37264384  0.28015843  0.41982093  1  0.11701  0  0.116744  0.130152  0  0.985878  0
H  H78  1  0.45597233  0.10690972  0.33942124  1  0.110257  0  0.11797  0.128216  0  0.984241  0
H  H79  1  0.51503548  0.19546636  0.28678450  1  0.106897  0  0.111416  0.081395  0  1.003566  0
H  H80  1  0.30685856  0.93614687  0.49830487  1  0.118181  0  0.111424  0.122967  0  1.005965  0
H  H81  1  0.50077704  0.00071887  0.39797036  1  0.109568  0  0.116425  0.125924  0  0.990048  0
H  H82  1  0.36091015  0.82692171  0.49824862  1  0.110636  0  0.104998  0.08375  0  1.025685  0
H  H83  1  0.54630968  0.88797609  0.40138507  1  0.122514  0  0.105342  0.078075  0  1.02647  0
H  H84  1  0.16169576  0.22508008  0.02025146  1  0.129867  0  0.105555  0.083568  0  1.025907  0
H  H85  1  0.01798944  0.20952822  0.97110674  1  0.10972  0  0.119523  0.132666  0  0.981305  0
H  H86  1  0.84563897  0.00988164  0.02102375  1  0.122027  0  0.115719  0.128291  0  0.98815  0
H  H87  1  0.99661937  0.03283090  0.06811087  1  0.129904  0  0.105978  0.080384  0  1.021162  0
H  H88  1  0.02247291  0.17439065  0.12745077  1  0.094728  0  0.109618  0.085295  0  1.012024  0
H  H89  1  0.97468986  0.25981008  0.18658170  1  0.108837  0  0.105366  0.117131  0  1.02548  0
H  H90  1  0.28059648  0.40073491  0.22405431  1  0.127018  0  0.108505  0.115056  0  1.028718  0
H  H91  1  0.31672933  0.31253315  0.16083279  1  0.134256  0  0.102551  0.083918  0  1.034796  0
H  H92  1  0.12435898  0.60176039  0.37332588  1  0.125701  0  0.107324  0.118221  0  1.01573  0
H  H93  1  0.26155865  0.70143343  0.42631888  1  0.119959  0  0.100232  0.085409  0  1.035909  0
H  H94  1  0.46638123  0.64154943  0.35576824  1  0.112083  0  0.099015  0.080726  0  1.042108  0
H  H95  1  0.33586476  0.53518323  0.30089029  1  0.135914  0  0.099904  0.111068  0  1.047352  0
H  H96  1  0.82911968  0.29897578  0.23176723  1  0.102194  0  0.116239  0.125996  0  1.00024  0
H  H97  1  0.65246679  0.27791932  0.23285933  1  0.125849  0  0.102591  0.078267  0  1.03794  0
H  H98  1  0.71769829  0.48057280  0.32948581  1  0.117796  0  0.113936  0.08774  0  1.002583  0
H  H99  1  0.89721764  0.50967420  0.33255619  1  0.117391  0  0.118426  0.129812  0  0.990126  0
H  H100  1  0.92345927  0.36454290  0.86568916  1  0.117435  0  0.10564  0.083229  0  1.028877  0
H  H101  1  0.90773391  0.28009579  0.91981622  1  0.109662  0  0.116837  0.130439  0  0.985478  0
H  H102  1  0.65105307  0.10701058  0.83943042  1  0.124887  0  0.117533  0.127727  0  0.984625  0
H  H103  1  0.68068624  0.19566674  0.78681231  1  0.070002  0  0.111354  0.081347  0  1.003927  0
H  H104  1  0.62926640  0.93604985  0.99820083  1  0.127356  0  0.111362  0.122017  0  1.006874  0
H  H105  1  0.49980280  0.00036400  0.89780443  1  0.104966  0  0.116508  0.126429  0  0.989998  0
H  H106  1  0.46603213  0.82687661  0.99823940  1  0.111121  0  0.105162  0.084081  0  1.026179  0
H  H107  1  0.34158487  0.88761635  0.90130410  1  0.117651  0  0.105117  0.078009  0  1.026727  0
C  C108  1  0.91005417  0.82152619  0.98064393  1  0.424116  0  0.048861  0.097624  0  3.912376  0
C  C109  1  0.98908253  0.83053230  0.00779823  1  0.052781  0  -0.068058  -0.128102  0  3.904704  0
C  C110  1  0.07930937  0.89075107  0.00677634  1  -0.023281  0  0.017478  0.055679  0  3.953648  0
C  C111  1  0.08541216  0.94200594  0.97983314  1  0.013258  0  -0.071251  -0.132801  0  3.922607  0
C  C112  1  0.00282458  0.92945592  0.95382811  1  0.43336  0  0.043706  0.084782  0  3.931608  0
C  C113  1  0.92234419  0.77439709  0.85085235  1  0.495798  0  0.047176  0.102091  0  3.915388  0
C  C114  1  0.94888242  0.72745160  0.81759886  1  0.033495  0  -0.072304  -0.127806  0  3.914383  0
C  C115  1  0.87575556  0.66276150  0.79011352  1  -0.069814  0  0.015888  0.051106  0  3.936071  0
C  C116  1  0.77829884  0.64794137  0.79736773  1  0.026751  0  -0.069585  -0.135959  0  3.906432  0
C  C117  1  0.75794594  0.69687781  0.83212982  1  0.466697  0  0.048364  0.097721  0  3.908414  0
C  C118  1  0.90238161  0.61136512  0.75470245  1  1.123187  0  0.264917  0.384331  0  4.012746  0
C  C119  1  0.01827212  0.57904010  0.71968607  1  1.099851  0  0.260762  0.374643  0  4.019118  0
C  C120  1  0.85874200  0.50475703  0.69785665  1  1.073593  0  0.265415  0.385727  0  3.986624  0
C  C121  1  0.78052931  0.44048598  0.66689179  1  -0.008519  0  0.013047  0.048002  0  3.939996  0
C  C122  1  0.80128630  0.39225319  0.63148507  1  0.028375  0  -0.07019  -0.124376  0  3.918185  0
C  C123  1  0.72469267  0.33615176  0.60206411  1  0.443831  0  0.047011  0.100998  0  3.904932  0
C  C124  1  0.61057779  0.36990634  0.64169046  1  0.434404  0  0.04279  0.092466  0  3.917116  0
C  C125  1  0.68299933  0.42820420  0.67208925  1  0.016216  0  -0.076885  -0.137302  0  3.927302  0
C  C126  1  0.12313770  0.59398268  0.71771775  1  -0.009479  0  0.020157  0.05801  0  3.928241  0
C  C127  1  0.19322292  0.66027292  0.74573272  1  0.04116  0  -0.06947  -0.133606  0  3.912726  0
C  C128  1  0.29063260  0.67229230  0.74505878  1  0.414995  0  0.046327  0.091006  0  3.929485  0
C  C129  1  0.25413404  0.55856203  0.69110299  1  0.477961  0  0.054101  0.098039  0  3.907729  0
C  C130  1  0.15499691  0.54250648  0.68969181  1  0.018294  0  -0.066047  -0.134998  0  3.899747  0
C  C131  1  0.13514048  0.69328161  0.13883639  1  0.444785  0  0.051481  0.100698  0  3.905161  0
C  C132  1  0.14391814  0.73988934  0.10921791  1  0.054649  0  -0.067786  -0.123858  0  3.909499  0
C  C133  1  0.22198324  0.81272559  0.11660836  1  -0.020286  0  0.02211  0.066363  0  3.936801  0
C  C134  1  0.28781769  0.83645035  0.15397198  1  0.002344  0  -0.067473  -0.133834  0  3.910296  0
C  C135  1  0.27250376  0.78722223  0.18263924  1  0.49545  0  0.047664  0.092421  0  3.933255  0
C  C136  1  0.23345062  0.86352327  0.08544512  1  1.10835  0  0.262912  0.381928  0  4.018453  0
C  C137  1  0.16648978  0.89877895  0.03310333  1  1.131894  0  0.262057  0.37747  0  4.026455  0
C  C138  1  0.32767959  0.96162991  0.05493834  1  1.089215  0  0.262929  0.380292  0  4.004502  0
C  C139  1  0.42340647  0.02392990  0.05230624  1  -0.007931  0  0.020666  0.060115  0  3.926091  0
C  C140  1  0.43311645  0.07247042  0.02330152  1  0.018863  0  -0.071216  -0.13163  0  3.927272  0
C  C141  1  0.50545373  0.03719822  0.07971859  1  -0.041055  0  -0.070232  -0.135644  0  3.91513  0
C  C142  1  0.52268341  0.13314125  0.02347677  1  0.516083  0  0.04673  0.094325  0  3.91895  0
C  C143  1  0.59224095  0.09913877  0.07806868  1  0.457154  0  0.045939  0.093574  0  3.922962  0
C  C144  1  0.91169500  0.82157738  0.48058630  1  0.429875  0  0.048776  0.098109  0  3.913092  0
C  C145  1  0.84157710  0.83051596  0.50771245  1  0.03854  0  -0.068134  -0.128261  0  3.904545  0
C  C146  1  0.81160514  0.89076069  0.50670588  1  -0.011309  0  0.017674  0.056671  0  3.95148  0
C  C147  1  0.85689885  0.94209627  0.47980834  1  0.042865  0  -0.071171  -0.132581  0  3.921603  0
C  C148  1  0.92695485  0.92955966  0.45379881  1  0.449011  0  0.043424  0.083568  0  3.934062  0
C  C149  1  0.85217194  0.77443322  0.35080092  1  0.516151  0  0.046523  0.10157  0  3.914827  0
C  C150  1  0.77863341  0.72752036  0.31756504  1  0.012384  0  -0.072465  -0.12859  0  3.913294  0
C  C151  1  0.78699663  0.66277267  0.29008876  1  -0.076495  0  0.016033  0.052508  0  3.933886  0
C  C152  1  0.86962646  0.64793635  0.29730314  1  0.006501  0  -0.069668  -0.136114  0  3.905242  0
C  C153  1  0.93895153  0.69684169  0.33204166  1  0.491245  0  0.048367  0.098303  0  3.907143  0
C  C154  1  0.70887384  0.61131551  0.25472532  1  1.09268  0  0.264997  0.383968  0  4.013523  0
C  C155  1  0.56067996  0.57893341  0.21968215  1  1.103118  0  0.260517  0.374036  0  4.020424  0
C  C156  1  0.64597867  0.50467844  0.19787100  1  1.095567  0  0.266016  0.385645  0  3.987525  0
C  C157  1  0.66004296  0.44048766  0.16687494  1  -0.029472  0  0.013083  0.046432  0  3.93981  0
C  C158  1  0.59106940  0.39225690  0.13146321  1  0.052098  0  -0.070281  -0.123296  0  3.915163  0
C  C159  1  0.61163029  0.33622075  0.10199307  1  0.4637  0  0.046259  0.100028  0  3.905492  0
C  C160  1  0.75939652  0.36988976  0.14165455  1  0.436348  0  0.042523  0.092376  0  3.916033  0
C  C161  1  0.74528382  0.42819262  0.17205980  1  -0.013099  0  -0.076561  -0.135671  0  3.925078  0
C  C162  1  0.47070036  0.59383064  0.21775472  1  -0.036798  0  0.020124  0.059185  0  3.927945  0
C  C163  1  0.46691397  0.66011680  0.24578871  1  0.030113  0  -0.068546  -0.133215  0  3.910857  0
C  C164  1  0.38156218  0.67219086  0.24511291  1  0.441139  0  0.045971  0.09024  0  3.928754  0
C  C165  1  0.30421671  0.55840650  0.19121075  1  0.479577  0  0.054235  0.098884  0  3.907117  0
C  C166  1  0.38730188  0.54233536  0.18977801  1  0.01486  0  -0.065748  -0.135803  0  3.8994  0
C  C167  1  0.55783460  0.69327869  0.63885965  1  0.445026  0  0.051758  0.101103  0  3.904668  0
C  C168  1  0.59571582  0.73986032  0.60922132  1  0.015403  0  -0.067742  -0.123531  0  3.9081  0
C  C169  1  0.59063446  0.81273901  0.61658699  1  -0.026707  0  0.02168  0.065296  0  3.936777  0
C  C170  1  0.54854552  0.83652362  0.65396261  1  0.087457  0  -0.068299  -0.134158  0  3.911029  0
C  C171  1  0.51462765  0.78735618  0.68266558  1  0.414774  0  0.048137  0.092995  0  3.933161  0
C  C172  1  0.63002839  0.86347159  0.58537247  1  1.098969  0  0.263535  0.382209  0  4.018233  0
C  C173  1  0.73231433  0.89871314  0.53300267  1  1.121542  0  0.262075  0.376784  0  4.024271  0
C  C174  1  0.63383232  0.96147028  0.55478486  1  1.125616  0  0.262982  0.380313  0  4.00391  0
C  C175  1  0.60034121  0.02371893  0.55215771  1  -0.028202  0  0.020929  0.06035  0  3.926357  0
C  C176  1  0.63919271  0.07230261  0.52317536  1  0.022141  0  -0.071713  -0.13411  0  3.927356  0
C  C177  1  0.53150005  0.03688880  0.57957321  1  -0.02061  0  -0.070287  -0.134468  0  3.913538  0
C  C178  1  0.61033665  0.13299738  0.52341919  1  0.505325  0  0.047559  0.095647  0  3.91743  0
C  C179  1  0.50665010  0.09883659  0.57797162  1  0.438098  0  0.04615  0.093698  0  3.922817  0
C  C180  1  0.08830974  0.17841942  0.51941492  1  0.430835  0  0.048744  0.098108  0  3.91337  0
C  C181  1  0.15842527  0.16948142  0.49228885  1  0.038455  0  -0.068167  -0.128237  0  3.904594  0
C  C182  1  0.18839665  0.10923553  0.49329526  1  -0.011053  0  0.017752  0.056718  0  3.951426  0
C  C183  1  0.14310264  0.05789937  0.52019272  1  0.042745  0  -0.071146  -0.132485  0  3.921604  0
C  C184  1  0.07304560  0.07043656  0.54620201  1  0.449268  0  0.043247  0.08316  0  3.934293  0
C  C185  1  0.14782779  0.22556824  0.64919994  1  0.516204  0  0.046498  0.101519  0  3.914825  0
C  C186  1  0.22136595  0.27248169  0.68243590  1  0.01247  0  -0.072391  -0.128451  0  3.913215  0
C  C187  1  0.21300207  0.33722938  0.70991123  1  -0.077038  0  0.016066  0.052484  0  3.933981  0
C  C188  1  0.13037261  0.35206511  0.70269741  1  0.007037  0  -0.069642  -0.135961  0  3.905232  0
C  C189  1  0.06104821  0.30315978  0.66795889  1  0.491239  0  0.048379  0.09826  0  3.907216  0
C  C190  1  0.29112619  0.38868654  0.74527498  1  1.092618  0  0.265009  0.38387  0  4.013656  0
C  C191  1  0.43931853  0.42106689  0.78031792  1  1.103118  0  0.260555  0.374055  0  4.020394  0
C  C192  1  0.35402144  0.49532244  0.80212915  1  1.095533  0  0.265996  0.385579  0  3.9876  0
C  C193  1  0.33995715  0.55951322  0.83312521  1  -0.029385  0  0.013085  0.046447  0  3.939865  0
C  C194  1  0.40893100  0.60774456  0.86853798  1  0.052081  0  -0.070281  -0.123204  0  3.915178  0
C  C195  1  0.38836953  0.66377955  0.89800765  1  0.463687  0  0.046219  0.09987  0  3.905589  0
C  C196  1  0.24060388  0.63011170  0.85834600  1  0.436481  0  0.042563  0.092454  0  3.915927  0
C  C197  1  0.25471725  0.57180885  0.82794107  1  -0.013202  0  -0.076585  -0.135757  0  3.925136  0
C  C198  1  0.52929879  0.40616966  0.78224631  1  -0.036681  0  0.020193  0.059325  0  3.927943  0
C  C199  1  0.53308413  0.33988407  0.75421241  1  0.029838  0  -0.068556  -0.133284  0  3.910701  0
C  C200  1  0.61843660  0.32781002  0.75488756  1  0.441183  0  0.045943  0.090227  0  3.928565  0
C  C201  1  0.69578274  0.44159438  0.80878940  1  0.479572  0  0.054235  0.098913  0  3.907148  0
C  C202  1  0.61269698  0.45766435  0.81022295  1  0.014876  0  -0.065828  -0.135918  0  3.899562  0
C  C203  1  0.44216681  0.30671812  0.36114028  1  0.445508  0  0.051744  0.101041  0  3.904867  0
C  C204  1  0.40428609  0.26013882  0.39077860  1  0.015208  0  -0.067719  -0.12345  0  3.908029  0
C  C205  1  0.40936533  0.18725721  0.38341287  1  -0.027519  0  0.021704  0.06527  0  3.936587  0
C  C206  1  0.45145435  0.16347143  0.34603774  1  0.087987  0  -0.068224  -0.133984  0  3.910786  0
C  C207  1  0.48537347  0.21264004  0.31733428  1  0.414879  0  0.048062  0.092816  0  3.933028  0
C  C208  1  0.36997273  0.13652464  0.41462674  1  1.099314  0  0.263556  0.382331  0  4.018124  0
C  C209  1  0.26768687  0.10128191  0.46699704  1  1.12127  0  0.262264  0.377007  0  4.024318  0
C  C210  1  0.36616755  0.03852478  0.44521355  1  1.125446  0  0.26303  0.380445  0  4.003713  0
C  C211  1  0.39965695  0.97627671  0.44784047  1  -0.028141  0  0.020943  0.060308  0  3.926461  0
C  C212  1  0.36080487  0.92769187  0.47682266  1  0.022052  0  -0.071778  -0.134168  0  3.927523  0
C  C213  1  0.46849878  0.96310684  0.42042625  1  -0.020804  0  -0.07019  -0.134306  0  3.913549  0
C  C214  1  0.38966238  0.86700001  0.47657986  1  0.505127  0  0.047536  0.095599  0  3.91762  0
C  C215  1  0.49335131  0.90116022  0.42202799  1  0.43791  0  0.046104  0.093594  0  3.922777  0
C  C216  1  0.08994737  0.17847353  0.01935446  1  0.424076  0  0.048978  0.09783  0  3.912239  0
C  C217  1  0.01092092  0.16946859  0.99219967  1  0.052262  0  -0.067946  -0.128029  0  3.904501  0
C  C218  1  0.92069104  0.10925040  0.99322324  1  -0.022799  0  0.017395  0.055572  0  3.953688  0
C  C219  1  0.91458904  0.05799843  0.02016715  1  0.012823  0  -0.071315  -0.132816  0  3.922795  0
C  C220  1  0.99717449  0.07054554  0.04617115  1  0.433489  0  0.043706  0.084745  0  3.931614  0
C  C221  1  0.07765430  0.22560321  0.14914772  1  0.495344  0  0.047227  0.102141  0  3.915296  0
C  C222  1  0.05111511  0.27254812  0.18240113  1  0.033469  0  -0.07231  -0.1278  0  3.914289  0
C  C223  1  0.12424263  0.33723822  0.20988648  1  -0.07017  0  0.015915  0.051156  0  3.935913  0
C  C224  1  0.22169869  0.35205835  0.20263162  1  0.026791  0  -0.069571  -0.135967  0  3.90633  0
C  C225  1  0.24205151  0.30312307  0.16786968  1  0.466862  0  0.048352  0.097704  0  3.908464  0
C  C226  1  0.09761562  0.38863401  0.24529747  1  1.123425  0  0.264891  0.384289  0  4.012837  0
C  C227  1  0.98172666  0.42096078  0.28031408  1  1.099855  0  0.260654  0.374414  0  4.019361  0
C  C228  1  0.14125715  0.49524327  0.30214310  1  1.073677  0  0.265368  0.385629  0  3.986747  0
C  C229  1  0.21946947  0.55951490  0.33310772  1  -0.008537  0  0.013138  0.0481  0  3.939989  0
C  C230  1  0.19871285  0.60774711  0.36851436  1  0.028334  0  -0.070201  -0.124353  0  3.91829  0
C  C231  1  0.27530648  0.66384854  0.39793564  1  0.443839  0  0.047026  0.101004  0  3.904859  0
C  C232  1  0.38942012  0.63009279  0.35830914  1  0.434642  0  0.042784  0.092542  0  3.917091  0
C  C233  1  0.31699915  0.57179610  0.32791018  1  0.016267  0  -0.076926  -0.137383  0  3.927157  0
C  C234  1  0.87686175  0.40601820  0.28228240  1  -0.009235  0  0.02016  0.058106  0  3.928125  0
C  C235  1  0.80677728  0.33972680  0.25426631  1  0.04114  0  -0.069474  -0.133636  0  3.912623  0
C  C236  1  0.70936522  0.32770800  0.25493968  1  0.414968  0  0.04638  0.091075  0  3.929472  0
C  C237  1  0.74586245  0.44143827  0.30889612  1  0.477667  0  0.054101  0.098103  0  3.907578  0
C  C238  1  0.84500216  0.45749499  0.31030810  1  0.018042  0  -0.066048  -0.135067  0  3.899586  0
C  C239  1  0.86486059  0.30671985  0.86116351  1  0.444768  0  0.051483  0.100819  0  3.905044  0
C  C240  1  0.85608218  0.26011329  0.89078215  1  0.054272  0  -0.067808  -0.12397  0  3.909546  0
C  C241  1  0.77801679  0.18727646  0.88339163  1  -0.01999  0  0.022163  0.066423  0  3.936764  0
C  C242  1  0.71218272  0.16355111  0.84602792  1  0.002194  0  -0.067482  -0.133875  0  3.91027  0
C  C243  1  0.72749836  0.21277865  0.81735994  1  0.495358  0  0.047629  0.092428  0  3.9333  0
C  C244  1  0.76654970  0.13647936  0.91455462  1  1.108759  0  0.262846  0.381921  0  4.018331  0
C  C245  1  0.83351083  0.10122427  0.96689616  1  1.131745  0  0.262059  0.377444  0  4.026591  0
C  C246  1  0.67232111  0.03837213  0.94506164  1  1.089211  0  0.26288  0.380226  0  4.004683  0
C  C247  1  0.57659527  0.97607156  0.94769334  1  -0.008006  0  0.020596  0.059917  0  3.926236  0
C  C248  1  0.56688566  0.92753046  0.97669863  1  0.01889  0  -0.071187  -0.131585  0  3.927263  0
C  C249  1  0.49454743  0.96280208  0.92028148  1  -0.040994  0  -0.070176  -0.135444  0  3.915154  0
C  C250  1  0.47731899  0.86686021  0.97652378  1  0.515753  0  0.046693  0.094304  0  3.919055  0
C  C251  1  0.40776087  0.90086152  0.92193204  1  0.457194  0  0.04595  0.093613  0  3.923009  0
I  I252  1  0.83145560  0.95349736  0.87030793  1  -0.520857  0  -0.300366  -0.429021  0  1.230862  0
I  I253  1  0.65039320  0.76412685  0.94284705  1  -0.52751  0  -0.264012  -0.436697  0  1.303274  0
I  I254  1  0.54463951  0.74327539  0.79619061  1  -0.510936  0  -0.262794  -0.43041  0  1.326375  0
I  I255  1  0.49459599  0.52250724  0.69055037  1  -0.526183  0  -0.253693  -0.420468  0  1.337893  0
I  I256  1  0.36233611  0.22735726  0.59116108  1  -0.532866  0  -0.263627  -0.449904  0  1.366366  0
I  I257  1  0.57503081  0.29877577  0.48751602  1  -0.524264  0  -0.298444  -0.445771  0  1.211045  0
I  I258  1  0.12228790  0.95334340  0.37027612  1  -0.519483  0  -0.300498  -0.429118  0  1.231409  0
I  I259  1  0.11355692  0.76398541  0.44289146  1  -0.5283  0  -0.264065  -0.436739  0  1.30371  0
I  I260  1  0.19859116  0.74332086  0.29616932  1  -0.510569  0  -0.262517  -0.430204  0  1.326714  0
I  I261  1  0.02782791  0.52241299  0.19053475  1  -0.523659  0  -0.253557  -0.420156  0  1.337817  0
I  I262  1  0.86490488  0.22736046  0.09138113  1  -0.532242  0  -0.263121  -0.449689  0  1.367102  0
I  I263  1  0.72382350  0.29843654  0.98736018  1  -0.522945  0  -0.297754  -0.445307  0  1.212812  0
I  I264  1  0.87771163  0.04665632  0.62972420  1  -0.519488  0  -0.300512  -0.429126  0  1.231375  0
I  I265  1  0.88644403  0.23601314  0.55710838  1  -0.528338  0  -0.264062  -0.436721  0  1.303711  0
I  I266  1  0.80140857  0.25668994  0.70382571  1  -0.510589  0  -0.262496  -0.430166  0  1.326766  0
I  I267  1  0.97217162  0.47758673  0.80946493  1  -0.523653  0  -0.253553  -0.420135  0  1.337819  0
I  I268  1  0.13509665  0.77263926  0.90861919  1  -0.532208  0  -0.263124  -0.449686  0  1.367069  0
I  I269  1  0.27618190  0.70156958  0.01264259  1  -0.522952  0  -0.297765  -0.445333  0  1.212826  0
I  I270  1  0.16854355  0.04650293  0.12969215  1  -0.520874  0  -0.300369  -0.429041  0  1.230853  0
I  I271  1  0.34960671  0.23587228  0.05715351  1  -0.527504  0  -0.264029  -0.436709  0  1.303248  0
I  I272  1  0.45535936  0.25672433  0.20380907  1  -0.510964  0  -0.262797  -0.430415  0  1.326346  0
I  I273  1  0.50540066  0.47749072  0.30945325  1  -0.526169  0  -0.253705  -0.420486  0  1.337833  0
I  I274  1  0.63766404  0.77264770  0.40883896  1  -0.532885  0  -0.263629  -0.449917  0  1.366411  0
I  I275  1  0.42497189  0.70122628  0.51248428  1  -0.524262  0  -0.298439  -0.445767  0  1.211056  0
N  N276  1  0.91700772  0.86939451  0.95357690  1  -1.253211  0  -0.328191  -0.196257  0  3.566397  0
N  N277  1  0.82887708  0.75920284  0.85840916  1  -1.27435  0  -0.322911  -0.183397  0  3.551344  0
N  N278  1  0.99746129  0.63039287  0.74995944  1  -1.199559  0  -0.299285  -0.39049  0  3.22765  0
N  N279  1  0.95202431  0.51616785  0.69198162  1  -1.154578  0  -0.295471  -0.388539  0  3.185987  0
N  N280  1  0.83040325  0.54875944  0.72988186  1  -1.181332  0  -0.294732  -0.386809  0  3.214132  0
N  N281  1  0.32099158  0.62241002  0.71827841  1  -1.252308  0  -0.321252  -0.183116  0  3.544346  0
N  N282  1  0.63117832  0.32516279  0.60691647  1  -1.261463  0  -0.325431  -0.183033  0  3.560377  0
N  N283  1  0.19807822  0.71660615  0.17506554  1  -1.253442  0  -0.325953  -0.184893  0  3.56451  0
N  N284  1  0.15337266  0.85098379  0.06048785  1  -1.180895  0  -0.294828  -0.387436  0  3.224803  0
N  N285  1  0.25268794  0.95296665  0.02777436  1  -1.172139  0  -0.295354  -0.390017  0  3.227581  0
N  N286  1  0.32190840  0.91939665  0.08494659  1  -1.165937  0  -0.297737  -0.396779  0  3.210916  0
N  N287  1  0.60040042  0.14690221  0.05074837  1  -1.274339  0  -0.327067  -0.184953  0  3.558755  0
N  N288  1  0.95265920  0.86947441  0.45353787  1  -1.254216  0  -0.327983  -0.195589  0  3.567454  0
N  N289  1  0.93039558  0.75917301  0.35834201  1  -1.260655  0  -0.322258  -0.183594  0  3.552626  0
N  N290  1  0.63282809  0.63031959  0.24995309  1  -1.185571  0  -0.299218  -0.391033  0  3.229302  0
N  N291  1  0.56410647  0.51608063  0.19197312  1  -1.159739  0  -0.295956  -0.388387  0  3.184322  0
N  N292  1  0.71824107  0.54867435  0.22992507  1  -1.1629  0  -0.295067  -0.386411  0  3.215071  0
N  N293  1  0.30128463  0.62232116  0.21834648  1  -1.254482  0  -0.321173  -0.182593  0  3.543014  0
N  N294  1  0.69413488  0.32522299  0.10684825  1  -1.246027  0  -0.325325  -0.183078  0  3.560367  0
N  N295  1  0.51834182  0.71670922  0.67511107  1  -1.246059  0  -0.326422  -0.186078  0  3.56522  0
N  N296  1  0.69761903  0.85095123  0.56041687  1  -1.185174  0  -0.295228  -0.387429  0  3.224594  0
N  N297  1  0.70023194  0.95284518  0.52764083  1  -1.175604  0  -0.29586  -0.389745  0  3.224836  0
N  N298  1  0.59739501  0.91929277  0.58482691  1  -1.16352  0  -0.296889  -0.396399  0  3.211172  0
N  N299  1  0.54635779  0.14671309  0.55070816  1  -1.259784  0  -0.327532  -0.185857  0  3.559664  0
N  N300  1  0.04734183  0.13052297  0.54646278  1  -1.254719  0  -0.327868  -0.195392  0  3.567559  0
N  N301  1  0.06960444  0.24082904  0.64165862  1  -1.260647  0  -0.322256  -0.183621  0  3.552655  0
N  N302  1  0.36717136  0.36968129  0.75004674  1  -1.185526  0  -0.299282  -0.391016  0  3.229336  0
N  N303  1  0.43589364  0.48392025  0.80802703  1  -1.159757  0  -0.295964  -0.388386  0  3.184334  0
N  N304  1  0.28175963  0.45132770  0.77007523  1  -1.162881  0  -0.295048  -0.386345  0  3.215127  0
N  N305  1  0.69871453  0.37767914  0.78165327  1  -1.254444  0  -0.321147  -0.182584  0  3.543036  0
N  N306  1  0.30586524  0.67477789  0.89315318  1  -1.245984  0  -0.325306  -0.183051  0  3.560263  0
N  N307  1  0.48165884  0.28328875  0.32488934  1  -1.246265  0  -0.32645  -0.186038  0  3.565309  0
N  N308  1  0.30238000  0.14904616  0.43958378  1  -1.184622  0  -0.295372  -0.387689  0  3.22446  0
N  N309  1  0.29976672  0.04715279  0.47235894  1  -1.175626  0  -0.29592  -0.389821  0  3.224877  0
N  N310  1  0.40260431  0.08070520  0.41517221  1  -1.163603  0  -0.296944  -0.396533  0  3.211196  0
N  N311  1  0.45364287  0.85328488  0.44929193  1  -1.25987  0  -0.327548  -0.185799  0  3.559612  0
N  N312  1  0.08299298  0.13060754  0.04642244  1  -1.253182  0  -0.328254  -0.196322  0  3.566342  0
N  N313  1  0.17112236  0.24079804  0.14159067  1  -1.274367  0  -0.322928  -0.183443  0  3.551394  0
N  N314  1  0.00253690  0.36960684  0.25004088  1  -1.199591  0  -0.29929  -0.390472  0  3.227658  0
N  N315  1  0.04797551  0.48383245  0.30801878  1  -1.154626  0  -0.295393  -0.388352  0  3.18607  0
N  N316  1  0.16959561  0.45124028  0.27011814  1  -1.181344  0  -0.294696  -0.386764  0  3.214185  0
N  N317  1  0.67900729  0.37758970  0.28172062  1  -1.252129  0  -0.321235  -0.183063  0  3.544373  0
N  N318  1  0.36882159  0.67483634  0.39308312  1  -1.261616  0  -0.325522  -0.183216  0  3.560404  0
N  N319  1  0.80192418  0.28339531  0.82493372  1  -1.253456  0  -0.325989  -0.185038  0  3.564541  0
N  N320  1  0.84662766  0.14901884  0.93951189  1  -1.180678  0  -0.2948  -0.387329  0  3.224767  0
N  N321  1  0.74731305  0.04703598  0.97222538  1  -1.172109  0  -0.295302  -0.389988  0  3.227691  0
N  N322  1  0.67809229  0.08060540  0.91505275  1  -1.166377  0  -0.297662  -0.396715  0  3.210901  0
N  N323  1  0.39960036  0.85309867  0.94925242  1  -1.274287  0  -0.327049  -0.184979  0  3.558713  0
