# generated using pymatgen
data_H11PbC10S2N5
_symmetry_space_group_name_H-M   'P 1'
_cell_length_a   7.20226462
_cell_length_b   9.62661776
_cell_length_c   11.18544518
_cell_angle_alpha   65.66083424
_cell_angle_beta   83.81031299
_cell_angle_gamma   69.55317918
_symmetry_Int_Tables_number   1
_chemical_formula_structural   H11PbC10S2N5
_chemical_formula_sum   'H22 Pb2 C20 S4 N10'
_cell_volume   661.48624096
_cell_formula_units_Z   2
loop_
 _symmetry_equiv_pos_site_id
 _symmetry_equiv_pos_as_xyz
  1  'x, y, z'
loop_
 _atom_site_type_symbol
 _atom_site_label
 _atom_site_symmetry_multiplicity
 _atom_site_fract_x
 _atom_site_fract_y
 _atom_site_fract_z
 _atom_site_occupancy
 _atom_site_pbe_bader_spin_density
 _atom_site_pbe_cm5_charge
 _atom_site_pbe_ddec_charge
 _atom_site_pbe_ddec_spin_density
 _atom_site_pbe_ddec_sum_bond_order
 _atom_site_pbe_magmom
H  H0  1  0.67183552  0.58163554  0.92849335  1  0  0.298435  0.264117  0  1.002486  0
H  H1  1  0.32817796  0.41835857  0.07151277  1  0  0.298354  0.264022  0  1.002437  0
H  H2  1  0.09045083  0.15585361  0.55153949  1  0  0.097952  0.105112  0  1.033047  0
H  H3  1  0.90949808  0.84415631  0.44843379  1  0  0.098  0.105203  0  1.033133  0
H  H4  1  0.06779239  0.20161790  0.31544669  1  0  0.114523  0.081877  0  1.016959  0
H  H5  1  0.93224489  0.79839771  0.68451852  1  0  0.114593  0.081923  0  1.01697  0
H  H6  1  0.54190263  0.69439311  0.61744242  1  0  0.104797  0.12054  0  1.055323  0
H  H7  1  0.45802327  0.30558678  0.38257641  1  0  0.104832  0.120551  0  1.055302  0
H  H8  1  0.33586857  0.89473586  0.70391276  1  0  0.093587  0.097056  0  1.040151  0
H  H9  1  0.66402496  0.10525858  0.29608873  1  0  0.09357  0.097016  0  1.040296  0
H  H10  1  0.76201813  0.50065476  0.39196539  1  0  0.098094  0.147745  0  1.01778  0
H  H11  1  0.23807013  0.49938008  0.60802603  1  0  0.098102  0.147604  0  1.017865  0
H  H12  1  0.64531483  0.51196284  0.53921843  1  0  0.095154  0.143956  0  1.020496  0
H  H13  1  0.35468852  0.48799772  0.46077020  1  0  0.095135  0.143968  0  1.020328  0
H  H14  1  0.81465814  0.61519513  0.46640438  1  0  0.094158  0.141473  0  1.009961  0
H  H15  1  0.18530926  0.38482170  0.53365756  1  0  0.094075  0.141351  0  1.009932  0
H  H16  1  0.88146930  0.33837125  0.05469593  1  0  0.093993  0.091836  0  1.059083  0
H  H17  1  0.11854216  0.66161808  0.94530657  1  0  0.094011  0.091921  0  1.059069  0
H  H18  1  0.75193658  0.35290405  0.19732046  1  0  0.097799  0.105211  0  1.026427  0
H  H19  1  0.24811585  0.64708661  0.80269347  1  0  0.09785  0.105326  0  1.026345  0
H  H20  1  0.94829246  0.43458151  0.14308738  1  0  0.097198  0.106915  0  1.028954  0
H  H21  1  0.05174611  0.56542052  0.85689400  1  0  0.097214  0.107045  0  1.028908  0
Pb  Pb22  1  0.23380028  0.01828741  0.10373427  1  0  0.424509  0.597749  0  2.300611  0
Pb  Pb23  1  0.76623869  0.98171329  0.89625379  1  0  0.424542  0.597772  0  2.300622  0
C  C24  1  0.41318606  0.84034848  0.41808690  1  0  0.117457  0.15331  0  3.995951  0
C  C25  1  0.58680802  0.15964554  0.58191594  1  0  0.117423  0.153479  0  3.99591  0
C  C26  1  0.43442682  0.80649999  0.55185814  1  0  -0.079588  -0.148202  0  3.901794  0
C  C27  1  0.56552338  0.19348871  0.44815179  1  0  -0.079629  -0.148412  0  3.901917  0
C  C28  1  0.31823328  0.91971539  0.60056552  1  0  -0.071815  -0.027821  0  3.96461  0
C  C29  1  0.68169855  0.08028429  0.39943102  1  0  -0.071865  -0.02754  0  3.964877  0
C  C30  1  0.18372292  0.06488866  0.51644364  1  0  -0.087452  -0.128067  0  3.978022  0
C  C31  1  0.81623678  0.93511514  0.48353823  1  0  -0.087569  -0.128515  0  3.978788  0
C  C32  1  0.17018985  0.08997044  0.38544824  1  0  0.051538  0.098914  0  3.970095  0
C  C33  1  0.82981840  0.91003748  0.61452847  1  0  0.051487  0.098984  0  3.97028  0
C  C34  1  0.53452016  0.72664842  0.36124449  1  0  0.127994  0.188147  0  3.909195  0
C  C35  1  0.46549244  0.27334445  0.63876300  1  0  0.128138  0.188147  0  3.908905  0
C  C36  1  0.69754117  0.57921860  0.44442782  1  0  -0.244086  -0.452378  0  3.949164  0
C  C37  1  0.30247781  0.42078515  0.55558185  1  0  -0.24404  -0.452084  0  3.948722  0
C  C38  1  0.57705888  0.68178228  0.06516490  1  0  0.232092  0.317795  0  4.159835  0
C  C39  1  0.42296310  0.31820826  0.93484193  1  0  0.232266  0.317998  0  4.159449  0
C  C40  1  0.82497345  0.41426775  0.11033759  1  0  -0.142198  -0.224219  0  3.954735  0
C  C41  1  0.17505503  0.58572414  0.88966482  1  0  -0.142316  -0.224602  0  3.954775  0
C  C42  1  0.13829934  0.62256975  0.21131109  1  0  0.138981  0.248704  0  4.279753  0
C  C43  1  0.86167605  0.37745799  0.78868854  1  0  0.138818  0.248606  0  4.280002  0
S  S44  1  0.42226182  0.85948611  0.94381084  1  0  -0.141526  -0.373507  0  2.458947  0
S  S45  1  0.57777959  0.14050838  0.05618723  1  0  -0.141526  -0.373503  0  2.458771  0
S  S46  1  0.99693129  0.79812477  0.21203097  1  0  -0.1228  -0.295784  0  2.514611  0
S  S47  1  0.00307664  0.20191174  0.78796554  1  0  -0.122699  -0.295717  0  2.514566  0
N  N48  1  0.28008867  0.98138849  0.33820486  1  0  -0.30791  -0.266722  0  3.496662  0
N  N49  1  0.71993449  0.01861328  0.66178378  1  0  -0.30779  -0.266673  0  3.496531  0
N  N50  1  0.49702442  0.76012040  0.23771568  1  0  -0.182843  -0.126197  0  3.557259  0
N  N51  1  0.50299251  0.23986889  0.76229188  1  0  -0.182941  -0.126133  0  3.557206  0
N  N52  1  0.60635135  0.65107252  0.19007291  1  0  -0.228887  -0.267152  0  3.367055  0
N  N53  1  0.39366293  0.34891308  0.80993695  1  0  -0.229058  -0.267488  0  3.367234  0
N  N54  1  0.68511933  0.56566119  0.02420904  1  0  -0.413547  -0.248683  0  3.608318  0
N  N55  1  0.31489307  0.43432562  0.97579963  1  0  -0.413436  -0.248513  0  3.607872  0
N  N56  1  0.23609010  0.49462538  0.21170247  1  0  -0.355617  -0.45177  0  2.901294  0
N  N57  1  0.76386665  0.50539369  0.78830032  1  0  -0.355533  -0.45169  0  2.901515  0
