# generated using pymatgen
data_CuH14C20S4(N5O7)2
_symmetry_space_group_name_H-M   'P 1'
_cell_length_a   8.83139949
_cell_length_b   9.19832073
_cell_length_c   10.60339709
_cell_angle_alpha   67.41119093
_cell_angle_beta   86.29398465
_cell_angle_gamma   71.10402142
_symmetry_Int_Tables_number   1
_chemical_formula_structural   CuH14C20S4(N5O7)2
_chemical_formula_sum   'Cu1 H14 C20 S4 N10 O14'
_cell_volume   750.65626420
_cell_formula_units_Z   1
loop_
 _symmetry_equiv_pos_site_id
 _symmetry_equiv_pos_as_xyz
  1  'x, y, z'
loop_
 _atom_site_type_symbol
 _atom_site_label
 _atom_site_symmetry_multiplicity
 _atom_site_fract_x
 _atom_site_fract_y
 _atom_site_fract_z
 _atom_site_occupancy
 _atom_site_hle17_ddec_charge
 _atom_site_hle17_ddec_spin_density
 _atom_site_hle17_ddec_sum_bond_order
 _atom_site_hle17_magmom
 _atom_site_hse06_10hf_bader_charge
 _atom_site_hse06_10hf_bader_spin_density
 _atom_site_hse06_10hf_ddec_charge
 _atom_site_hse06_10hf_ddec_spin_density
 _atom_site_hse06_10hf_ddec_sum_bond_order
 _atom_site_hse06_10hf_magmom
 _atom_site_hse06_ddec_charge
 _atom_site_hse06_ddec_spin_density
 _atom_site_hse06_ddec_sum_bond_order
 _atom_site_hse06_magmom
 _atom_site_pbe_cm5_charge
 _atom_site_pbe_ddec_charge
 _atom_site_pbe_ddec_spin_density
 _atom_site_pbe_ddec_sum_bond_order
 _atom_site_pbe_magmom
Cu  Cu0  1  0.00000122  0.99999900  0.00000120  1  0.902504  0.701039  1.835236  0.526  1.193906  0.644497  0.891604  0.78689  2.218638  0.641  0.972057  0.852298  2.161272  0.728  0.787364  0.838188  0.736526  2.264658  0.579
H  H1  1  0.08223640  0.16509127  0.16853626  1  0.15418  -1.5e-05  0.938153  0.0  0.093326  -5.4e-05  0.172843  -6.7e-05  0.997592  0.0  0.175061  -9.7e-05  0.996004  0.0  0.105208  0.171219  -3.5e-05  0.998732  0.0
H  H2  1  0.91776425  0.83490693  0.83146408  1  0.154163  -1.1e-05  0.938168  0.0  0.093312  -5.5e-05  0.17284  -6.8e-05  0.997593  0.0  0.175061  -9.7e-05  0.99598  0.0  0.105193  0.171213  -3.5e-05  0.998742  0.0
H  H3  1  0.26492695  0.15408057  0.23916950  1  0.135202  -0.000338  0.942208  0.0  0.080385  -0.000237  0.155343  -0.000187  1.002299  0.0  0.157  -0.00019  1.001849  0.0  0.096454  0.15405  -0.000163  1.002766  0.0
H  H4  1  0.73507293  0.84592013  0.76083193  1  0.135186  -0.000333  0.942262  0.0  0.080387  -0.000237  0.155333  -0.000187  1.002341  0.0  0.15699  -0.00019  1.00188  0.0  0.096438  0.15404  -0.000163  1.002806  0.0
H  H5  1  0.16701553  0.00449490  0.32900099  1  0.155462  -0.0007  0.926938  -0.001  0.139685  -0.000446  0.175569  -0.000373  0.984103  0.0  0.17792  -0.000404  0.983144  0.0  0.10568  0.173901  -0.000337  0.984785  0.0
H  H6  1  0.83298400  0.99550331  0.67100036  1  0.155478  -0.000695  0.926927  -0.001  0.139698  -0.000446  0.175587  -0.000372  0.984086  0.0  0.177941  -0.000404  0.983102  0.0  0.105692  0.17392  -0.000337  0.984768  0.0
H  H7  1  0.47310822  0.66106828  0.86940860  1  0.111113  0.0001  0.937457  0.0  0.126614  7.7e-05  0.121314  3.4e-05  1.002452  0.0  0.122999  1.6e-05  1.001546  0.0  0.101364  0.120146  6.2e-05  1.003025  0.0
H  H8  1  0.52689056  0.33892868  0.13059415  1  0.111086  0.000101  0.937555  0.0  0.126605  7.7e-05  0.121331  3.4e-05  1.00246  0.0  0.123025  1.6e-05  1.001589  0.0  0.101348  0.120161  6.2e-05  1.00303  0.0
H  H9  1  0.64864759  0.48134743  0.91451875  1  0.116416  -3e-06  0.94419  0.0  0.14682  -3e-06  0.1258  7e-06  1.011445  0.0  0.127134  1.1e-05  1.010972  0.0  0.102456  0.124726  6e-06  1.012067  0.0
H  H10  1  0.35134854  0.51865078  0.08548468  1  0.116415  -2e-06  0.944194  0.0  0.146781  -3e-06  0.125766  7e-06  1.01149  0.0  0.127098  1.1e-05  1.011022  0.0  0.102442  0.124694  6e-06  1.012114  0.0
H  H11  1  0.35293189  0.23255720  0.45110784  1  0.152974  0.000403  0.932354  0.001  0.176057  0.000542  0.15595  0.000249  0.99953  0.0  0.160529  0.000153  0.994283  0.0  0.127205  0.152629  0.000353  1.003356  0.001
H  H12  1  0.64706911  0.76744349  0.54889070  1  0.153012  0.000399  0.932352  0.001  0.176076  0.000542  0.155977  0.000249  0.999545  0.0  0.160597  0.000153  0.994145  0.0  0.127178  0.152656  0.000353  1.00337  0.001
H  H13  1  0.10950626  0.58402668  0.63290890  1  0.150565  6.9e-05  0.927983  0.0  0.208248  1.8e-05  0.152274  0.0  0.995202  0.0  0.157572  -1.6e-05  0.98898  0.0  0.1289  0.148447  2.4e-05  0.999606  0.0
H  H14  1  0.89049018  0.41597400  0.36708802  1  0.150519  6.6e-05  0.928016  0.0  0.208413  1.8e-05  0.152275  0.0  0.995178  0.0  0.157575  -1.6e-05  0.98896  0.0  0.128877  0.148445  2.4e-05  0.999581  0.0
C  C15  1  0.19520770  0.08030258  0.22745436  1  -0.38219  0.000102  3.697421  0.001  -0.034225  0.000313  -0.465727  -7.3e-05  3.938145  0.0  -0.470099  -0.000109  3.944382  0.0  -0.241469  -0.462395  -4.8e-05  3.933589  0.0
C  C16  1  0.80479218  0.91969811  0.77254613  1  -0.382166  8.3e-05  3.697439  0.001  -0.034212  0.000314  -0.465716  -7.3e-05  3.938176  0.0  -0.470088  -0.000108  3.944376  0.0  -0.241448  -0.462388  -4.8e-05  3.933627  0.0
C  C17  1  0.28666138  0.96974394  0.15805593  1  0.257039  -0.011454  3.679302  -0.006  0.439108  -0.002714  0.248433  -0.003541  3.979553  -0.001  0.264352  -0.005821  3.991753  -0.003  0.138643  0.238061  -0.001682  3.970819  0.001
C  C18  1  0.71333965  0.03025676  0.84194638  1  0.257006  -0.011438  3.679326  -0.006  0.439123  -0.002716  0.248367  -0.003543  3.979608  -0.001  0.264283  -0.005822  3.99181  -0.003  0.138638  0.237996  -0.001682  3.970872  0.001
C  C19  1  0.47847340  0.77147285  0.08074339  1  0.06814  0.004046  3.840185  0.006  0.355387  0.003457  0.063307  0.002342  4.156079  0.004  0.074872  0.001807  4.16905  0.003  0.116547  0.055409  0.002831  4.147009  0.004
C  C20  1  0.52152993  0.22852412  0.91926003  1  0.068079  0.004052  3.840233  0.006  0.355451  0.003457  0.063254  0.002342  4.156131  0.004  0.074827  0.001807  4.169089  0.003  0.116546  0.055356  0.002831  4.147063  0.004
C  C21  1  0.54803407  0.55360083  0.95484204  1  -0.132824  0.000108  3.620173  0.0  -0.163956  0.000212  -0.165216  0.000108  3.876446  0.0  -0.164345  5.5e-05  3.887067  0.0  -0.144594  -0.165719  0.000181  3.869074  0.0
C  C22  1  0.45196359  0.44639614  0.04516173  1  -0.132779  0.000106  3.62015  0.0  -0.143433  0.000212  -0.165164  0.000108  3.876402  0.0  -0.164298  5.5e-05  3.887052  0.0  -0.144557  -0.165653  0.000181  3.868986  0.0
C  C23  1  0.11317743  0.17694244  0.72895938  1  0.335234  -0.006192  3.824701  -0.007  0.88707  0.000385  0.312339  0.000703  4.107557  0.0  0.33903  0.000265  4.118393  0.0  0.122276  0.29453  0.001364  4.098934  0.0
C  C24  1  0.88682358  0.82305825  0.27104010  1  0.335269  -0.006169  3.824726  -0.007  0.886857  0.000385  0.312342  0.000703  4.107577  0.0  0.339343  0.000266  4.117287  0.0  0.122317  0.29453  0.001364  4.098957  0.0
C  C25  1  0.21233502  0.14887553  0.62080956  1  -0.02729  0.010932  3.643416  0.012  0.202164  0.00795  -0.044429  0.005146  3.897273  0.006  -0.055236  0.003371  3.915725  0.004  0.065922  -0.037725  0.006678  3.885124  0.008
C  C26  1  0.78766484  0.85112516  0.37918904  1  -0.027334  0.010879  3.64341  0.012  0.202273  0.007954  -0.044366  0.005149  3.897197  0.006  -0.049104  0.003368  3.919368  0.004  0.065944  -0.037666  0.006678  3.88506  0.008
C  C27  1  0.27236210  0.26346506  0.52596749  1  -0.08859  -0.003613  3.711504  -0.002  0.112727  0.00025  -0.135118  -0.000128  3.987015  0.0  -0.125054  -0.000257  3.999392  0.0  -0.062879  -0.141607  2e-05  3.979382  0.0
C  C28  1  0.72763851  0.73653687  0.47403065  1  -0.088649  -0.003529  3.711641  -0.002  0.11275  0.000247  -0.135179  -0.00013  3.987084  0.0  -0.124684  -0.000254  3.997746  0.0  -0.062871  -0.141665  2e-05  3.97946  0.0
C  C29  1  0.23101579  0.42229376  0.53002559  1  0.051555  0.002344  3.750899  0.002  0.196715  0.000626  0.03773  0.000405  4.018671  0.0  0.027013  0.000119  4.043446  0.0  0.05915  0.040864  0.000672  3.999791  0.001
C  C30  1  0.76898293  0.57770692  0.46997214  1  0.051549  0.002311  3.750888  0.002  0.196715  0.00063  0.037758  0.000408  4.018656  0.0  0.027045  0.000117  4.043535  0.0  0.059148  0.040855  0.000673  3.999765  0.001
C  C31  1  0.13772958  0.46107683  0.63012723  1  -0.100062  -0.0032  3.74433  -0.002  0.062859  -0.000587  -0.145749  -0.000644  4.023979  0.0  -0.135776  -0.000496  4.038624  0.0  -0.067127  -0.151778  -0.000707  4.014295  0.0
C  C32  1  0.86226648  0.53892509  0.36987024  1  -0.100024  -0.003145  3.74422  -0.002  0.062676  -0.000587  -0.145752  -0.000644  4.023884  0.0  -0.135782  -0.000493  4.038653  0.0  -0.067087  -0.15178  -0.000707  4.014205  0.0
C  C33  1  0.08136408  0.34211572  0.72840263  1  -0.069481  0.00438  3.635702  0.005  0.253989  0.002869  -0.081925  0.001552  3.905858  0.002  -0.097549  0.000608  3.930584  0.001  0.055337  -0.072614  0.002481  3.890583  0.003
C  C34  1  0.91863465  0.65788497  0.27159604  1  -0.069434  0.004365  3.635688  0.005  0.254022  0.002867  -0.081894  0.00155  3.905895  0.002  -0.097516  0.000607  3.930748  0.001  0.055337  -0.072581  0.002482  3.890613  0.003
S  S35  1  0.48993240  0.86614501  0.19170796  1  0.106226  0.005536  2.539527  0.008  0.295509  0.00867  0.105845  0.004228  2.873599  0.006  0.102645  0.002527  2.875247  0.004  0.125337  0.107182  0.005794  2.872859  0.007
S  S36  1  0.51006901  0.13385444  0.80829380  1  0.106274  0.005533  2.539496  0.008  0.295335  0.008669  0.105904  0.004227  2.873569  0.006  0.102704  0.002528  2.875183  0.004  0.12536  0.107242  0.005794  2.87283  0.007
S  S37  1  0.64509473  0.62760030  0.05227647  1  0.076684  0.002288  2.378781  0.002  0.176895  0.001492  0.070214  0.000798  2.712675  0.001  0.061714  0.000536  2.713911  0.001  0.047618  0.076335  0.001135  2.711818  0.001
S  S38  1  0.35490558  0.37239541  0.94772661  1  0.076687  0.002286  2.378791  0.002  0.176929  0.001493  0.070207  0.000799  2.712666  0.001  0.061702  0.000537  2.713899  0.001  0.047619  0.076331  0.001135  2.711809  0.001
N  N39  1  0.22708012  0.93092086  0.06907823  1  -0.252068  0.068644  3.321008  0.089  -0.767518  0.07195  -0.22417  0.046833  3.643572  0.065  -0.249972  0.038507  3.663369  0.057  -0.257653  -0.208346  0.051044  3.631255  0.067
N  N40  1  0.77292243  0.06907859  0.93092346  1  -0.252061  0.068632  3.320979  0.089  -0.76759  0.071947  -0.224116  0.046831  3.643508  0.065  -0.249919  0.038504  3.663315  0.057  -0.257642  -0.208291  0.051041  3.63119  0.067
N  N41  1  0.33341267  0.81946798  0.02397955  1  -0.202715  0.002943  3.04674  0.003  -0.692822  0.00437  -0.192128  0.00219  3.342634  0.003  -0.200219  0.000481  3.359685  0.001  -0.226077  -0.185802  0.003875  3.330637  0.004
N  N42  1  0.66658874  0.18053147  0.97602221  1  -0.202679  0.002937  3.046703  0.003  -0.692731  0.00437  -0.192096  0.00219  3.342573  0.003  -0.200192  0.000481  3.359635  0.001  -0.226084  -0.18577  0.003875  3.330574  0.004
N  N43  1  0.26216135  0.98016170  0.62107491  1  0.493029  -0.000832  3.939047  -0.001  0.394668  -2.8e-05  0.559319  -0.000174  4.184023  0.0  0.58265  -0.000207  4.189959  0.0  0.064401  0.543435  -4.2e-05  4.180215  0.0
N  N44  1  0.73784118  0.01983775  0.37892584  1  0.4932  -0.000825  3.938773  -0.001  0.394593  -2.8e-05  0.559319  -0.000175  4.183935  0.0  0.56015  -0.000206  4.227883  0.0  0.064407  0.543434  -4.2e-05  4.180126  0.0
N  N45  1  0.28764341  0.54836112  0.42819280  1  0.466653  -0.000733  3.956212  -0.001  0.336826  -0.000131  0.512224  -0.00017  4.236418  0.0  0.532561  -0.000147  4.248416  0.0  0.046929  0.511403  -0.000115  4.208671  0.0
N  N46  1  0.71235493  0.45164081  0.57180453  1  0.466641  -0.000727  3.956116  -0.001  0.336561  -0.000131  0.512175  -0.000171  4.236401  0.0  0.532511  -0.000146  4.248431  0.0  0.046977  0.511478  -0.000115  4.208487  0.0
N  N47  1  0.98351630  0.39667082  0.82746331  1  0.521061  -0.001018  3.901724  -0.001  0.342186  -0.000499  0.547277  -0.000558  4.205318  0.0  0.571044  -0.000362  4.212493  0.0  0.04914  0.531305  -0.000762  4.200261  -0.001
N  N48  1  0.01648243  0.60332987  0.17253442  1  0.521026  -0.000993  3.901675  -0.001  0.342033  -0.000501  0.547235  -0.00056  4.205282  0.0  0.571004  -0.000361  4.212483  0.0  0.049139  0.531266  -0.000762  4.20022  -0.001
O  O49  1  0.06612625  0.05954993  0.81087565  1  -0.488134  0.077393  2.185158  0.107  -1.120462  0.080593  -0.48063  0.049863  2.481418  0.075  -0.521066  0.036143  2.479766  0.059  -0.299453  -0.451841  0.060152  2.481321  0.086
O  O50  1  0.93388008  0.94044827  0.18912529  1  -0.488186  0.077394  2.185205  0.107  -1.120396  0.080593  -0.480658  0.049863  2.481461  0.075  -0.520896  0.036143  2.479237  0.059  -0.299497  -0.451866  0.060152  2.48136  0.086
O  O51  1  0.40928648  0.90636174  0.63131900  1  -0.346287  0.000408  1.735721  0.001  -0.484125  0.000394  -0.34965  0.000206  1.925868  0.0  -0.365596  9.8e-05  1.921726  0.0  -0.128503  -0.338659  0.00039  1.928696  0.001
O  O52  1  0.59071605  0.09363771  0.36868081  1  -0.346279  0.000436  1.735635  0.001  -0.484046  0.000393  -0.349583  0.000205  1.925847  0.0  -0.357798  9.9e-05  1.933376  0.0  -0.128459  -0.338593  0.00039  1.928673  0.001
O  O53  1  0.15665169  0.92300773  0.61231934  1  -0.287483  0.000357  1.73564  0.0  -0.431442  0.000116  -0.290051  6.5e-05  1.915181  0.0  -0.301855  -2.7e-05  1.910595  0.0  -0.097861  -0.281818  0.000164  1.91831  0.0
O  O54  1  0.84335198  0.07699172  0.38768134  1  -0.287582  0.000326  1.73556  0.0  -0.431439  0.000117  -0.290108  6.6e-05  1.915176  0.0  -0.294187  -3e-05  1.922295  0.0  -0.097903  -0.281879  0.000164  1.918308  0.0
O  O55  1  0.37041747  0.51021478  0.33889318  1  -0.347176  -5.6e-05  1.752438  0.0  -0.492137  3.5e-05  -0.341724  -3.8e-05  1.957994  0.0  -0.353105  -8.8e-05  1.956208  0.0  -0.138415  -0.338626  6e-05  1.953275  0.0
O  O56  1  0.62958315  0.48978716  0.66110590  1  -0.347108  -5.4e-05  1.752414  0.0  -0.492116  3.4e-05  -0.341686  -3.9e-05  1.958029  0.0  -0.353067  -8.7e-05  1.956235  0.0  -0.138403  -0.338629  6e-05  1.953256  0.0
O  O57  1  0.24897564  0.68787265  0.43466325  1  -0.346514  -0.000199  1.768105  0.0  -0.465517  -7.1e-05  -0.339711  -0.000117  1.974156  0.0  -0.350806  -0.0002  1.971636  0.0  -0.133706  -0.336881  -1.8e-05  1.96988  0.0
O  O58  1  0.75101929  0.31212927  0.56533429  1  -0.346561  -0.000201  1.767964  0.0  -0.465263  -7e-05  -0.339756  -0.000116  1.974062  0.0  -0.350854  -0.000202  1.971559  0.0  -0.133781  -0.336967  -1.7e-05  1.969735  0.0
O  O59  1  0.92140102  0.54880495  0.79751024  1  -0.350077  -0.000726  1.754877  0.0  -0.476299  -0.000559  -0.327799  -0.000698  1.963587  0.0  -0.339343  -0.000938  1.959757  -0.001  -0.121148  -0.319846  -0.000422  1.966362  0.0
O  O60  1  0.07859654  0.45119573  0.20248474  1  -0.350056  -0.000708  1.754845  0.0  -0.476306  -0.000561  -0.32776  -0.000701  1.963547  0.0  -0.339308  -0.000929  1.959719  -0.001  -0.121141  -0.319809  -0.000422  1.96632  0.0
O  O61  1  0.96549845  0.29081349  0.93893931  1  -0.381908  -0.001527  1.842118  0.0  -0.505919  -0.001239  -0.377585  -0.001405  2.089575  0.0  -0.390137  -0.001489  2.079248  0.0  -0.133374  -0.369115  -0.001217  2.09709  0.0
O  O62  1  0.03450217  0.70918844  0.06105977  1  -0.38193  -0.001562  1.842152  0.0  -0.50578  -0.001234  -0.377608  -0.0014  2.089606  0.0  -0.390159  -0.001497  2.079285  0.0  -0.133393  -0.369139  -0.001217  2.097122  0.0
