# generated using pymatgen
data_Al2H12C19O12
_symmetry_space_group_name_H-M   'P 1'
_cell_length_a   6.63509175
_cell_length_b   14.36317840
_cell_length_c   18.63838665
_cell_angle_alpha   79.66396206
_cell_angle_beta   84.36444918
_cell_angle_gamma   85.94691308
_symmetry_Int_Tables_number   1
_chemical_formula_structural   Al2H12C19O12
_chemical_formula_sum   'Al4 H24 C38 O24'
_cell_volume   1736.43063211
_cell_formula_units_Z   2
loop_
 _symmetry_equiv_pos_site_id
 _symmetry_equiv_pos_as_xyz
  1  'x, y, z'
loop_
 _atom_site_type_symbol
 _atom_site_label
 _atom_site_symmetry_multiplicity
 _atom_site_fract_x
 _atom_site_fract_y
 _atom_site_fract_z
 _atom_site_occupancy
 _atom_site_pbe_bader_charge
 _atom_site_pbe_bader_spin_density
 _atom_site_pbe_cm5_charge
 _atom_site_pbe_ddec_charge
 _atom_site_pbe_ddec_spin_density
 _atom_site_pbe_ddec_sum_bond_order
 _atom_site_pbe_magmom
Al  Al0  1  0.12818995  0.49709582  0.50083194  1  2.501497  0  0.396679  1.641914  0  2.581696  0
Al  Al1  1  0.62775944  0.50023049  0.49990975  1  2.501749  0  0.396981  1.64583  0  2.57869  0
Al  Al2  1  0.63549636  0.99743574  0.99870992  1  2.50114  0  0.393332  1.646876  0  2.584422  0
Al  Al3  1  0.13617786  0.99929248  0.99712928  1  2.502016  0  0.39665  1.643935  0  2.573742  0
H  H4  1  0.03208998  0.21095039  0.79193169  1  0.091185  0  0.113233  0.13356  0  1.008667  0
H  H5  1  0.52060948  0.77896088  0.18725073  1  0.131834  0  0.111061  0.13953  0  1.027866  0
H  H6  1  0.56333094  0.32852838  0.71193292  1  0.1082  0  0.120453  0.124879  0  0.970124  0
H  H7  1  0.07576369  0.69323175  0.31928572  1  0.108625  0  0.115989  0.117183  0  0.982726  0
H  H8  1  0.00922186  0.26130629  0.67769314  1  0.08932  0  0.115809  0.132065  0  0.984135  0
H  H9  1  0.53738110  0.71815145  0.30110436  1  0.110536  0  0.111864  0.131641  0  0.994716  0
H  H10  1  0.64118492  0.30238480  0.36508036  1  0.077796  0  0.108362  0.111955  0  1.003006  0
H  H11  1  0.61847528  0.69060180  0.63197445  1  0.107329  0  0.112054  0.121037  0  0.995234  0
H  H12  1  0.24519757  0.39513606  0.30222624  1  0.094965  0  0.108382  0.114552  0  0.996151  0
H  H13  1  0.01010979  0.60505336  0.69697470  1  0.087428  0  0.109746  0.116068  0  0.99413  0
H  H14  1  0.49173568  0.19804931  0.29394242  1  0.066476  0  0.102917  0.103503  0  1.006992  0
H  H15  1  0.77471429  0.79623012  0.70112217  1  0.065786  0  0.103149  0.103608  0  1.008335  0
H  H16  1  0.27395893  0.30982277  0.19613771  1  0.081859  0  0.10555  0.107626  0  1.001221  0
H  H17  1  0.98874726  0.69250316  0.80194210  1  0.077127  0  0.104377  0.105654  0  1.004819  0
H  H18  1  0.51949303  0.11292980  0.18767919  1  0.089878  0  0.10699  0.113695  0  1.00067  0
H  H19  1  0.75299370  0.88404978  0.80597973  1  0.083189  0  0.109498  0.116154  0  0.992766  0
H  H20  1  0.12577975  0.20309015  0.12527868  1  0.114655  0  0.113681  0.122429  0  0.988939  0
H  H21  1  0.14418563  0.79896325  0.87072296  1  0.120559  0  0.112207  0.12138  0  0.993068  0
H  H22  1  0.29336581  0.11292551  0.84703222  1  0.647568  0  0.314659  0.364028  0  0.947964  0
H  H23  1  0.79608242  0.92090144  0.20553187  1  0.626667  0  0.347014  0.387042  0  0.850207  0
H  H24  1  0.40601696  0.38444488  0.47788480  1  0.619698  0  0.354387  0.432749  0  0.853667  0
H  H25  1  0.87345683  0.62138143  0.46899150  1  0.629684  0  0.353915  0.432251  0  0.851567  0
H  H26  1  0.37296909  0.12659547  0.98148045  1  0.630451  0  0.350448  0.437115  0  0.849512  0
H  H27  1  0.89945100  0.87441982  0.02766408  1  0.644452  0  0.356912  0.439086  0  0.839991  0
C  C28  1  0.33056458  0.59122186  0.59604060  1  1.57074  0  0.26933  0.63941  0  4.097206  0
C  C29  1  0.92445852  0.40392434  0.40352749  1  1.569835  0  0.264599  0.640328  0  4.098937  0
C  C30  1  0.39072360  0.62506510  0.39429312  1  1.565083  0  0.259256  0.6781  0  4.116535  0
C  C31  1  0.85871448  0.37382566  0.60445883  1  1.5644  0  0.263152  0.673933  0  4.118176  0
C  C32  1  0.71152694  0.22094156  0.79146304  1  -0.081108  0  0.021924  0.054446  0  3.912719  0
C  C33  1  0.20606012  0.78670350  0.22278492  1  -0.026417  0  0.012227  0.035839  0  3.94172  0
C  C34  1  0.88821644  0.18659971  0.81968855  1  0.048316  0  -0.082372  -0.271555  0  3.83649  0
C  C35  1  0.37032740  0.81064353  0.17572236  1  -0.014875  0  -0.079637  -0.257301  0  3.821891  0
C  C36  1  0.70570322  0.28761246  0.72264622  1  -0.003141  0  -0.059275  -0.048322  0  3.928859  0
C  C37  1  0.21785469  0.72114080  0.29192688  1  -0.060253  0  -0.062604  -0.04713  0  3.939508  0
C  C38  1  0.86403448  0.30117126  0.67136623  1  -0.021483  0  -0.074244  -0.209163  0  3.858401  0
C  C39  1  0.38966364  0.69358473  0.32490940  1  -0.00523  0  -0.078513  -0.213601  0  3.851815  0
C  C40  1  0.94065020  0.35266723  0.34009996  1  -0.023999  0  -0.015283  -0.040453  0  3.988229  0
C  C41  1  0.31648493  0.64403793  0.65835833  1  -0.065186  0  -0.015648  -0.043352  0  3.99548  0
C  C42  1  0.82587453  0.15345816  0.15069203  1  0.000464  0  -0.017496  -0.045007  0  3.993663  0
C  C43  1  0.44650426  0.84533019  0.84427132  1  -0.026692  0  -0.01627  -0.044472  0  3.994297  0
C  C44  1  0.62976318  0.19946141  0.25681809  1  -0.038702  0  -0.087777  -0.130354  0  3.996432  0
C  C45  1  0.63768509  0.79630877  0.73859751  1  -0.061367  0  -0.086691  -0.131286  0  3.993372  0
C  C46  1  0.64485223  0.15211717  0.19843397  1  -0.039697  0  -0.089231  -0.107466  0  4.003181  0
C  C47  1  0.62656798  0.84475061  0.79632412  1  0.016591  0  -0.083946  -0.094967  0  3.989812  0
C  C48  1  0.98767149  0.20325787  0.16219976  1  -0.060986  0  -0.069751  -0.123194  0  3.903693  0
C  C49  1  0.28167967  0.79680891  0.83365039  1  -0.050795  0  -0.072625  -0.129063  0  3.916645  0
C  C50  1  0.97477930  0.25431352  0.22086976  1  -0.017353  0  -0.002  0.078193  0  3.990602  0
C  C51  1  0.29065537  0.74467085  0.77579694  1  -0.013409  0  -0.0026  0.076776  0  4.001057  0
C  C52  1  0.79228390  0.25218392  0.26937990  1  -0.016013  0  -0.001999  0.080215  0  3.997635  0
C  C53  1  0.47232095  0.74457289  0.72703674  1  -0.032527  0  -0.00317  0.077947  0  4.002442  0
C  C54  1  0.77942904  0.30283159  0.32819466  1  -0.00722  0  -0.074016  -0.129701  0  3.928113  0
C  C55  1  0.48109386  0.69266940  0.66906810  1  -0.017017  0  -0.072172  -0.130931  0  3.920778  0
C  C56  1  0.12110438  0.35474841  0.29206978  1  -0.041062  0  -0.085524  -0.100437  0  3.991522  0
C  C57  1  0.13673323  0.64432941  0.70650787  1  -0.02672  0  -0.084253  -0.099836  0  3.991135  0
C  C58  1  0.13647977  0.30751058  0.23353535  1  -0.063151  0  -0.084376  -0.127922  0  3.988418  0
C  C59  1  0.12554049  0.69273123  0.76429852  1  -0.028428  0  -0.085089  -0.127722  0  3.987111  0
C  C60  1  0.36642232  0.87889103  0.10689153  1  1.571983  0  0.261887  0.683329  0  4.109152  0
C  C61  1  0.89955325  0.11827542  0.88774423  1  1.53611  0  0.268354  0.690335  0  4.083091  0
C  C62  1  0.43312829  0.89874183  0.90613215  1  1.560827  0  0.266178  0.641668  0  4.099509  0
C  C63  1  0.84064537  0.10011162  0.08858255  1  1.560865  0  0.2653  0.636812  0  4.102766  0
C  C64  1  0.50668430  0.19954755  0.83236030  1  1.60057  0  0.235664  0.58118  0  4.138693  0
C  C65  1  0.99305750  0.81921964  0.20487456  1  1.550785  0  0.242001  0.586985  0  4.123582  0
O  O66  1  0.56523256  0.59183987  0.41316098  1  -1.250743  0  -0.241675  -0.597666  0  2.283229  0
O  O67  1  0.03101299  0.39118623  0.56925901  1  -1.248576  0  -0.236254  -0.591521  0  2.303196  0
O  O68  1  0.17010514  0.55680219  0.58191244  1  -1.25814  0  -0.232319  -0.578647  0  2.322983  0
O  O69  1  0.74908843  0.41355074  0.43718610  1  -1.265926  0  -0.240991  -0.611245  0  2.352341  0
O  O70  1  0.22049592  0.60446413  0.42970130  1  -1.265757  0  -0.242301  -0.614072  0  2.339368  0
O  O71  1  0.68887885  0.41341652  0.58678414  1  -1.255956  0  -0.231121  -0.579223  0  2.313735  0
O  O72  1  0.08777747  0.43359800  0.41994409  1  -1.259925  0  -0.238264  -0.597229  0  2.33858  0
O  O73  1  0.50341221  0.58487796  0.56023871  1  -1.265816  0  -0.237378  -0.599602  0  2.368734  0
O  O74  1  0.38809064  0.44060270  0.50034432  1  -1.422221  0  -0.448329  -0.992479  0  2.204341  0
O  O75  1  0.87140073  0.55737021  0.49639933  1  -1.434446  0  -0.448149  -0.992105  0  2.199933  0
O  O76  1  0.25790280  0.91038184  0.93934310  1  -1.269226  0  -0.242551  -0.608946  0  2.366161  0
O  O77  1  0.67813578  0.06558572  0.07610415  1  -1.250736  0  -0.240392  -0.598486  0  2.343396  0
O  O78  1  0.53998830  0.89766033  0.07326900  1  -1.255454  0  -0.235887  -0.599346  0  2.326943  0
O  O79  1  0.07623772  0.08297679  0.90480214  1  -1.245643  0  -0.228861  -0.590417  0  2.330444  0
O  O80  1  0.59626322  0.92862301  0.92224924  1  -1.251406  0  -0.234842  -0.587823  0  2.341329  0
O  O81  1  0.01303627  0.09228386  0.05257414  1  -1.269499  0  -0.239676  -0.60156  0  2.345786  0
O  O82  1  0.73542200  0.09819417  0.92658183  1  -1.255657  0  -0.220558  -0.582892  0  2.396088  0
O  O83  1  0.19617504  0.91418299  0.08567757  1  -1.259197  0  -0.230567  -0.592788  0  2.354337  0
O  O84  1  0.37836743  0.05778774  0.99238482  1  -1.432345  0  -0.449219  -1.000955  0  2.205115  0
O  O85  1  0.89440304  0.94008897  0.00349525  1  -1.444578  0  -0.448467  -0.993939  0  2.202521  0
O  O86  1  0.42346756  0.25152727  0.87307466  1  -1.129701  0  -0.29259  -0.482672  0  2.036898  0
O  O87  1  0.42428551  0.12497414  0.81518599  1  -1.151454  0  -0.330309  -0.475276  0  2.258817  0
O  O88  1  0.88236311  0.76779512  0.18305998  1  -1.127327  0  -0.273694  -0.470791  0  2.082702  0
O  O89  1  0.93334758  0.90528911  0.22132425  1  -1.115678  0  -0.325217  -0.469924  0  2.225174  0
