# generated using pymatgen
data_Ag2H15C17(N2O3)3
_symmetry_space_group_name_H-M   'P 1'
_cell_length_a   6.98906237
_cell_length_b   11.68773512
_cell_length_c   13.27647762
_cell_angle_alpha   104.89072123
_cell_angle_beta   95.80952195
_cell_angle_gamma   95.85166531
_symmetry_Int_Tables_number   1
_chemical_formula_structural   Ag2H15C17(N2O3)3
_chemical_formula_sum   'Ag4 H30 C34 N12 O18'
_cell_volume   1033.42651310
_cell_formula_units_Z   2
loop_
 _symmetry_equiv_pos_site_id
 _symmetry_equiv_pos_as_xyz
  1  'x, y, z'
loop_
 _atom_site_type_symbol
 _atom_site_label
 _atom_site_symmetry_multiplicity
 _atom_site_fract_x
 _atom_site_fract_y
 _atom_site_fract_z
 _atom_site_occupancy
 _atom_site_hle17_bader_spin_density
 _atom_site_hle17_ddec_charge
 _atom_site_hle17_ddec_spin_density
 _atom_site_hle17_ddec_sum_bond_order
 _atom_site_hle17_magmom
 _atom_site_hse06_10hf_bader_spin_density
 _atom_site_hse06_10hf_ddec_charge
 _atom_site_hse06_10hf_ddec_spin_density
 _atom_site_hse06_10hf_ddec_sum_bond_order
 _atom_site_hse06_10hf_magmom
 _atom_site_hse06_bader_spin_density
 _atom_site_hse06_ddec_charge
 _atom_site_hse06_ddec_spin_density
 _atom_site_hse06_ddec_sum_bond_order
 _atom_site_hse06_magmom
 _atom_site_pbe_bader_spin_density
 _atom_site_pbe_cm5_charge
 _atom_site_pbe_ddec_charge
 _atom_site_pbe_ddec_spin_density
 _atom_site_pbe_ddec_sum_bond_order
 _atom_site_pbe_magmom
Ag  Ag0  1  0.44729897  0.11412573  0.19618731  1  0  0.542918  0  1.376717  0  0  0.397875  0  1.808733  0  0  0.425637  0  1.765049  0  0  0.484428  0.379209  0  1.838326  0
Ag  Ag1  1  0.55269324  0.88587559  0.80381299  1  0  0.542908  0  1.376791  0  0  0.397909  0  1.808778  0  0  0.425668  0  1.765096  0  0  0.48445  0.379291  0  1.838346  0
Ag  Ag2  1  0.16621248  0.18372585  0.56552850  1  0  0.597433  0  1.398237  0  0  0.474136  0  1.837326  0  0  0.49927  0  1.793395  0  0  0.492113  0.457106  0  1.867595  0
Ag  Ag3  1  0.83378483  0.81627194  0.43447059  1  0  0.597409  0  1.398284  0  0  0.474117  0  1.837375  0  0  0.499249  0  1.793449  0  0  0.492118  0.457081  0  1.867633  0
H  H4  1  0.23692215  0.57796990  0.68229764  1  0  0.105575  0  0.960859  0  0  0.111904  0  1.022274  0  0  0.114442  0  1.019939  0  0  0.122487  0.109946  0  1.024106  0
H  H5  1  0.76309549  0.42203703  0.31770921  1  0  0.105661  0  0.960879  0  0  0.111959  0  1.022325  0  0  0.114495  0  1.019996  0  0  0.122482  0.109987  0  1.024188  0
H  H6  1  0.19699049  0.69707589  0.52996948  1  0  0.131493  0  0.983554  0  0  0.132937  0  1.057  0  0  0.137692  0  1.053238  0  0  0.104486  0.129391  0  1.059999  0
H  H7  1  0.80303499  0.30293469  0.47004016  1  0  0.131571  0  0.983428  0  0  0.13286  0  1.057051  0  0  0.137606  0  1.053283  0  0  0.104451  0.129318  0  1.060058  0
H  H8  1  0.24217484  0.52951649  0.34691348  1  0  0.137711  0  0.959904  0  0  0.149342  0  1.015828  0  0  0.151686  0  1.014602  0  0  0.114136  0.147551  0  1.016856  0
H  H9  1  0.75784334  0.47049311  0.65309249  1  0  0.13766  0  0.95986  0  0  0.149329  0  1.015743  0  0  0.151658  0  1.014555  0  0  0.114178  0.147564  0  1.016704  0
H  H10  1  0.33145431  0.30024135  0.30932617  1  0  0.092271  0  0.968503  0  0  0.095763  0  1.048869  0  0  0.099981  0  1.041266  0  0  0.11586  0.09258  0  1.05442  0
H  H11  1  0.66855027  0.69976454  0.69067664  1  0  0.0922  0  0.968581  0  0  0.095696  0  1.048958  0  0  0.099913  0  1.041354  0  0  0.115815  0.092531  0  1.054468  0
H  H12  1  0.29346503  0.01017227  0.45665680  1  0  0.080479  0  0.992713  0  0  0.087098  0  1.074014  0  0  0.090637  0  1.067641  0  0  0.111051  0.084337  0  1.078825  0
H  H13  1  0.70654320  0.98983009  0.54334471  1  0  0.080497  0  0.992705  0  0  0.087115  0  1.074009  0  0  0.090655  0  1.067636  0  0  0.111075  0.084353  0  1.078825  0
H  H14  1  0.35801978  0.78232728  0.42932015  1  0  0.142225  0  0.958552  0  0  0.151552  0  1.01679  0  0  0.154171  0  1.015488  0  0  0.115063  0.149648  0  1.017754  0
H  H15  1  0.64199760  0.21766979  0.57067698  1  0  0.142239  0  0.958536  0  0  0.151596  0  1.016725  0  0  0.154218  0  1.01542  0  0  0.115069  0.149692  0  1.017695  0
H  H16  1  0.47390264  0.61657861  0.26677528  1  0  0.137543  0  0.964154  0  0  0.143974  0  1.024152  0  0  0.147469  0  1.022924  0  0  0.111351  0.141467  0  1.025137  0
H  H17  1  0.52610745  0.38342459  0.73321673  1  0  0.137507  0  0.964118  0  0  0.143986  0  1.024039  0  0  0.147494  0  1.02281  0  0  0.111317  0.141494  0  1.025003  0
H  H18  1  0.53068745  0.73684995  0.11683304  1  0  0.113972  0  0.975806  0  0  0.118367  0  1.03983  0  0  0.121391  0  1.036954  0  0  0.12415  0.116032  0  1.042076  0
H  H19  1  0.46930742  0.26315669  0.88316106  1  0  0.113931  0  0.975813  0  0  0.118368  0  1.039795  0  0  0.12139  0  1.036923  0  0  0.124159  0.116008  0  1.042086  0
H  H20  1  0.92176199  0.25201093  0.17111955  1  0  0.11515  0  0.932362  0  0  0.126013  0  0.987188  0  0  0.127939  0  0.985502  0  0  0.130302  0.124477  0  0.988661  0
H  H21  1  0.07823024  0.74798944  0.82887301  1  0  0.115186  0  0.932325  0  0  0.125948  0  0.987304  0  0  0.127863  0  0.985636  0  0  0.130299  0.124475  0  0.988683  0
H  H22  1  0.74707124  0.24961536  0.97628279  1  0  0.124645  0  0.976844  0  0  0.13004  0  1.043868  0  0  0.133426  0  1.042441  0  0  0.108433  0.127617  0  1.044885  0
H  H23  1  0.25292496  0.75038327  0.02371039  1  0  0.124482  0  0.97673  0  0  0.129864  0  1.043824  0  0  0.133256  0  1.042377  0  0  0.108316  0.127447  0  1.044829  0
H  H24  1  0.97472572  0.12507174  0.83777261  1  0  0.140024  0  0.951002  0  0  0.147161  0  1.013931  0  0  0.150446  0  1.011692  0  0  0.112486  0.14477  0  1.015595  0
H  H25  1  0.02527222  0.87492870  0.16222258  1  0  0.140113  0  0.951018  0  0  0.14725  0  1.013932  0  0  0.150532  0  1.011701  0  0  0.112488  0.14486  0  1.01559  0
H  H26  1  0.29438405  0.01248596  0.87022844  1  0  0.090313  0  0.982036  0  0  0.096589  0  1.058925  0  0  0.100537  0  1.051874  0  0  0.115714  0.093551  0  1.064347  0
H  H27  1  0.70561685  0.98751543  0.12977090  1  0  0.0903  0  0.982014  0  0  0.096572  0  1.058916  0  0  0.100518  0  1.051869  0  0  0.115691  0.093532  0  1.064338  0
H  H28  1  0.14457331  0.43316975  0.94408370  1  0  0.163843  0  0.940373  0  0  0.178369  0  1.001667  0  0  0.181045  0  1.000029  0  0  0.114087  0.176322  0  1.002938  0
H  H29  1  0.85542321  0.56681645  0.05591279  1  0  0.163908  0  0.940364  0  0  0.178419  0  1.001674  0  0  0.181094  0  1.000037  0  0  0.114123  0.176384  0  1.002919  0
H  H30  1  0.94515121  0.49743299  0.88935722  1  0  0.159256  0  0.942708  0  0  0.17217  0  1.00728  0  0  0.174743  0  1.00583  0  0  0.113349  0.170211  0  1.008419  0
H  H31  1  0.05483969  0.50255499  0.11064685  1  0  0.159224  0  0.942768  0  0  0.172193  0  1.00729  0  0  0.174767  0  1.005839  0  0  0.113304  0.170219  0  1.008453  0
H  H32  1  0.19075997  0.54505606  0.87699288  1  0  0.159554  0  0.945497  0  0  0.174242  0  1.007101  0  0  0.175903  0  1.007204  0  0  0.114072  0.172925  0  1.007135  0
H  H33  1  0.80922962  0.45493992  0.12301211  1  0  0.159528  0  0.945642  0  0  0.174236  0  1.007226  0  0  0.175892  0  1.007334  0  0  0.11404  0.1729  0  1.007293  0
C  C34  1  0.23412949  0.54747021  0.59773144  1  0  0.128798  0  3.576116  0  0  0.093255  0  3.842305  0  0  0.102032  0  3.856406  0  0  0.016407  0.087511  0  3.832661  0
C  C35  1  0.76588109  0.45253756  0.40227591  1  0  0.128572  0  3.57631  0  0  0.093053  0  3.842437  0  0  0.101825  0  3.856538  0  0  0.01641  0.087298  0  3.832811  0
C  C36  1  0.22050600  0.60443337  0.51931571  1  0  -0.161279  0  3.757814  0  0  -0.181949  0  4.024394  0  0  -0.19077  0  4.04614  0  0  -0.117247  -0.176066  0  4.00961  0
C  C37  1  0.77952204  0.39557545  0.48069294  1  0  -0.16123  0  3.757701  0  0  -0.181771  0  4.024359  0  0  -0.190571  0  4.046094  0  0  -0.11721  -0.175896  0  4.009585  0
C  C38  1  0.24364446  0.51874645  0.42560422  1  0  -0.135448  0  3.680009  0  0  -0.166374  0  3.93638  0  0  -0.164271  0  3.955713  0  0  -0.091819  -0.167326  0  3.922865  0
C  C39  1  0.75636011  0.48125945  0.57439859  1  0  -0.135424  0  3.679764  0  0  -0.166312  0  3.936184  0  0  -0.164215  0  3.955513  0  0  -0.091851  -0.167256  0  3.92267  0
C  C40  1  0.26850881  0.41341144  0.45209010  1  0  0.161743  0  3.779465  0  0  0.1558  0  4.045052  0  0  0.154965  0  4.066221  0  0  0.06247  0.156136  0  4.030664  0
C  C41  1  0.73150359  0.58659101  0.54791770  1  0  0.161879  0  3.779416  0  0  0.155732  0  4.045272  0  0  0.154896  0  4.066439  0  0  0.062511  0.156076  0  4.030878  0
C  C42  1  0.29990911  0.30102457  0.38903641  1  0  0.065485  0  3.70468  0  0  0.02714  0  3.964611  0  0  0.040586  0  3.975701  0  0  0.064826  0.018187  0  3.957209  0
C  C43  1  0.70009195  0.69897865  0.61097013  1  0  0.06541  0  3.704536  0  0  0.027107  0  3.964523  0  0  0.040557  0  3.975608  0  0  0.064771  0.018159  0  3.957113  0
C  C44  1  0.34153497  0.00936393  0.38007405  1  0  0.061126  0  3.712198  0  0  0.020848  0  3.973513  0  0  0.032507  0  3.986676  0  0  0.05883  0.013103  0  3.964734  0
C  C45  1  0.65846984  0.99063573  0.61992741  1  0  0.061028  0  3.712254  0  0  0.020753  0  3.973533  0  0  0.032408  0  3.986702  0  0  0.058797  0.013022  0  3.964748  0
C  C46  1  0.39084091  0.89825967  0.32439290  1  0  0.171112  0  3.761359  0  0  0.162631  0  4.025062  0  0  0.162515  0  4.045196  0  0  0.061653  0.162491  0  4.011613  0
C  C47  1  0.60916302  0.10174264  0.67560758  1  0  0.171013  0  3.761487  0  0  0.162638  0  4.025127  0  0  0.16251  0  4.045257  0  0  0.061669  0.16249  0  4.011684  0
C  C48  1  0.39677440  0.79390178  0.35528420  1  0  -0.152733  0  3.717103  0  0  -0.178463  0  3.977841  0  0  -0.176719  0  3.995098  0  0  -0.096294  -0.179313  0  3.966137  0
C  C49  1  0.60323501  0.20609878  0.64471397  1  0  -0.152814  0  3.717224  0  0  -0.178582  0  3.977959  0  0  -0.176841  0  3.995227  0  0  -0.096363  -0.179431  0  3.966265  0
C  C50  1  0.45684416  0.70888286  0.27135652  1  0  -0.17372  0  3.787024  0  0  -0.192697  0  4.051966  0  0  -0.200351  0  4.071492  0  0  -0.117639  -0.187683  0  4.038801  0
C  C51  1  0.54316328  0.29112213  0.72864024  1  0  -0.17365  0  3.786773  0  0  -0.192658  0  4.051691  0  0  -0.200333  0  4.07123  0  0  -0.117575  -0.187638  0  4.038526  0
C  C52  1  0.48534535  0.76548624  0.19437780  1  0  0.132091  0  3.545639  0  0  0.096806  0  3.805086  0  0  0.10586  0  3.817678  0  0  0.016852  0.090958  0  3.796586  0
C  C53  1  0.51465198  0.23451866  0.80561908  1  0  0.132058  0  3.545331  0  0  0.0968  0  3.804759  0  0  0.10584  0  3.817347  0  0  0.01687  0.090945  0  3.79629  0
C  C54  1  0.96026704  0.21630461  0.09331459  1  0  0.13722  0  3.566977  0  0  0.097439  0  3.836542  0  0  0.106576  0  3.849783  0  0  0.017704  0.0912  0  3.827738  0
C  C55  1  0.03972265  0.78369752  0.90667821  1  0  0.137038  0  3.566912  0  0  0.097374  0  3.836538  0  0  0.106514  0  3.849783  0  0  0.017574  0.0911  0  3.82769  0
C  C56  1  0.87753803  0.21194764  0.99393940  1  0  -0.162937  0  3.770829  0  0  -0.185482  0  4.038997  0  0  -0.193537  0  4.061127  0  0  -0.116634  -0.179895  0  4.023691  0
C  C57  1  0.12245523  0.78805004  0.00604887  1  0  -0.162585  0  3.77052  0  0  -0.185121  0  4.038645  0  0  -0.19317  0  4.060772  0  0  -0.116428  -0.179531  0  4.023327  0
C  C58  1  0.99266774  0.14736780  0.92308688  1  0  -0.13309  0  3.663653  0  0  -0.163055  0  3.925735  0  0  -0.161106  0  3.942946  0  0  -0.091212  -0.164023  0  3.913827  0
C  C59  1  0.00732904  0.85263443  0.07691089  1  0  -0.13335  0  3.663691  0  0  -0.163313  0  3.925811  0  0  -0.161367  0  3.943024  0  0  -0.09129  -0.164289  0  3.913917  0
C  C60  1  0.14098059  0.11614917  0.98396082  1  0  0.174325  0  3.767294  0  0  0.164129  0  4.033968  0  0  0.163993  0  4.054899  0  0  0.062119  0.164007  0  4.020022  0
C  C61  1  0.85900726  0.88385118  0.01603373  1  0  0.174431  0  3.767407  0  0  0.164223  0  4.034141  0  0  0.164086  0  4.055074  0  0  0.062211  0.164098  0  4.020179  0
C  C62  1  0.29634169  0.05156784  0.95497940  1  0  0.054909  0  3.705105  0  0  0.015697  0  3.96398  0  0  0.028138  0  3.975778  0  0  0.061224  0.007164  0  3.956256  0
C  C63  1  0.70365854  0.94843708  0.04501691  1  0  0.054995  0  3.705314  0  0  0.015792  0  3.9642  0  0  0.028233  0  3.975995  0  0  0.061287  0.007275  0  3.956459  0
C  C64  1  0.07238577  0.37640043  0.78128562  1  0  0.429195  0  3.664458  0  0  0.421761  0  3.929764  0  0  0.434901  0  3.9471  0  0  0.218585  0.412499  0  3.918258  0
C  C65  1  0.92760977  0.62359556  0.21871221  1  0  0.42918  0  3.664062  0  0  0.421748  0  3.929404  0  0  0.434888  0  3.946743  0  0  0.218573  0.412484  0  3.917883  0
C  C66  1  0.08816815  0.46790040  0.87897514  1  0  -0.387141  0  3.718093  0  0  -0.448247  0  3.933063  0  0  -0.452838  0  3.937986  0  0  -0.2117  -0.444637  0  3.929895  0
C  C67  1  0.91182337  0.53209023  0.12102578  1  0  -0.38716  0  3.718309  0  0  -0.448307  0  3.933235  0  0  -0.452894  0  3.938164  0  0  -0.211645  -0.444692  0  3.930074  0
N  N68  1  0.29568586  0.20333676  0.42016488  1  0  -0.21099  0  3.247624  0  0  -0.147347  0  3.541036  0  0  -0.164728  0  3.560109  0  0  -0.244076  -0.135593  0  3.527842  0
N  N69  1  0.70431291  0.79666909  0.57983908  1  0  -0.210859  0  3.247374  0  0  -0.147201  0  3.54077  0  0  -0.164582  0  3.559844  0  0  -0.244017  -0.135445  0  3.527571  0
N  N70  1  0.34872761  0.10667814  0.34859253  1  0  -0.187755  0  3.253161  0  0  -0.124581  0  3.551571  0  0  -0.14  0  3.569357  0  0  -0.249977  -0.114208  0  3.539218  0
N  N71  1  0.65126886  0.89332324  0.65141031  1  0  -0.187722  0  3.25319  0  0  -0.12456  0  3.551592  0  0  -0.139978  0  3.569378  0  0  -0.249965  -0.11419  0  3.539231  0
N  N72  1  0.43379797  0.03513625  0.02239258  1  0  -0.19275  0  3.264101  0  0  -0.126983  0  3.554287  0  0  -0.143206  0  3.573352  0  0  -0.244604  -0.115825  0  3.540537  0
N  N73  1  0.56620114  0.96486334  0.97760625  1  0  -0.192843  0  3.264224  0  0  -0.12709  0  3.554424  0  0  -0.14331  0  3.573485  0  0  -0.244671  -0.115934  0  3.540659  0
N  N74  1  0.06018323  0.30303611  0.70201969  1  0  -0.456647  0  2.901343  0  0  -0.412243  0  3.191864  0  0  -0.429151  0  3.199496  0  0  -0.345233  -0.401009  0  3.187096  0
N  N75  1  0.93981974  0.69696176  0.29798353  1  0  -0.456616  0  2.900926  0  0  -0.41224  0  3.191507  0  0  -0.429151  0  3.199144  0  0  -0.345248  -0.401004  0  3.186722  0
N  N76  1  0.43536724  0.37096510  0.12573946  1  0  0.692653  0  4.158328  0  0  0.723338  0  4.457307  0  0  0.751852  0  4.461748  0  0  0.08954  0.704101  0  4.453857  0
N  N77  1  0.56461933  0.62902996  0.87426364  1  0  0.692952  0  4.158145  0  0  0.723662  0  4.457046  0  0  0.752168  0  4.461501  0  0  0.089776  0.705754  0  4.453276  0
N  N78  1  0.83964590  0.06240789  0.35324323  1  0  0.69158  0  4.136039  0  0  0.719583  0  4.434589  0  0  0.748473  0  4.441149  0  0  0.089733  0.700071  0  4.429648  0
N  N79  1  0.16034749  0.93758452  0.64675443  1  0  0.691962  0  4.136317  0  0  0.719852  0  4.434963  0  0  0.74874  0  4.44153  0  0  0.089871  0.700344  0  4.430017  0
O  O80  1  0.26270544  0.43158887  0.55876039  1  0  -0.214564  0  2.446198  0  0  -0.139138  0  2.678982  0  0  -0.15612  0  2.688093  0  0  -0.123916  -0.127692  0  2.67264  0
O  O81  1  0.73729896  0.56841707  0.44124921  1  0  -0.214568  0  2.446192  0  0  -0.139072  0  2.679025  0  0  -0.156045  0  2.68813  0  0  -0.123913  -0.127622  0  2.672673  0
O  O82  1  0.44548205  0.88043979  0.22490315  1  0  -0.215105  0  2.445432  0  0  -0.137274  0  2.680326  0  0  -0.154223  0  2.687765  0  0  -0.126638  -0.125896  0  2.675207  0
O  O83  1  0.55451522  0.11956513  0.77509599  1  0  -0.214898  0  2.445182  0  0  -0.137249  0  2.680203  0  0  -0.154155  0  2.687612  0  0  -0.12666  -0.125868  0  2.675084  0
O  O84  1  0.12070896  0.15909416  0.08907960  1  0  -0.221772  0  2.471263  0  0  -0.142286  0  2.710928  0  0  -0.160161  0  2.718674  0  0  -0.128175  -0.130334  0  2.70583  0
O  O85  1  0.87928229  0.84090889  0.91091575  1  0  -0.221746  0  2.471169  0  0  -0.142309  0  2.710859  0  0  -0.160178  0  2.718597  0  0  -0.128133  -0.130352  0  2.705772  0
O  O86  1  0.57147991  0.31960542  0.16077192  1  0  -0.528928  0  1.784626  0  0  -0.512191  0  2.030329  0  0  -0.527814  0  2.01942  0  0  -0.223709  -0.500996  0  2.037389  0
O  O87  1  0.42851835  0.68039775  0.83923142  1  0  -0.528971  0  1.784599  0  0  -0.512214  0  2.030287  0  0  -0.527835  0  2.019379  0  0  -0.223708  -0.501559  0  2.037311  0
O  O88  1  0.32192687  0.41941489  0.18735039  1  0  -0.491367  0  1.762222  0  0  -0.479138  0  1.97962  0  0  -0.494305  0  1.973657  0  0  -0.201716  -0.468383  0  1.983514  0
O  O89  1  0.67807324  0.58059100  0.81265742  1  0  -0.491508  0  1.762421  0  0  -0.479272  0  1.979808  0  0  -0.494436  0  1.973852  0  0  -0.201789  -0.469054  0  1.983636  0
O  O90  1  0.41664315  0.37290361  0.03073735  1  0  -0.465142  0  1.744964  0  0  -0.456845  0  1.955244  0  0  -0.470583  0  1.949283  0  0  -0.19538  -0.447026  0  1.959129  0
O  O91  1  0.58333200  0.62707708  0.96926341  1  0  -0.465265  0  1.744733  0  0  -0.457053  0  1.955032  0  0  -0.47079  0  1.949068  0  0  -0.195556  -0.447785  0  1.95888  0
O  O92  1  0.83129681  0.10708276  0.45072452  1  0  -0.502669  0  1.849655  0  0  -0.481842  0  2.103756  0  0  -0.4978  0  2.0927  0  0  -0.201547  -0.470694  0  2.111268  0
O  O93  1  0.16870124  0.89291859  0.54927313  1  0  -0.502814  0  1.849822  0  0  -0.481932  0  2.10394  0  0  -0.497893  0  2.092892  0  0  -0.201567  -0.470784  0  2.111445  0
O  O94  1  0.81821068  0.12502732  0.28919895  1  0  -0.46654  0  1.766814  0  0  -0.454366  0  2.000159  0  0  -0.468208  0  1.990846  0  0  -0.197893  -0.444659  0  2.006398  0
O  O95  1  0.18177466  0.87496056  0.71079723  1  0  -0.466676  0  1.766796  0  0  -0.454495  0  2.000207  0  0  -0.468335  0  1.990894  0  0  -0.197984  -0.444794  0  2.00645  0
O  O96  1  0.87000423  0.95414273  0.32052131  1  0  -0.474029  0  1.820618  0  0  -0.45538  0  2.069615  0  0  -0.472838  0  2.06223  0  0  -0.198097  -0.443127  0  2.074525  0
O  O97  1  0.12998185  0.04584870  0.67947344  1  0  -0.47418  0  1.820844  0  0  -0.455487  0  2.069886  0  0  -0.472945  0  2.062502  0  0  -0.198125  -0.443238  0  2.074797  0
