# generated using pymatgen
data_CuH26C12N2Cl2O5
_symmetry_space_group_name_H-M   'P 1'
_cell_length_a   5.97812696
_cell_length_b   8.78678978
_cell_length_c   17.82075068
_cell_angle_alpha   83.89835081
_cell_angle_beta   80.16522502
_cell_angle_gamma   69.99694257
_symmetry_Int_Tables_number   1
_chemical_formula_structural   CuH26C12N2Cl2O5
_chemical_formula_sum   'Cu2 H52 C24 N4 Cl4 O10'
_cell_volume   865.54180868
_cell_formula_units_Z   2
loop_
 _symmetry_equiv_pos_site_id
 _symmetry_equiv_pos_as_xyz
  1  'x, y, z'
loop_
 _atom_site_type_symbol
 _atom_site_label
 _atom_site_symmetry_multiplicity
 _atom_site_fract_x
 _atom_site_fract_y
 _atom_site_fract_z
 _atom_site_occupancy
 _atom_site_hle17_ddec_charge
 _atom_site_hle17_ddec_spin_density
 _atom_site_hle17_ddec_sum_bond_order
 _atom_site_hle17_magmom
 _atom_site_hse06_10hf_ddec_charge
 _atom_site_hse06_10hf_ddec_spin_density
 _atom_site_hse06_10hf_ddec_sum_bond_order
 _atom_site_hse06_10hf_magmom
 _atom_site_hse06_ddec_charge
 _atom_site_hse06_ddec_spin_density
 _atom_site_hse06_ddec_sum_bond_order
 _atom_site_hse06_magmom
 _atom_site_pbe_cm5_charge
 _atom_site_pbe_ddec_charge
 _atom_site_pbe_ddec_spin_density
 _atom_site_pbe_ddec_sum_bond_order
 _atom_site_pbe_magmom
Cu  Cu0  1  0.43375587  0.25016677  0.75018077  1  0.950832  0.655082  1.716453  0.486  0.960819  0.761407  2.108315  0.613  1.058993  0.83043  2.023485  0.706  0.586809  0.898736  0.71644  2.172125  0.559
Cu  Cu1  1  0.56625845  0.74982337  0.24981408  1  0.950832  0.655087  1.716419  0.486  0.960749  0.761393  2.108264  0.613  1.058999  0.83043  2.02342  0.706  0.586811  0.898732  0.716429  2.172063  0.559
H  H2  1  0.58914126  0.68851146  0.56266703  1  0.084439  0.000458  0.911143  0.001  0.097211  0.000529  0.964472  0.001  0.098484  0.000353  0.964405  0.0  0.120117  0.09611  0.000716  0.964959  0.001
H  H3  1  0.84099923  0.81121148  0.93694441  1  0.084041  0.000346  0.911137  0.0  0.09694  0.000467  0.964881  0.001  0.098227  0.000315  0.96479  0.0  0.120147  0.095953  0.000723  0.965125  0.001
H  H4  1  0.41089350  0.31148200  0.43733966  1  0.084208  0.000456  0.911164  0.001  0.097194  0.00053  0.964402  0.001  0.098465  0.000354  0.964335  0.0  0.120092  0.09609  0.000716  0.964891  0.001
H  H5  1  0.15895395  0.18878968  0.06306698  1  0.083998  0.000343  0.911169  0.0  0.096915  0.000467  0.964918  0.001  0.098211  0.000314  0.964825  0.0  0.120143  0.09593  0.000723  0.96516  0.001
H  H6  1  0.26027193  0.49555794  0.54546449  1  0.098047  1.3e-05  0.918769  0.0  0.115854  2.8e-05  0.974529  0.0  0.117396  8e-06  0.974063  0.0  0.103853  0.114724  4.7e-05  0.974977  0.0
H  H7  1  0.30091491  0.00505147  0.95486043  1  0.096148  8e-06  0.919773  0.0  0.114162  1.6e-05  0.975186  0.0  0.115699  -2e-06  0.974774  0.0  0.103003  0.113105  5.1e-05  0.975474  0.0
H  H8  1  0.73977088  0.50444544  0.45452885  1  0.098154  1.6e-05  0.918582  0.0  0.115903  2.8e-05  0.97439  0.0  0.117464  8e-06  0.973923  0.0  0.103881  0.114769  4.7e-05  0.974841  0.0
H  H9  1  0.69904257  0.99495380  0.04514105  1  0.096286  1e-06  0.91958  0.0  0.114204  1.6e-05  0.975158  0.0  0.115733  -2e-06  0.974745  0.0  0.103008  0.113154  5.1e-05  0.975437  0.0
H  H10  1  0.30118012  0.65426247  0.47879584  1  0.084974  0.000142  0.961361  0.0  0.097981  0.000111  1.028215  0.0  0.099665  5.2e-05  1.027527  0.0  0.092616  0.09691  0.000178  1.028495  0.0
H  H11  1  0.43374298  0.84612027  0.02142903  1  0.086025  0.000168  0.960709  0.0  0.098738  0.000137  1.027865  0.0  0.100393  6.8e-05  1.027231  0.0  0.092985  0.0978  0.000172  1.027911  0.0
H  H12  1  0.69886767  0.34574011  0.52120315  1  0.084998  0.000142  0.961382  0.0  0.098021  0.000111  1.028202  0.0  0.099706  5.2e-05  1.027524  0.0  0.092613  0.096949  0.000178  1.028479  0.0
H  H13  1  0.56621145  0.15389119  0.97857398  1  0.085859  0.000159  0.960787  0.0  0.098663  0.000137  1.027843  0.0  0.100302  6.8e-05  1.027215  0.0  0.092978  0.097727  0.000172  1.02789  0.0
H  H14  1  0.42671086  0.85318429  0.68474685  1  0.121087  -0.000159  0.944247  0.0  0.137559  -9.2e-05  1.006558  0.0  0.138953  -7.4e-05  1.006541  0.0  0.108301  0.136279  -7.4e-05  1.006956  0.0
H  H15  1  0.96613504  0.64722359  0.81505201  1  0.121335  -0.000145  0.942381  0.0  0.137799  -7.3e-05  1.004973  0.0  0.139218  -6.1e-05  1.004933  0.0  0.108628  0.136617  -7.6e-05  1.00523  0.0
H  H16  1  0.57332140  0.14679795  0.31525627  1  0.121075  -0.000158  0.944334  0.0  0.137601  -9.2e-05  1.006587  0.0  0.138998  -7.4e-05  1.00657  0.0  0.108321  0.136321  -7.4e-05  1.006984  0.0
H  H17  1  0.03383162  0.35277694  0.18495125  1  0.121338  -0.000144  0.942576  0.0  0.137861  -7.3e-05  1.005052  0.0  0.139282  -6.1e-05  1.005011  0.0  0.108679  0.136679  -7.6e-05  1.005308  0.0
H  H18  1  0.25745177  0.72536275  0.73173462  1  0.119418  3.1e-05  0.962401  0.0  0.135301  6.5e-05  1.024143  0.0  0.136921  4.2e-05  1.02427  0.0  0.111544  0.134201  7.9e-05  1.023959  0.0
H  H19  1  0.71459637  0.77356712  0.76835819  1  0.118047  1e-05  0.963683  0.0  0.134717  4.8e-05  1.02463  0.0  0.136246  2.9e-05  1.024843  0.0  0.111643  0.133442  7.8e-05  1.024661  0.0
H  H20  1  0.74254717  0.27463763  0.26826693  1  0.119422  3.1e-05  0.962397  0.0  0.135339  6.5e-05  1.024113  0.0  0.136959  4.2e-05  1.024241  0.0  0.111562  0.134238  8e-05  1.023929  0.0
H  H21  1  0.28537712  0.22644922  0.23164526  1  0.11811  1.2e-05  0.963748  0.0  0.134822  4.8e-05  1.024618  0.0  0.136333  2.9e-05  1.024852  0.0  0.111652  0.133554  7.8e-05  1.024632  0.0
H  H22  1  0.10921353  0.93688659  0.70742878  1  0.136945  -8.8e-05  0.924391  0.0  0.153595  -5.1e-05  0.983452  0.0  0.154859  -3.6e-05  0.983554  0.0  0.118602  0.152562  -6.2e-05  0.983441  0.0
H  H23  1  0.75703009  0.56166014  0.79326474  1  0.137727  -8.2e-05  0.925935  0.0  0.154274  -3.4e-05  0.985371  0.0  0.155554  -2.2e-05  0.985417  0.0  0.118115  0.153094  -6.2e-05  0.98559  0.0
H  H24  1  0.89082042  0.06312058  0.29256638  1  0.136869  -8.7e-05  0.924279  0.0  0.153544  -5.1e-05  0.983379  0.0  0.15481  -3.6e-05  0.983474  0.0  0.118536  0.152513  -6.2e-05  0.983369  0.0
H  H25  1  0.24291937  0.43836079  0.20673488  1  0.137794  -8.1e-05  0.925872  0.0  0.154332  -3.5e-05  0.985309  0.0  0.155618  -2.2e-05  0.985347  0.0  0.118115  0.153147  -6.1e-05  0.985535  0.0
H  H26  1  0.96313971  0.73872617  0.56413271  1  0.114032  -2e-06  0.930095  0.0  0.13693  2.1e-05  0.98302  0.0  0.137856  1.4e-05  0.982877  0.0  0.112187  0.13601  6e-05  0.983558  0.0
H  H27  1  0.26602846  0.76110801  0.93661611  1  0.113341  -1e-06  0.928501  0.0  0.136521  2.6e-05  0.981799  0.0  0.137389  1.7e-05  0.981727  0.0  0.111849  0.135756  5.4e-05  0.982153  0.0
H  H28  1  0.03688815  0.26128004  0.43586568  1  0.114022  -1e-06  0.930145  0.0  0.136931  2e-05  0.983037  0.0  0.137857  1.4e-05  0.982895  0.0  0.112151  0.136011  6e-05  0.983571  0.0
H  H29  1  0.73393701  0.23890080  0.06338400  1  0.113406  -1e-06  0.928521  0.0  0.136596  2.6e-05  0.981751  0.0  0.137476  1.7e-05  0.981667  0.0  0.111884  0.135824  5.4e-05  0.982103  0.0
H  H30  1  0.01617419  0.63363882  0.65444230  1  0.145733  0.000259  0.947439  0.0  0.160616  0.000229  1.005952  0.0  0.163338  0.00014  1.004393  0.0  0.116216  0.158521  0.000282  1.007258  0.0
H  H31  1  0.30428443  0.86596032  0.84618690  1  0.144466  0.000217  0.949066  0.0  0.15964  0.000173  1.00796  0.0  0.162252  9.2e-05  1.006485  0.0  0.115144  0.15727  0.000288  1.009755  0.0
H  H32  1  0.98384011  0.36636585  0.34555176  1  0.145826  0.000259  0.94731  0.0  0.160665  0.000229  1.005868  0.0  0.163389  0.00014  1.004306  0.0  0.11625  0.158572  0.000282  1.007173  0.0
H  H33  1  0.69568206  0.13404853  0.15381386  1  0.144538  0.000215  0.949049  0.0  0.159661  0.000173  1.007955  0.0  0.162282  9.2e-05  1.006483  0.0  0.115126  0.157289  0.000288  1.009751  0.0
H  H34  1  0.85541099  0.85181456  0.64769626  1  0.115262  9.5e-05  1.002649  0.0  0.130664  0.00019  1.067848  0.0  0.132857  0.000123  1.066736  0.0  0.093494  0.12897  0.000257  1.068986  0.0
H  H35  1  0.35603970  0.64783990  0.85310363  1  0.114098  5.5e-05  1.003912  0.0  0.129948  0.000145  1.068999  0.0  0.132082  8.4e-05  1.067941  0.0  0.09316  0.128169  0.000275  1.070199  0.0
H  H36  1  0.14461032  0.14819409  0.35230231  1  0.115445  9.7e-05  1.002559  0.0  0.130787  0.000189  1.067807  0.0  0.132981  0.000123  1.066693  0.0  0.093541  0.129094  0.000257  1.068944  0.0
H  H37  1  0.64393116  0.35216654  0.14689741  1  0.114162  5e-05  1.003864  0.0  0.129954  0.000145  1.068993  0.0  0.132091  8.4e-05  1.067933  0.0  0.093141  0.128173  0.000275  1.070192  0.0
H  H38  1  0.37362400  0.96712162  0.56665316  1  0.117561  0.000318  0.95292  0.0  0.134765  0.000418  1.015172  0.0  0.136921  0.000297  1.014032  0.0  0.100743  0.132949  0.000579  1.016578  0.0
H  H39  1  0.90911575  0.53275561  0.93337870  1  0.119005  0.000291  0.953847  0.0  0.135832  0.000421  1.016045  0.0  0.138028  0.000293  1.014818  0.0  0.101547  0.133994  0.000542  1.017317  0.0
H  H40  1  0.62641436  0.03287145  0.43334839  1  0.117488  0.000322  0.953029  0.0  0.134682  0.000419  1.015266  0.0  0.136867  0.000298  1.014103  0.0  0.100734  0.132872  0.00058  1.016659  0.0
H  H41  1  0.09083652  0.46725121  0.06662722  1  0.118831  0.000288  0.953919  0.0  0.135753  0.00042  1.01608  0.0  0.137936  0.000293  1.014868  0.0  0.101493  0.133941  0.000542  1.017327  0.0
H  H42  1  0.05276167  0.02512972  0.57925300  1  0.124872  9.5e-05  0.950177  0.0  0.143611  0.000185  1.00772  0.0  0.145655  0.000122  1.006772  0.0  0.105416  0.141948  0.000277  1.008634  0.0
H  H43  1  0.65932961  0.47454470  0.92112886  1  0.126881  9.3e-05  0.949875  0.0  0.145027  0.000161  1.007655  0.0  0.147029  9.7e-05  1.006745  0.0  0.105728  0.143235  0.000305  1.008816  0.0
H  H44  1  0.94727988  0.97486803  0.42074629  1  0.12493  0.0001  0.950253  0.0  0.143701  0.000184  1.007725  0.0  0.145773  0.000122  1.006744  0.0  0.105472  0.142039  0.000276  1.00864  0.0
H  H45  1  0.34062132  0.52546419  0.07887219  1  0.126847  9.5e-05  0.950073  0.0  0.145063  0.000161  1.007789  0.0  0.147066  9.7e-05  1.006879  0.0  0.105796  0.143271  0.000306  1.00895  0.0
H  H46  1  0.23188275  0.89680104  0.50244308  1  0.11349  0.001301  0.988448  0.0  0.129351  0.001249  1.053175  0.0  0.13154  0.000922  1.052313  0.0  0.096126  0.127745  0.001499  1.053774  0.0
H  H47  1  0.63177643  0.60300153  0.99786134  1  0.113343  0.001299  0.990518  0.0  0.129521  0.001237  1.054352  0.0  0.131746  0.000915  1.053485  0.0  0.096012  0.12794  0.001538  1.054938  0.0
H  H48  1  0.76815937  0.10319667  0.49755564  1  0.113536  0.001303  0.988522  0.0  0.129415  0.001249  1.0532  0.0  0.131603  0.000922  1.052351  0.0  0.096112  0.127806  0.001499  1.053797  0.0
H  H49  1  0.36817014  0.39700743  0.00214065  1  0.1132  0.001299  0.990598  0.0  0.129412  0.001237  1.054438  0.0  0.13164  0.000914  1.053566  0.0  0.095986  0.12783  0.001537  1.055028  0.0
H  H50  1  0.96626100  0.18781760  0.78596539  1  0.413742  -0.00014  0.891603  0.0  0.384289  -0.000229  0.956257  0.0  0.396292  -0.000249  0.938158  0.0  0.276162  0.375853  -0.000196  0.969083  0.0
H  H51  1  0.93875529  0.31493106  0.71461648  1  0.413223  -0.000144  0.892435  0.0  0.383759  -0.000231  0.95714  0.0  0.3958  -0.000249  0.938975  0.0  0.275767  0.375152  -0.000193  0.970147  0.0
H  H52  1  0.03377464  0.81215122  0.21402087  1  0.414016  -0.00014  0.891234  0.0  0.384508  -0.000229  0.955987  0.0  0.396513  -0.000249  0.937886  0.0  0.276239  0.376072  -0.000196  0.968817  0.0
H  H53  1  0.06128063  0.68503515  0.28536744  1  0.413209  -0.000144  0.892501  0.0  0.383752  -0.000232  0.957228  0.0  0.395799  -0.00025  0.939055  0.0  0.275808  0.375141  -0.000193  0.970242  0.0
C  C54  1  0.53476601  0.50720298  0.64834523  1  0.627669  -0.004632  3.908672  -0.005  0.582643  6e-05  4.217849  -0.001  0.618666  -0.000597  4.212482  -0.001  0.201667  0.558493  0.000777  4.220072  -0.001
C  C55  1  0.69078904  0.99191182  0.85114627  1  0.627568  -0.004821  3.904642  -0.006  0.582072  4e-05  4.215348  -0.001  0.618131  -0.000656  4.210141  -0.001  0.202965  0.55799  0.000786  4.218083  -0.001
C  C56  1  0.46522160  0.49279282  0.35165990  1  0.627552  -0.004646  3.908867  -0.005  0.582684  6.1e-05  4.217936  -0.001  0.618695  -0.000596  4.212576  -0.001  0.201624  0.55854  0.000778  4.220168  -0.001
C  C57  1  0.30921693  0.00809888  0.14886328  1  0.627472  -0.004816  3.904912  -0.006  0.581956  4.1e-05  4.21568  -0.001  0.618029  -0.000657  4.210461  -0.001  0.202907  0.557871  0.000788  4.218418  -0.001
C  C58  1  0.44524750  0.63740610  0.58447039  1  -0.036031  0.0099  3.442067  0.011  -0.053208  0.006208  3.669828  0.007  -0.055263  0.004193  3.681499  0.005  0.012965  -0.051739  0.007871  3.661798  0.009
C  C59  1  0.66744491  0.86236086  0.91544278  1  -0.03251  0.010385  3.438953  0.012  -0.0504  0.006549  3.66785  0.008  -0.052476  0.004374  3.679535  0.005  0.014118  -0.048661  0.007852  3.65934  0.009
C  C60  1  0.55478328  0.36259170  0.41552947  1  -0.035339  0.009915  3.441528  0.011  -0.052956  0.006209  3.669737  0.007  -0.055002  0.004193  3.681411  0.005  0.013052  -0.051486  0.007872  3.661689  0.009
C  C61  1  0.33252178  0.13764485  0.08456457  1  -0.032483  0.010379  3.439499  0.012  -0.050436  0.006546  3.668545  0.008  -0.05254  0.004373  3.680226  0.005  0.014138  -0.048698  0.00785  3.660038  0.009
C  C62  1  0.38629172  0.55988074  0.52055587  1  -0.141642  -0.000523  3.651038  -0.001  -0.186479  -6.8e-05  3.903168  0.0  -0.187796  -0.000124  3.916368  0.0  -0.162092  -0.185389  3.9e-05  3.893764  0.0
C  C63  1  0.46655881  0.94032453  0.97955921  1  -0.141901  -0.000582  3.651054  -0.001  -0.186916  -5.3e-05  3.90481  0.0  -0.188032  -0.000118  3.917679  0.0  -0.161926  -0.185878  3.9e-05  3.894736  0.0
C  C64  1  0.61375546  0.44012023  0.47943775  1  -0.142007  -0.000546  3.650842  -0.001  -0.186884  -6.9e-05  3.903377  0.0  -0.188196  -0.000123  3.916526  0.0  -0.162166  -0.185788  3.9e-05  3.893964  0.0
C  C65  1  0.53339550  0.05968590  0.02044618  1  -0.141782  -0.000513  3.651252  -0.001  -0.186732  -5.6e-05  3.904798  0.0  -0.187901  -0.00012  3.917867  0.0  -0.161938  -0.185681  3.9e-05  3.894657  0.0
C  C66  1  0.25819965  0.82666486  0.69070837  1  -0.211514  0.000121  3.487314  0.0  -0.30015  0.00015  3.714509  0.0  -0.299415  7.9e-05  3.722954  0.0  -0.136592  -0.300167  0.000302  3.708527  0.0
C  C67  1  0.77697894  0.67271338  0.80947198  1  -0.211054  0.000156  3.486751  0.0  -0.300267  0.000179  3.713737  0.0  -0.299519  9.8e-05  3.722223  0.0  -0.137031  -0.300266  0.000296  3.70813  0.0
C  C68  1  0.74181223  0.17333426  0.30929276  1  -0.211457  0.00012  3.487198  0.0  -0.300234  0.00015  3.714491  0.0  -0.2995  7.9e-05  3.722931  0.0  -0.136615  -0.300256  0.000302  3.708518  0.0
C  C69  1  0.22298670  0.32729929  0.19053106  1  -0.211229  0.00015  3.487052  0.0  -0.300511  0.000179  3.714035  0.0  -0.299752  9.9e-05  3.722525  0.0  -0.137148  -0.300504  0.000296  3.708436  0.0
C  C70  1  0.99819850  0.74819115  0.62140618  1  -0.229894  0.000971  3.511519  0.001  -0.324662  0.000866  3.745662  0.001  -0.323589  0.000526  3.751995  0.0  -0.150005  -0.325253  0.00116  3.741985  0.001
C  C71  1  0.36831977  0.75149106  0.87924911  1  -0.225094  0.001161  3.508494  0.001  -0.321568  0.000969  3.744172  0.001  -0.320418  0.000563  3.75058  0.001  -0.148576  -0.32239  0.001201  3.740904  0.001
C  C72  1  0.00182994  0.25181617  0.37859104  1  -0.230158  0.000964  3.511419  0.001  -0.324837  0.000866  3.745533  0.001  -0.323772  0.000527  3.75187  0.0  -0.150014  -0.32543  0.00116  3.741855  0.001
C  C73  1  0.63164280  0.24851796  0.12075380  1  -0.225409  0.001173  3.508723  0.001  -0.321767  0.000968  3.744252  0.001  -0.320633  0.000562  3.750664  0.001  -0.148614  -0.322576  0.001201  3.740974  0.001
C  C74  1  0.22135845  0.92858671  0.56099427  1  -0.219516  0.001983  3.50136  0.002  -0.311435  0.001904  3.730393  0.002  -0.311213  0.001317  3.737884  0.002  -0.144206  -0.311082  0.002586  3.725471  0.003
C  C75  1  0.71230791  0.57116168  0.93927446  1  -0.22359  0.002232  3.505048  0.003  -0.314508  0.002083  3.732952  0.002  -0.314352  0.001425  3.740495  0.002  -0.145243  -0.314489  0.002659  3.728395  0.003
C  C76  1  0.77867931  0.07141341  0.43900417  1  -0.21968  0.001972  3.501796  0.002  -0.311612  0.001905  3.730749  0.002  -0.311429  0.001318  3.738195  0.002  -0.144316  -0.311267  0.002588  3.725841  0.003
C  C77  1  0.28764725  0.42884493  0.06072866  1  -0.223221  0.002231  3.505056  0.003  -0.314391  0.002081  3.733079  0.002  -0.314212  0.001424  3.74061  0.002  -0.145258  -0.314394  0.002657  3.728505  0.003
N  N78  1  0.22973199  0.78316657  0.61447386  1  0.163649  -0.000729  3.334106  -0.001  0.264853  -0.000156  3.549089  0.0  0.25726  -0.000173  3.57091  0.0  -0.219887  0.269736  -0.000136  3.534205  0.0
N  N79  1  0.62818739  0.71650510  0.88581550  1  0.161184  -0.000891  3.334142  -0.001  0.263107  -0.000289  3.549229  0.0  0.255543  -0.000291  3.571037  0.0  -0.22158  0.268045  -0.000137  3.534337  0.0
N  N80  1  0.77029630  0.21683221  0.38552287  1  0.163685  -0.000731  3.33387  -0.001  0.264912  -0.000155  3.549009  0.0  0.257321  -0.000174  3.570832  0.0  -0.219811  0.269791  -0.000136  3.534124  0.0
N  N81  1  0.37177956  0.28350033  0.11418831  1  0.161297  -0.000896  3.334128  -0.001  0.263225  -0.000287  3.549207  0.0  0.255677  -0.000291  3.570994  0.0  -0.221467  0.26816  -0.000137  3.53432  0.0
Cl  Cl82  1  0.35376279  0.37783601  0.86285901  1  -0.576191  0.094549  0.933128  0.117  -0.564152  0.061503  1.20077  0.081  -0.593915  0.044539  1.175996  0.065  -0.307419  -0.545325  0.071226  1.219581  0.088
Cl  Cl83  1  0.59013132  0.12209124  0.63727110  1  -0.580385  0.09249  0.929952  0.114  -0.56813  0.060339  1.197373  0.079  -0.597304  0.043788  1.172385  0.063  -0.309047  -0.548862  0.070582  1.216184  0.087
Cl  Cl84  1  0.64616873  0.62217713  0.13713374  1  -0.576151  0.094555  0.933196  0.117  -0.564057  0.061506  1.200822  0.081  -0.59384  0.04454  1.176051  0.065  -0.307373  -0.545243  0.07123  1.219644  0.088
Cl  Cl85  1  0.40995079  0.87790261  0.36272523  1  -0.580512  0.092485  0.929998  0.114  -0.568193  0.060337  1.197355  0.079  -0.597404  0.043787  1.172425  0.063  -0.309081  -0.548945  0.070581  1.216173  0.087
O  O86  1  0.37018945  0.45964810  0.68916234  1  -0.609096  0.06876  2.123599  0.094  -0.576152  0.04653  2.404117  0.069  -0.620125  0.034974  2.398005  0.056  -0.32605  -0.546224  0.054025  2.408198  0.076
O  O87  1  0.51757722  0.04067781  0.81123320  1  -0.607653  0.070735  2.12074  0.097  -0.575342  0.047816  2.401823  0.071  -0.619827  0.035724  2.395903  0.058  -0.326725  -0.546575  0.054132  2.406996  0.076
O  O88  1  0.62980913  0.54034055  0.31082865  1  -0.609117  0.068805  2.123167  0.094  -0.576181  0.046551  2.40361  0.069  -0.620209  0.034987  2.397587  0.056  -0.326121  -0.546251  0.054049  2.407677  0.076
O  O89  1  0.48243478  0.95932586  0.18876372  1  -0.607494  0.070698  2.120972  0.097  -0.575216  0.0478  2.402092  0.071  -0.619706  0.035712  2.396181  0.058  -0.326622  -0.54647  0.054113  2.407281  0.076
O  O90  1  0.75570075  0.45836284  0.65108303  1  -0.594121  0.000227  1.950223  0.002  -0.548412  7.4e-05  2.173971  0.001  -0.573164  -0.000777  2.16475  0.0  -0.307021  -0.531069  0.001117  2.179724  0.002
O  O91  1  0.86769455  0.03891413  0.84705388  1  -0.594935  0.00076  1.949916  0.002  -0.548779  0.000487  2.173905  0.002  -0.573645  -0.000502  2.164812  0.0  -0.307314  -0.531882  0.001125  2.18037  0.002
O  O92  1  0.24430660  0.54164862  0.34893670  1  -0.594038  0.000227  1.950942  0.002  -0.548361  7.1e-05  2.174667  0.001  -0.573101  -0.000778  2.165445  0.0  -0.306889  -0.531025  0.001116  2.180428  0.002
O  O93  1  0.13226820  0.96110904  0.15297561  1  -0.595046  0.000755  1.949664  0.002  -0.548769  0.000489  2.173607  0.002  -0.573643  -0.000498  2.164511  0.0  -0.307348  -0.531871  0.001128  2.180073  0.002
O  O94  1  0.04705267  0.25523739  0.75182169  1  -0.873043  -0.001785  1.864227  0.0  -0.837501  -0.001738  2.049043  -0.001  -0.858876  -0.002083  2.009416  -0.001  -0.616933  -0.822024  -0.001282  2.077252  0.0
O  O95  1  0.95304082  0.74464748  0.24813157  1  -0.873295  -0.001785  1.863871  0.0  -0.837712  -0.001737  2.048538  -0.001  -0.859099  -0.002082  2.008914  -0.001  -0.617044  -0.822245  -0.001282  2.076753  0.0
