# generated using pymatgen
data_CdH10C17N4O7
_symmetry_space_group_name_H-M   'P 1'
_cell_length_a   4.42476037
_cell_length_b   13.77938358
_cell_length_c   13.82787217
_cell_angle_alpha   104.80243081
_cell_angle_beta   90.87978420
_cell_angle_gamma   93.88185164
_symmetry_Int_Tables_number   1
_chemical_formula_structural   CdH10C17N4O7
_chemical_formula_sum   'Cd2 H20 C34 N8 O14'
_cell_volume   812.77572113
_cell_formula_units_Z   2
loop_
 _symmetry_equiv_pos_site_id
 _symmetry_equiv_pos_as_xyz
  1  'x, y, z'
loop_
 _atom_site_type_symbol
 _atom_site_label
 _atom_site_symmetry_multiplicity
 _atom_site_fract_x
 _atom_site_fract_y
 _atom_site_fract_z
 _atom_site_occupancy
 _atom_site_pbe_bader_spin_density
 _atom_site_pbe_cm5_charge
 _atom_site_pbe_ddec_charge
 _atom_site_pbe_ddec_spin_density
 _atom_site_pbe_ddec_sum_bond_order
 _atom_site_pbe_magmom
Cd  Cd0  1  0.66212426  0.87268479  0.55409282  1  0  0.805669  0.9643  0  2.157262  0
Cd  Cd1  1  0.33788089  0.12731889  0.44591718  1  0  0.805667  0.964293  0  2.157309  0
H  H2  1  0.79015049  0.57539869  0.09063543  1  0  0.129756  0.147784  0  0.995757  0
H  H3  1  0.20981723  0.42461366  0.90936603  1  0  0.129793  0.147824  0  0.9956  0
H  H4  1  0.34262758  0.85117897  0.21124499  1  0  0.112778  0.121952  0  1.019876  0
H  H5  1  0.65737437  0.14882302  0.78875594  1  0  0.11278  0.12193  0  1.019976  0
H  H6  1  0.19625464  0.00033087  0.71104856  1  0  0.115602  0.095242  0  1.014292  0
H  H7  1  0.80375650  0.99966378  0.28894794  1  0  0.115615  0.095302  0  1.014283  0
H  H8  1  0.37834686  0.02540182  0.88829793  1  0  0.10904  0.120927  0  0.995876  0
H  H9  1  0.62166135  0.97459848  0.11170220  1  0  0.109043  0.12094  0  0.995863  0
H  H10  1  0.14443523  0.91008261  0.98714491  1  0  0.105008  0.101016  0  1.01717  0
H  H11  1  0.85558092  0.08991538  0.01285584  1  0  0.104995  0.10092  0  1.017238  0
H  H12  1  0.73092511  0.78353428  0.90890065  1  0  0.109737  0.124719  0  1.029994  0
H  H13  1  0.26908751  0.21646176  0.09110192  1  0  0.109754  0.124731  0  1.030166  0
H  H14  1  0.39975777  0.68248794  0.83879284  1  0  0.107018  0.110906  0  1.052379  0
H  H15  1  0.60021749  0.31751108  0.16120988  1  0  0.107065  0.110909  0  1.052322  0
H  H16  1  0.99121028  0.56333069  0.74477600  1  0  0.105705  0.100783  0  1.03965  0
H  H17  1  0.00876403  0.43667035  0.25522479  1  0  0.105739  0.100781  0  1.0396  0
H  H18  1  0.87672260  0.55864809  0.56545671  1  0  0.112092  0.121804  0  0.995668  0
H  H19  1  0.12328719  0.44134884  0.43454007  1  0  0.112094  0.121823  0  0.995634  0
H  H20  1  0.17899879  0.67983446  0.48851673  1  0  0.118658  0.098547  0  1.002663  0
H  H21  1  0.82102905  0.32016116  0.51147816  1  0  0.118683  0.098545  0  1.002758  0
C  C22  1  0.04141571  0.80813554  0.31444604  1  0  -0.036225  -0.167166  0  3.915949  0
C  C23  1  0.95858753  0.19186609  0.68555852  1  0  -0.036155  -0.16697  0  3.91576  0
C  C24  1  0.79795925  0.73786950  0.32979466  1  0  0.123875  0.337294  0  4.060924  0
C  C25  1  0.20205321  0.26213699  0.67020864  1  0  0.123907  0.337226  0  4.060866  0
C  C26  1  0.72520929  0.65153013  0.24443834  1  0  0.062609  -0.054932  0  3.847188  0
C  C27  1  0.27478788  0.34847495  0.75556946  1  0  0.062547  -0.05506  0  3.847486  0
C  C28  1  0.85446495  0.64096270  0.15210529  1  0  -0.060854  -0.124409  0  3.974895  0
C  C29  1  0.14551481  0.35904235  0.84789912  1  0  -0.060839  -0.124324  0  3.974819  0
C  C30  1  0.07166618  0.71498065  0.14047166  1  0  0.058178  0.023621  0  4.01308  0
C  C31  1  0.92831368  0.28502339  0.85953043  1  0  0.05822  0.023488  0  4.013123  0
C  C32  1  0.16449156  0.79660600  0.22112404  1  0  -0.071902  -0.103256  0  3.987407  0
C  C33  1  0.83552229  0.20339395  0.77888057  1  0  -0.071917  -0.103233  0  3.98748  0
C  C34  1  0.18079360  0.89215110  0.39744939  1  0  0.204552  0.604597  0  4.174342  0
C  C35  1  0.81921945  0.10784560  0.60255255  1  0  0.204509  0.604465  0  4.174422  0
C  C36  1  0.09648234  0.95445198  0.75764367  1  0  0.046028  0.103699  0  3.945918  0
C  C37  1  0.90352488  0.04554708  0.24235845  1  0  0.046069  0.103596  0  3.945816  0
C  C38  1  0.19929111  0.96737252  0.85601137  1  0  -0.084596  -0.132247  0  3.963399  0
C  C39  1  0.80072485  0.03262372  0.14398694  1  0  -0.084708  -0.132404  0  3.963185  0
C  C40  1  0.06721471  0.90428047  0.91064426  1  0  -0.069485  -0.026649  0  3.97684  0
C  C41  1  0.93282067  0.09571310  0.08935346  1  0  -0.069442  -0.02634  0  3.976655  0
C  C42  1  0.83678660  0.83223750  0.86636673  1  0  -0.076756  -0.144707  0  3.901244  0
C  C43  1  0.16324014  0.16775789  0.13363248  1  0  -0.076801  -0.144981  0  3.901302  0
C  C44  1  0.74302282  0.82414807  0.76700570  1  0  0.121624  0.168526  0  3.993836  0
C  C45  1  0.25699817  0.17584632  0.23299687  1  0  0.121676  0.168656  0  3.993748  0
C  C46  1  0.49947286  0.74865062  0.71448423  1  0  0.114555  0.155743  0  4.00174  0
C  C47  1  0.50053772  0.25134346  0.28551363  1  0  0.114491  0.155636  0  4.001948  0
C  C48  1  0.34784691  0.68170963  0.76141533  1  0  -0.075886  -0.140126  0  3.909626  0
C  C49  1  0.65215630  0.31828590  0.23858765  1  0  -0.075832  -0.139999  0  3.909914  0
C  C50  1  0.12013803  0.61324077  0.70817321  1  0  -0.06632  -0.01235  0  3.942287  0
C  C51  1  0.87984280  0.38675841  0.29182531  1  0  -0.066445  -0.012445  0  3.942427  0
C  C52  1  0.05435489  0.61101313  0.60880267  1  0  -0.076596  -0.114307  0  3.933633  0
C  C53  1  0.94564640  0.38898553  0.39119485  1  0  -0.07655  -0.114267  0  3.933741  0
C  C54  1  0.21707158  0.67890102  0.56626973  1  0  0.051645  0.109638  0  3.926626  0
C  C55  1  0.78295002  0.32109721  0.43372755  1  0  0.051603  0.109605  0  3.926873  0
N  N56  1  0.50368568  0.57182908  0.25343138  1  0  0.048328  0.525961  0  4.188963  0
N  N57  1  0.49631016  0.42816934  0.74656962  1  0  0.048397  0.526072  0  4.18901  0
N  N58  1  0.21172299  0.70575651  0.04585005  1  0  0.043257  0.515411  0  4.201613  0
N  N59  1  0.78823085  0.29424271  0.95413754  1  0  0.043148  0.515205  0  4.201915  0
N  N60  1  0.87532126  0.88462962  0.71470285  1  0  -0.327449  -0.288698  0  3.50408  0
N  N61  1  0.12468536  0.11536795  0.28529905  1  0  -0.32745  -0.288595  0  3.504164  0
N  N62  1  0.42975321  0.74684376  0.61852153  1  0  -0.329935  -0.293903  0  3.52265  0
N  N63  1  0.57026222  0.25315282  0.38147973  1  0  -0.329898  -0.293844  0  3.522497  0
O  O64  1  0.35195663  0.95896441  0.37237725  1  0  -0.325563  -0.564442  0  2.321354  0
O  O65  1  0.64805051  0.04103799  0.62762169  1  0  -0.325497  -0.564333  0  2.321466  0
O  O66  1  0.14117828  0.89184785  0.48948442  1  0  -0.341003  -0.599627  0  2.350607  0
O  O67  1  0.85883120  0.10815351  0.51051225  1  0  -0.34103  -0.599642  0  2.35057  0
O  O68  1  0.64568108  0.75091490  0.40855300  1  0  -0.308303  -0.486232  0  2.392674  0
O  O69  1  0.35434657  0.24908130  0.59145364  1  0  -0.308323  -0.48618  0  2.392722  0
O  O70  1  0.45363012  0.55951884  0.33800507  1  0  -0.131245  -0.337783  0  1.970503  0
O  O71  1  0.54639373  0.44048311  0.66199935  1  0  -0.131288  -0.337858  0  1.970628  0
O  O72  1  0.37572744  0.51780700  0.17498832  1  0  -0.13413  -0.344141  0  1.958224  0
O  O73  1  0.62423568  0.48220033  0.82501378  1  0  -0.134176  -0.344151  0  1.958049  0
O  O74  1  0.13369076  0.63197747  0.97485460  1  0  -0.126976  -0.32144  0  1.927115  0
O  O75  1  0.86620218  0.36803006  0.02513691  1  0  -0.127042  -0.321388  0  1.927058  0
O  O76  1  0.40857821  0.77381401  0.03867559  1  0  -0.162483  -0.396081  0  1.960231  0
O  O77  1  0.59141046  0.22618528  0.96131877  1  0  -0.162407  -0.395909  0  1.960335  0
