# generated using pymatgen
data_MnH18C14(NO)4
_symmetry_space_group_name_H-M   'P 1'
_cell_length_a   9.32237082
_cell_length_b   9.32222418
_cell_length_c   9.49764061
_cell_angle_alpha   97.05214787
_cell_angle_beta   97.05425947
_cell_angle_gamma   96.74266224
_symmetry_Int_Tables_number   1
_chemical_formula_structural   MnH18C14(NO)4
_chemical_formula_sum   'Mn2 H36 C28 N8 O8'
_cell_volume   805.56110561
_cell_formula_units_Z   2
loop_
 _symmetry_equiv_pos_site_id
 _symmetry_equiv_pos_as_xyz
  1  'x, y, z'
loop_
 _atom_site_type_symbol
 _atom_site_label
 _atom_site_symmetry_multiplicity
 _atom_site_fract_x
 _atom_site_fract_y
 _atom_site_fract_z
 _atom_site_occupancy
 _atom_site_pbe_cm5_charge
 _atom_site_pbe_ddec_charge
 _atom_site_pbe_ddec_spin_density
 _atom_site_pbe_ddec_sum_bond_order
 _atom_site_pbe_magmom
Mn  Mn0  1  0.10128690  0.89869516  0.25000483  1  0.589023  0.842884  -4.635805  2.463887  -4.446
Mn  Mn1  1  0.89130668  0.10869351  0.74999771  1  0.633823  0.69104  -1.346689  3.236588  -1.3
H  H2  1  0.44312280  0.02105076  0.39837828  1  0.118541  0.112568  -1.9e-05  1.032193  0.0
H  H3  1  0.97894151  0.55685833  0.10165315  1  0.118597  0.112644  -1.9e-05  1.032115  0.0
H  H4  1  0.57102247  0.98726474  0.60161950  1  0.12087  0.115844  0.00029  1.03435  0.0
H  H5  1  0.01274320  0.42897856  0.89835121  1  0.120842  0.115814  0.000291  1.034477  0.0
H  H6  1  0.68457043  0.94990540  0.26745594  1  0.118363  0.132733  -0.000204  1.071642  0.0
H  H7  1  0.05009735  0.31540179  0.23255750  1  0.118363  0.132679  -0.000204  1.071605  0.0
H  H8  1  0.32759414  0.04486541  0.73402521  1  0.120027  0.131042  4.6e-05  1.055093  0.0
H  H9  1  0.95516161  0.67241861  0.76595456  1  0.120071  0.131035  4.6e-05  1.054936  0.0
H  H10  1  0.29296943  0.79057812  0.98752039  1  0.136649  0.102807  0.000117  0.992998  0.0
H  H11  1  0.20942503  0.70701279  0.51248626  1  0.136653  0.102796  0.000118  0.993042  0.0
H  H12  1  0.71579475  0.22561583  0.01118617  1  0.137583  0.105965  0.000878  0.998683  0.0
H  H13  1  0.77437498  0.28419803  0.48879287  1  0.137591  0.105928  0.000879  0.99856  0.0
H  H14  1  0.68595019  0.87636867  0.97562146  1  0.11182  0.094992  0.000936  1.000909  0.0
H  H15  1  0.12364827  0.31403305  0.52439360  1  0.111779  0.09502  0.000937  1.000816  0.0
H  H16  1  0.32181554  0.12182517  0.02189889  1  0.113266  0.097539  0.000593  0.99645  0.0
H  H17  1  0.87819236  0.67819384  0.47807939  1  0.113197  0.097411  0.000594  0.996388  0.0
H  H18  1  0.52698745  0.76252113  0.88928192  1  0.108127  0.08088  3e-06  0.993502  0.0
H  H19  1  0.23749322  0.47300466  0.61072876  1  0.108048  0.080767  3e-06  0.993414  0.0
H  H20  1  0.47785482  0.23807813  0.11094473  1  0.10759  0.082133  8.2e-05  0.993589  0.0
H  H21  1  0.76192329  0.52214607  0.38903796  1  0.107544  0.082068  8.2e-05  0.993585  0.0
H  H22  1  0.74114163  0.69947491  0.14043791  1  0.097804  0.102916  0.000218  0.987453  0.0
H  H23  1  0.30053660  0.25885236  0.35956878  1  0.097714  0.102889  0.000218  0.987452  0.0
H  H24  1  0.26243339  0.29845581  0.85956711  1  0.098358  0.103916  2.8e-05  0.992181  0.0
H  H25  1  0.70156037  0.73756889  0.64042439  1  0.098335  0.103839  2.8e-05  0.992179  0.0
H  H26  1  0.73016467  0.62094577  0.96062276  1  0.093841  0.096066  -1e-05  0.993299  0.0
H  H27  1  0.37907058  0.26982756  0.53938304  1  0.093873  0.096203  -1e-05  0.993109  0.0
H  H28  1  0.27222013  0.37575576  0.03986773  1  0.094312  0.097279  0.000105  0.990139  0.0
H  H29  1  0.62425692  0.72777612  0.46013556  1  0.094363  0.097403  0.000105  0.990211  0.0
H  H30  1  0.60929183  0.45728972  0.11782724  1  0.084079  0.068601  2.8e-05  1.012367  0.0
H  H31  1  0.54271528  0.39069997  0.38216057  1  0.084098  0.068583  2.8e-05  1.012321  0.0
H  H32  1  0.38983254  0.54360724  0.88387933  1  0.082961  0.067116  1.8e-05  1.010712  0.0
H  H33  1  0.45642118  0.61016544  0.61612766  1  0.083026  0.067217  1.8e-05  1.010725  0.0
H  H34  1  0.48414149  0.58070625  0.14752670  1  0.085972  0.076077  5e-06  1.010049  0.0
H  H35  1  0.41928778  0.51585841  0.35248352  1  0.085965  0.076083  5e-06  1.010069  0.0
H  H36  1  0.51693900  0.42254320  0.85263148  1  0.085878  0.075696  6.2e-05  1.011744  0.0
H  H37  1  0.57748512  0.48306275  0.64735739  1  0.085922  0.075769  6.2e-05  1.011859  0.0
C  C38  1  0.97216639  0.92102980  0.95691603  1  0.195912  0.426131  0.031368  4.244911  0.013
C  C39  1  0.07895154  0.02782358  0.54309412  1  0.196018  0.426373  0.031387  4.244651  0.013
C  C40  1  0.00872998  0.07713897  0.03093352  1  0.193302  0.41592  0.041391  4.217775  0.02
C  C41  1  0.92284786  0.99126017  0.46905434  1  0.193098  0.415425  0.041432  4.217864  0.02
C  C42  1  0.44870184  0.96346699  0.29333670  1  -0.004022  -0.044118  -0.004708  4.014325  -0.005
C  C43  1  0.03652873  0.55129679  0.20668889  1  -0.004065  -0.044146  -0.004711  4.01411  -0.005
C  C44  1  0.56394869  0.04444576  0.70631300  1  -0.002572  -0.050676  -1.4e-05  3.979498  -0.001
C  C45  1  0.95555731  0.43604297  0.79366529  1  -0.002511  -0.050564  -1.5e-05  3.979672  -0.001
C  C46  1  0.56810555  0.93191444  0.22938436  1  -0.006323  -0.119943  -0.001117  3.915199  -0.001
C  C47  1  0.06809769  0.43187861  0.27062216  1  -0.006389  -0.120078  -0.001118  3.915032  -0.001
C  C48  1  0.44379519  0.06940792  0.77165396  1  -0.003216  -0.11394  0.000129  3.925857  0.0
C  C49  1  0.93061059  0.55620802  0.72832979  1  -0.00331  -0.113984  0.000128  3.925575  0.0
C  C50  1  0.36519159  0.84468415  0.08226272  1  0.140622  0.078044  -0.009461  3.941782  -0.009
C  C51  1  0.15531694  0.63479407  0.41774903  1  0.140435  0.077891  -0.009469  3.941979  -0.009
C  C52  1  0.64484014  0.16772095  0.91753126  1  0.13592  0.066032  0.00616  3.900294  0.002
C  C53  1  0.83228309  0.35514625  0.58246158  1  0.135839  0.065953  0.006161  3.899966  0.002
C  C54  1  0.59922080  0.79230327  0.99172609  1  -0.048583  -0.053729  -0.000605  3.864601  0.0
C  C55  1  0.20774030  0.40074837  0.50829449  1  -0.048622  -0.053771  -0.000606  3.864518  0.0
C  C56  1  0.40728239  0.20806270  0.00758475  1  -0.051057  -0.058663  0.000168  3.867596  0.0
C  C57  1  0.79193159  0.59273669  0.49239416  1  -0.050961  -0.058483  0.000168  3.866841  0.0
C  C58  1  0.66424821  0.66101288  0.04189604  1  -0.164631  -0.173943  -0.00016  3.919851  0.0
C  C59  1  0.33903696  0.33574926  0.45810287  1  -0.164379  -0.173835  -0.00016  3.919808  0.0
C  C60  1  0.33886884  0.33800708  0.95820345  1  -0.164693  -0.172898  0.000141  3.918913  0.0
C  C61  1  0.66197777  0.66112818  0.54179954  1  -0.164861  -0.173072  0.000141  3.919122  0.0
C  C62  1  0.55072520  0.53817586  0.06778914  1  -0.170851  -0.148255  0.000119  3.958017  0.0
C  C63  1  0.46185233  0.44928225  0.43220657  1  -0.170906  -0.14831  0.000119  3.958186  0.0
C  C64  1  0.45001661  0.46321508  0.93291326  1  -0.16928  -0.143894  3.8e-05  3.956547  0.0
C  C65  1  0.53678984  0.54996935  0.56708201  1  -0.169268  -0.143873  3.9e-05  3.957058  0.0
N  N66  1  0.32289245  0.90862952  0.20070230  1  -0.356255  -0.307139  -0.035988  3.576024  -0.012
N  N67  1  0.09137688  0.67710968  0.29931085  1  -0.356343  -0.307107  -0.035989  3.576058  -0.012
N  N68  1  0.68926120  0.10672323  0.79796241  1  -0.369182  -0.250847  0.011586  3.665202  0.015
N  N69  1  0.89328550  0.31072562  0.70203822  1  -0.369192  -0.25082  0.011586  3.66531  0.015
N  N70  1  0.51299763  0.85711053  0.09522187  1  -0.245621  0.03661  -0.00383  3.786944  -0.004
N  N71  1  0.14289676  0.48698113  0.40479444  1  -0.245365  0.036807  -0.003833  3.787115  -0.004
N  N72  1  0.49655717  0.14687510  0.90495553  1  -0.247205  0.033004  0.001791  3.788527  0.001
N  N73  1  0.85313807  0.50343978  0.59502335  1  -0.24712  0.033039  0.00179  3.787957  0.001
O  O74  1  0.00284311  0.81800058  0.02676141  1  -0.307152  -0.508969  -0.023136  2.276696  -0.01
O  O75  1  0.18198508  0.99715101  0.47326118  1  -0.307193  -0.509104  -0.02312  2.276656  -0.01
O  O76  1  0.97582251  0.17634346  0.95368726  1  -0.295267  -0.450231  -0.008785  2.387839  -0.006
O  O77  1  0.82365510  0.02416653  0.54630921  1  -0.295232  -0.45013  -0.008785  2.388017  -0.006
O  O78  1  0.91455132  0.90510222  0.82520400  1  -0.28721  -0.46618  0.0003  2.307509  0.002
O  O79  1  0.09489755  0.08543644  0.67481239  1  -0.287287  -0.466268  0.00031  2.307472  0.002
O  O80  1  0.07112849  0.10239689  0.15963872  1  -0.299994  -0.503378  -0.01736  2.331682  -0.007
O  O81  1  0.89757650  0.92885611  0.34034778  1  -0.299895  -0.503127  -0.017344  2.331428  -0.007
