# generated using pymatgen
data_ZnH22C34N4O5
_symmetry_space_group_name_H-M   'P 1'
_cell_length_a   10.29024187
_cell_length_b   12.46936037
_cell_length_c   13.84747268
_cell_angle_alpha   101.57729287
_cell_angle_beta   106.95182260
_cell_angle_gamma   103.33047581
_symmetry_Int_Tables_number   1
_chemical_formula_structural   ZnH22C34N4O5
_chemical_formula_sum   'Zn2 H44 C68 N8 O10'
_cell_volume   1583.81960422
_cell_formula_units_Z   2
loop_
 _symmetry_equiv_pos_site_id
 _symmetry_equiv_pos_as_xyz
  1  'x, y, z'
loop_
 _atom_site_type_symbol
 _atom_site_label
 _atom_site_symmetry_multiplicity
 _atom_site_fract_x
 _atom_site_fract_y
 _atom_site_fract_z
 _atom_site_occupancy
 _atom_site_hle17_bader_spin_density
 _atom_site_hle17_ddec_charge
 _atom_site_hle17_ddec_spin_density
 _atom_site_hle17_ddec_sum_bond_order
 _atom_site_hle17_magmom
 _atom_site_hse06_10hf_bader_spin_density
 _atom_site_hse06_10hf_ddec_charge
 _atom_site_hse06_10hf_ddec_spin_density
 _atom_site_hse06_10hf_ddec_sum_bond_order
 _atom_site_hse06_10hf_magmom
 _atom_site_hse06_bader_spin_density
 _atom_site_hse06_ddec_charge
 _atom_site_hse06_ddec_spin_density
 _atom_site_hse06_ddec_sum_bond_order
 _atom_site_hse06_magmom
 _atom_site_pbe_bader_spin_density
 _atom_site_pbe_cm5_charge
 _atom_site_pbe_ddec_charge
 _atom_site_pbe_ddec_spin_density
 _atom_site_pbe_ddec_sum_bond_order
 _atom_site_pbe_magmom
Zn  Zn0  1  0.24539488  0.56879096  0.50326456  1  0  1.021642  0  1.820029  0  0  0.832334  0  2.290185  0  0  0.881232  0  2.235019  0  0  0.693753  0.798246  0  2.327952  0
Zn  Zn1  1  0.75460372  0.43120825  0.49673443  1  0  1.021718  0  1.819987  0  0  0.832391  0  2.290146  0  0  0.881288  0  2.234977  0  0  0.693774  0.798301  0  2.327918  0
H  H2  1  0.80616055  0.72542203  0.53634193  1  0  0.145211  0  0.974006  0  0  0.147735  0  1.04626  0  0  0.151566  0  1.043912  0  0  0.11608  0.144723  0  1.048253  0
H  H3  1  0.19383899  0.27457975  0.46366062  1  0  0.145239  0  0.973954  0  0  0.14774  0  1.046244  0  0  0.15157  0  1.043894  0  0  0.116064  0.14471  0  1.048243  0
H  H4  1  0.99009033  0.67557688  0.48926719  1  0  0.118886  0  0.929293  0  0  0.127099  0  0.993837  0  0  0.130591  0  0.988692  0  0  0.146451  0.1243  0  0.997812  0
H  H5  1  0.00990725  0.32442491  0.51073130  1  0  0.118989  0  0.929162  0  0  0.127166  0  0.993758  0  0  0.130679  0  0.988584  0  0  0.14647  0.124353  0  0.99774  0
H  H6  1  0.58596195  0.68766725  0.57512957  1  0  0.131275  0  0.925319  0  0  0.142726  0  0.980241  0  0  0.145685  0  0.976112  0  0  0.151924  0.140588  0  0.983013  0
H  H7  1  0.41404061  0.31233453  0.42487439  1  0  0.131282  0  0.9253  0  0  0.14273  0  0.980225  0  0  0.14569  0  0.976096  0  0  0.151949  0.140593  0  0.982997  0
H  H8  1  0.84208722  0.52092626  0.26289421  1  0  0.096549  0  0.975305  0  0  0.102129  0  1.045641  0  0  0.105352  0  1.043147  0  0  0.098746  0.099826  0  1.047412  0
H  H9  1  0.15791243  0.47907553  0.73710331  1  0  0.096529  0  0.975204  0  0  0.102092  0  1.045556  0  0  0.105315  0  1.043062  0  0  0.098722  0.099786  0  1.047328  0
H  H10  1  0.59398347  0.91180170  0.89783317  1  0  0.085221  0  0.940306  0  0  0.100302  0  0.991241  0  0  0.102977  0  0.990401  0  0  0.101274  0.098445  0  0.991845  0
H  H11  1  0.40601547  0.08819837  0.10216533  1  0  0.085225  0  0.940311  0  0  0.10031  0  0.991238  0  0  0.102986  0  0.990395  0  0  0.101278  0.098444  0  0.991854  0
H  H12  1  0.12847744  0.65395294  0.29862439  1  0  0.116766  0  0.968176  0  0  0.126171  0  1.026955  0  0  0.129287  0  1.025553  0  0  0.106745  0.123921  0  1.027953  0
H  H13  1  0.87152520  0.34604367  0.70137722  1  0  0.116718  0  0.968194  0  0  0.126168  0  1.026931  0  0  0.129284  0  1.025527  0  0  0.106719  0.123914  0  1.027932  0
H  H14  1  0.48243481  0.73993566  0.73781203  1  0  0.126291  0  0.970578  0  0  0.136538  0  1.027737  0  0  0.140069  0  1.025366  0  0  0.108913  0.134027  0  1.029444  0
H  H15  1  0.51756314  0.26006441  0.26218552  1  0  0.126323  0  0.970606  0  0  0.13658  0  1.027736  0  0  0.140111  0  1.025365  0  0  0.108931  0.134069  0  1.029444  0
H  H16  1  0.12601673  0.78657608  0.18392344  1  0  0.086462  0  0.939453  0  0  0.101622  0  0.989701  0  0  0.104152  0  0.98934  0  0  0.100722  0.099773  0  0.99011  0
H  H17  1  0.87398323  0.21341881  0.81607654  1  0  0.08647  0  0.939489  0  0  0.101638  0  0.989722  0  0  0.104175  0  0.989351  0  0  0.100722  0.099781  0  0.990146  0
H  H18  1  0.72697248  0.42382407  0.91590109  1  0  0.112316  0  0.948966  0  0  0.125181  0  1.001282  0  0  0.128173  0  1.00115  0  0  0.106822  0.12309  0  1.001519  0
H  H19  1  0.27302950  0.57617599  0.08409882  1  0  0.112313  0  0.948988  0  0  0.12518  0  1.001296  0  0  0.128172  0  1.001164  0  0  0.106821  0.123082  0  1.001541  0
H  H20  1  0.21721327  0.30844189  0.68332403  1  0  0.088274  0  0.951958  0  0  0.100689  0  1.012717  0  0  0.10355  0  1.010444  0  0  0.09977  0.098707  0  1.014225  0
H  H21  1  0.78278872  0.69155817  0.31667516  1  0  0.088236  0  0.952019  0  0  0.100659  0  1.012775  0  0  0.103521  0  1.0105  0  0  0.099754  0.09867  0  1.014292  0
H  H22  1  0.65071265  0.52136005  0.77725986  1  0  0.114365  0  0.932091  0  0  0.124325  0  0.989354  0  0  0.128066  0  0.986216  0  0  0.109836  0.121594  0  0.991717  0
H  H23  1  0.34928966  0.47864087  0.22274028  1  0  0.114375  0  0.932141  0  0  0.124327  0  0.989408  0  0  0.128067  0  0.986272  0  0  0.109824  0.121592  0  0.991776  0
H  H24  1  0.13331782  0.05579576  0.65692408  1  0  0.103391  0  0.962916  0  0  0.112992  0  1.027848  0  0  0.115489  0  1.027437  0  0  0.104751  0.111189  0  1.028267  0
H  H25  1  0.86668182  0.94420603  0.34307344  1  0  0.103394  0  0.962923  0  0  0.113001  0  1.02785  0  0  0.115472  0  1.027469  0  0  0.104734  0.111183  0  1.028278  0
H  H26  1  0.29137677  0.21335905  0.82464920  1  0  0.103147  0  0.957636  0  0  0.115622  0  1.014849  0  0  0.119238  0  1.012872  0  0  0.101096  0.113088  0  1.016361  0
H  H27  1  0.70862349  0.78664187  0.17535119  1  0  0.103155  0  0.957654  0  0  0.115632  0  1.014867  0  0  0.119248  0  1.012887  0  0  0.101099  0.113099  0  1.016375  0
H  H28  1  0.94637008  0.15227321  0.61673383  1  0  0.087251  0  0.953403  0  0  0.099568  0  1.011523  0  0  0.101475  0  1.011205  0  0  0.102367  0.098023  0  1.01187  0
H  H29  1  0.05362823  0.84772773  0.38326251  1  0  0.087298  0  0.953319  0  0  0.099601  0  1.011443  0  0  0.101522  0  1.011109  0  0  0.102345  0.098035  0  1.011806  0
H  H30  1  0.69043807  0.03715384  0.53329193  1  0  0.108076  0  0.96287  0  0  0.115681  0  1.028597  0  0  0.118357  0  1.028313  0  0  0.105327  0.113698  0  1.029022  0
H  H31  1  0.30956018  0.96284709  0.46670728  1  0  0.108067  0  0.962877  0  0  0.115674  0  1.028603  0  0  0.11834  0  1.02833  0  0  0.105301  0.11367  0  1.02905  0
H  H32  1  0.97772859  0.23726205  0.14711221  1  0  0.100565  0  0.936995  0  0  0.110205  0  0.994291  0  0  0.114239  0  0.991112  0  0  0.103109  0.107363  0  0.996533  0
H  H33  1  0.02227169  0.76273887  0.85288747  1  0  0.100621  0  0.93704  0  0  0.110246  0  0.994344  0  0  0.114279  0  0.991166  0  0  0.103139  0.107404  0  0.99659  0
H  H34  1  0.22077697  0.02444271  0.81248787  1  0  0.099444  0  0.965104  0  0  0.110536  0  1.023816  0  0  0.113535  0  1.022179  0  0  0.102947  0.108426  0  1.025036  0
H  H35  1  0.77922059  0.97555650  0.18751232  1  0  0.09947  0  0.965077  0  0  0.110562  0  1.023786  0  0  0.113562  0  1.022147  0  0  0.102954  0.108451  0  1.025006  0
H  H36  1  0.34756428  0.93717857  0.20914613  1  0  0.079432  0  0.972047  0  0  0.090395  0  1.03445  0  0  0.092593  0  1.034096  0  0  0.09359  0.088771  0  1.034818  0
H  H37  1  0.65243430  0.06281805  0.79085456  1  0  0.079426  0  0.972056  0  0  0.090366  0  1.034481  0  0  0.092563  0  1.034126  0  0  0.093578  0.088735  0  1.034858  0
H  H38  1  0.57735374  0.96039451  0.34530283  1  0  0.101073  0  0.973993  0  0  0.107695  0  1.042813  0  0  0.110063  0  1.04307  0  0  0.099513  0.106012  0  1.042663  0
H  H39  1  0.42264450  0.03960383  0.65469737  1  0  0.101055  0  0.973996  0  0  0.107673  0  1.042823  0  0  0.110042  0  1.04308  0  0  0.099497  0.105987  0  1.042683  0
H  H40  1  0.61915346  0.44927598  0.10257194  1  0  0.11224  0  0.955998  0  0  0.122109  0  1.015823  0  0  0.124594  0  1.01645  0  0  0.104153  0.120356  0  1.015533  0
H  H41  1  0.38084583  0.55072495  0.89742607  1  0  0.112278  0  0.956003  0  0  0.122129  0  1.015837  0  0  0.124615  0  1.016464  0  0  0.104171  0.120376  0  1.015547  0
H  H42  1  0.75139594  0.16190786  0.98611420  1  0  0.105268  0  0.948278  0  0  0.118399  0  1.005036  0  0  0.121542  0  1.003938  0  0  0.104099  0.116211  0  1.005879  0
H  H43  1  0.24860161  0.83809134  0.01388599  1  0  0.105242  0  0.948283  0  0  0.118378  0  1.005043  0  0  0.121522  0  1.003944  0  0  0.104093  0.116193  0  1.005885  0
H  H44  1  0.46465791  0.05133105  0.93273123  1  0  0.092065  0  0.981383  0  0  0.098021  0  1.051843  0  0  0.100948  0  1.05043  0  0  0.098646  0.095872  0  1.052947  0
H  H45  1  0.53534066  0.94866815  0.06726920  1  0  0.092046  0  0.981421  0  0  0.098002  0  1.051879  0  0  0.100928  0  1.050469  0  0  0.098632  0.095844  0  1.052989  0
C  C46  1  0.73434119  0.87480146  0.52754222  1  0  0.204614  0  3.777719  0  0  0.199713  0  4.022888  0  0  0.205656  0  4.045072  0  0  0.099747  0.195593  0  4.007739  0
C  C47  1  0.26565903  0.12519946  0.47246033  1  0  0.204711  0  3.777651  0  0  0.199725  0  4.022848  0  0  0.205667  0  4.045025  0  0  0.099724  0.195561  0  4.007683  0
C  C48  1  0.83710314  0.81894569  0.55361044  1  0  -0.220693  0  3.661819  0  0  -0.249468  0  3.915419  0  0  -0.25543  0  3.935141  0  0  -0.08464  -0.244919  0  3.901777  0
C  C49  1  0.16289711  0.18105524  0.44639068  1  0  -0.220758  0  3.661746  0  0  -0.249514  0  3.915388  0  0  -0.255482  0  3.935134  0  0  -0.0847  -0.245013  0  3.901754  0
C  C50  1  0.38781935  0.48645266  0.64568522  1  0  0.626164  0  3.933312  0  0  0.576139  0  4.227597  0  0  0.610339  0  4.221603  0  0  0.195889  0.552923  0  4.230972  0
C  C51  1  0.61218364  0.51354740  0.35431492  1  0  0.626089  0  3.933208  0  0  0.576046  0  4.227522  0  0  0.610248  0  4.221529  0  0  0.19589  0.552824  0  4.230898  0
C  C52  1  0.92402370  0.38433571  0.21327003  1  0  -0.07811  0  3.766408  0  0  -0.057967  0  4.001304  0  0  -0.067583  0  4.026335  0  0  -0.028506  -0.051797  0  3.984507  0
C  C53  1  0.07597762  0.61566522  0.78672843  1  0  -0.078116  0  3.766245  0  0  -0.058001  0  4.001145  0  0  -0.067562  0  4.026104  0  0  -0.028535  -0.051894  0  3.984428  0
C  C54  1  0.08242842  0.72787985  0.55878169  1  0  0.228282  0  3.590677  0  0  0.163593  0  3.861552  0  0  0.181499  0  3.870047  0  0  0.172673  0.152129  0  3.855457  0
C  C55  1  0.91756883  0.27212108  0.44121658  1  0  0.228159  0  3.590559  0  0  0.163489  0  3.861429  0  0  0.181381  0  3.869913  0  0  0.172611  0.152015  0  3.855352  0
C  C56  1  0.29135256  0.78951346  0.68434484  1  0  0.149594  0  3.804232  0  0  0.14738  0  4.049202  0  0  0.149677  0  4.07403  0  0  0.090164  0.145794  0  4.032448  0
C  C57  1  0.70864536  0.21048660  0.31565414  1  0  0.149618  0  3.804316  0  0  0.147434  0  4.049231  0  0  0.149731  0  4.074057  0  0  0.090165  0.145851  0  4.032476  0
C  C58  1  0.35437790  0.73450800  0.38659091  1  0  0.147066  0  3.808007  0  0  0.144371  0  4.052582  0  0  0.147371  0  4.077372  0  0  0.08708  0.142363  0  4.035901  0
C  C59  1  0.64562306  0.26548948  0.61340975  1  0  0.147123  0  3.807826  0  0  0.144462  0  4.052354  0  0  0.147462  0  4.077141  0  0  0.087089  0.142449  0  4.035673  0
C  C60  1  0.52714762  0.71687025  0.51209486  1  0  0.231021  0  3.588754  0  0  0.164334  0  3.85747  0  0  0.182667  0  3.865866  0  0  0.176733  0.152687  0  3.851048  0
C  C61  1  0.47285330  0.28312981  0.48790698  1  0  0.231128  0  3.588651  0  0  0.164346  0  3.857342  0  0  0.182678  0  3.865734  0  0  0.176693  0.152691  0  3.850923  0
C  C62  1  0.05593364  0.42588426  0.31051302  1  0  0.623002  0  3.941871  0  0  0.57461  0  4.238339  0  0  0.60825  0  4.231989  0  0  0.189121  0.551717  0  4.242089  0
C  C63  1  0.94406595  0.57411753  0.68948665  1  0  0.623036  0  3.941937  0  0  0.574668  0  4.238384  0  0  0.608292  0  4.232031  0  0  0.189143  0.551791  0  4.242139  0
C  C64  1  0.82332129  0.44427261  0.20054746  1  0  -0.04644  0  3.740216  0  0  -0.069094  0  3.988158  0  0  -0.06752  0  4.008693  0  0  -0.085309  -0.069944  0  3.974253  0
C  C65  1  0.17667967  0.55573004  0.79945196  1  0  -0.046445  0  3.740131  0  0  -0.069066  0  3.98808  0  0  -0.067508  0  4.008602  0  0  -0.085302  -0.069897  0  3.974193  0
C  C66  1  0.48020490  0.82117597  0.40037349  1  0  0.099747  0  3.761496  0  0  0.090327  0  4.004565  0  0  0.094001  0  4.026635  0  0  0.09216  0.087657  0  3.989818  0
C  C67  1  0.51979535  0.17882237  0.59962789  1  0  0.099796  0  3.761485  0  0  0.090291  0  4.004528  0  0  0.093963  0  4.0266  0  0  0.092153  0.087616  0  3.989772  0
C  C68  1  0.48798667  0.89874396  0.84191040  1  0  -0.077901  0  3.792316  0  0  -0.093375  0  4.048703  0  0  -0.096279  0  4.070898  0  0  -0.096973  -0.091232  0  4.033431  0
C  C69  1  0.51201093  0.10125525  0.15808764  1  0  -0.077909  0  3.792331  0  0  -0.093391  0  4.048728  0  0  -0.096296  0  4.070923  0  0  -0.097039  -0.091259  0  4.033488  0
C  C70  1  0.42949780  0.42198267  0.72296520  1  0  -0.095005  0  3.781305  0  0  -0.077091  0  4.025757  0  0  -0.087829  0  4.049985  0  0  -0.03268  -0.070195  0  4.009542  0
C  C71  1  0.57050453  0.57801825  0.27703422  1  0  -0.094946  0  3.78134  0  0  -0.077047  0  4.025825  0  0  -0.087789  0  4.050057  0  0  -0.032639  -0.070156  0  4.009612  0
C  C72  1  0.51258648  0.31393440  0.87843829  1  0  0.293628  0  3.794922  0  0  0.28211  0  4.057351  0  0  0.295397  0  4.071506  0  0  0.089868  0.273189  0  4.047633  0
C  C73  1  0.48740940  0.68606308  0.12156122  1  0  0.293708  0  3.794915  0  0  0.282232  0  4.057284  0  0  0.295525  0  4.071437  0  0  0.08997  0.273312  0  4.047563  0
C  C74  1  0.21899611  0.87042898  0.70459195  1  0  0.100189  0  3.77399  0  0  0.090682  0  4.016673  0  0  0.094804  0  4.038954  0  0  0.093337  0.087963  0  4.001552  0
C  C75  1  0.78100179  0.12957108  0.29540775  1  0  0.100207  0  3.77389  0  0  0.090689  0  4.016565  0  0  0.09481  0  4.038845  0  0  0.093352  0.087963  0  4.001441  0
C  C76  1  0.22453503  0.72096819  0.30875492  1  0  -0.140574  0  3.733804  0  0  -0.156655  0  3.979449  0  0  -0.159889  0  4.000345  0  0  -0.091295  -0.154429  0  3.965215  0
C  C77  1  0.77546627  0.27902756  0.69124552  1  0  -0.140534  0  3.733727  0  0  -0.156687  0  3.979383  0  0  -0.15992  0  4.000279  0  0  -0.091329  -0.154488  0  3.96517  0
C  C78  1  0.98039458  0.88535011  0.60186198  1  0  0.207593  0  3.78333  0  0  0.201161  0  4.029894  0  0  0.207381  0  4.052218  0  0  0.100198  0.196916  0  4.014626  0
C  C79  1  0.01960502  0.11465167  0.39813769  1  0  0.207668  0  3.783278  0  0  0.201229  0  4.029854  0  0  0.207447  0  4.052168  0  0  0.100201  0.196978  0  4.014577  0
C  C80  1  0.42811874  0.80335419  0.75315228  1  0  -0.129122  0  3.709982  0  0  -0.147742  0  3.954207  0  0  -0.150013  0  3.974807  0  0  -0.086935  -0.146156  0  3.940209  0
C  C81  1  0.57187953  0.19664673  0.24684622  1  0  -0.129222  0  3.710127  0  0  -0.147866  0  3.954357  0  0  -0.150142  0  3.974968  0  0  -0.08698  -0.146281  0  3.94036  0
C  C82  1  0.67524896  0.30231890  0.03611040  1  0  0.269364  0  3.794604  0  0  0.259489  0  4.058627  0  0  0.27037  0  4.074066  0  0  0.082328  0.252224  0  4.04801  0
C  C83  1  0.32474962  0.69768288  0.96388904  1  0  0.26938  0  3.794569  0  0  0.259514  0  4.058591  0  0  0.270402  0  4.074029  0  0  0.082304  0.252262  0  4.047974  0
C  C84  1  0.22510495  0.79503872  0.24575441  1  0  -0.078319  0  3.803849  0  0  -0.094719  0  4.059833  0  0  -0.097359  0  4.082845  0  0  -0.097879  -0.092782  0  4.044135  0
C  C85  1  0.77489566  0.20495789  0.75424674  1  0  -0.078326  0  3.803782  0  0  -0.094731  0  4.059775  0  0  -0.097378  0  4.082784  0  0  -0.097848  -0.092794  0  4.044105  0
C  C86  1  0.61525199  0.40023609  0.86604722  1  0  -0.202231  0  3.772891  0  0  -0.22055  0  4.023267  0  0  -0.227996  0  4.043796  0  0  -0.105576  -0.21569  0  4.009526  0
C  C87  1  0.38474901  0.59976398  0.13395102  1  0  -0.202216  0  3.77297  0  0  -0.220537  0  4.023325  0  0  -0.227982  0  4.043851  0  0  -0.105609  -0.21569  0  4.009599  0
C  C88  1  0.32851618  0.33350666  0.73490093  1  0  -0.048949  0  3.771531  0  0  -0.074931  0  4.027837  0  0  -0.071431  0  4.046926  0  0  -0.088685  -0.076887  0  4.014613  0
C  C89  1  0.67148546  0.66649254  0.26509947  1  0  -0.04897  0  3.77142  0  0  -0.074964  0  4.02774  0  0  -0.071464  0  4.046833  0  0  -0.088751  -0.076947  0  4.014532  0
C  C90  1  0.57298599  0.45398940  0.78882826  1  0  -0.031186  0  3.724965  0  0  -0.054448  0  3.97274  0  0  -0.050467  0  3.990278  0  0  -0.077174  -0.05684  0  3.960847  0
C  C91  1  0.42701530  0.54600894  0.21117263  1  0  -0.031261  0  3.724943  0  0  -0.05452  0  3.972735  0  0  -0.050537  0  3.99027  0  0  -0.077222  -0.056928  0  3.960857  0
C  C92  1  0.02086423  0.00541367  0.62425930  1  0  -0.165339  0  3.752222  0  0  -0.187807  0  4.003864  0  0  -0.192134  0  4.025308  0  0  -0.096291  -0.18525  0  3.989792  0
C  C93  1  0.97913538  0.99458812  0.37573965  1  0  -0.165346  0  3.752262  0  0  -0.187821  0  4.0039  0  0  -0.192126  0  4.02536  0  0  -0.096328  -0.185308  0  3.989848  0
C  C94  1  0.36899042  0.28028583  0.81278920  1  0  -0.19834  0  3.767966  0  0  -0.218985  0  4.025099  0  0  -0.225641  0  4.043666  0  0  -0.109551  -0.214579  0  4.012435  0
C  C95  1  0.63101057  0.71971682  0.18720878  1  0  -0.198347  0  3.767655  0  0  -0.219007  0  4.024796  0  0  -0.22566  0  4.043356  0  0  -0.109586  -0.214617  0  4.012131  0
C  C96  1  0.91608776  0.05895983  0.59887499  1  0  -0.037428  0  3.806415  0  0  -0.05039  0  4.057913  0  0  -0.0511  0  4.080105  0  0  -0.087812  -0.049775  0  4.043429  0
C  C97  1  0.08391186  0.94104196  0.40112396  1  0  -0.037516  0  3.806311  0  0  -0.050454  0  4.057803  0  0  -0.051174  0  4.079981  0  0  -0.087849  -0.049887  0  4.043348  0
C  C98  1  0.77224229  0.99468833  0.55029080  1  0  -0.153772  0  3.728957  0  0  -0.177534  0  3.983211  0  0  -0.180834  0  4.003104  0  0  -0.092934  -0.17582  0  3.970342  0
C  C99  1  0.22775799  0.00531259  0.44970887  1  0  -0.153726  0  3.728926  0  0  -0.177489  0  3.983215  0  0  -0.18078  0  4.003115  0  0  -0.09294  -0.175783  0  3.970358  0
C  C100  1  0.89855667  0.28296099  0.13562577  1  0  -0.054253  0  3.763336  0  0  -0.075347  0  4.009426  0  0  -0.073988  0  4.029935  0  0  -0.08485  -0.075847  0  3.99533  0
C  C101  1  0.10144191  0.71704080  0.86437367  1  0  -0.054277  0  3.763296  0  0  -0.075345  0  4.00937  0  0  -0.074003  0  4.029864  0  0  -0.084864  -0.07583  0  3.995295  0
C  C102  1  0.27839585  0.96473031  0.79469624  1  0  -0.155986  0  3.784042  0  0  -0.174442  0  4.039383  0  0  -0.178193  0  4.0596  0  0  -0.099071  -0.171815  0  4.025551  0
C  C103  1  0.72160174  0.03526889  0.20530252  1  0  -0.15601  0  3.783987  0  0  -0.174468  0  4.039327  0  0  -0.178219  0  4.059542  0  0  -0.099116  -0.171853  0  4.025499  0
C  C104  1  0.35063771  0.88055177  0.25969756  1  0  -0.061316  0  3.780012  0  0  -0.079884  0  4.03808  0  0  -0.081351  0  4.060245  0  0  -0.0946  -0.078911  0  4.023028  0
C  C105  1  0.64936190  0.11944485  0.74030264  1  0  -0.061248  0  3.779885  0  0  -0.07978  0  4.037927  0  0  -0.081246  0  4.060094  0  0  -0.094577  -0.07883  0  4.022915  0
C  C106  1  0.48072767  0.89526183  0.33694608  1  0  -0.144716  0  3.758458  0  0  -0.164345  0  4.016031  0  0  -0.167102  0  4.036196  0  0  -0.0954  -0.162428  0  4.002299  0
C  C107  1  0.51927293  0.10473737  0.66305480  1  0  -0.144767  0  3.758463  0  0  -0.164401  0  4.016044  0  0  -0.167157  0  4.03621  0  0  -0.095446  -0.162491  0  4.00233  0
C  C108  1  0.69893476  0.40408837  0.11203947  1  0  -0.183684  0  3.758548  0  0  -0.203006  0  4.008265  0  0  -0.209341  0  4.029047  0  0  -0.101306  -0.198814  0  3.994282  0
C  C109  1  0.30106552  0.59591255  0.88796021  1  0  -0.183726  0  3.758493  0  0  -0.203043  0  4.008214  0  0  -0.209382  0  4.029  0  0  -0.101303  -0.198851  0  3.994236  0
C  C110  1  0.77400420  0.24135110  0.04678854  1  0  -0.181876  0  3.767789  0  0  -0.203529  0  4.022759  0  0  -0.209517  0  4.043577  0  0  -0.103005  -0.199612  0  4.008622  0
C  C111  1  0.22599337  0.75864810  0.95321093  1  0  -0.181855  0  3.767879  0  0  -0.203509  0  4.022832  0  0  -0.209496  0  4.043652  0  0  -0.10296  -0.199587  0  4.008685  0
C  C112  1  0.41440217  0.97767047  0.86268483  1  0  -0.06778  0  3.778091  0  0  -0.087549  0  4.041341  0  0  -0.08867  0  4.06339  0  0  -0.095867  -0.086592  0  4.026247  0
C  C113  1  0.58559540  0.02232873  0.13731464  1  0  -0.067741  0  3.778077  0  0  -0.087501  0  4.041318  0  0  -0.088618  0  4.063358  0  0  -0.095826  -0.086561  0  4.026249  0
N  N114  1  0.20229956  0.70203968  0.59267992  1  0  -0.408386  0  3.204447  0  0  -0.337727  0  3.496717  0  0  -0.358682  0  3.508856  0  0  -0.338479  -0.323608  0  3.488138  0
N  N115  1  0.79769870  0.29796125  0.40731858  1  0  -0.408325  0  3.204402  0  0  -0.337666  0  3.49664  0  0  -0.358619  0  3.508784  0  0  -0.338447  -0.323587  0  3.488088  0
N  N116  1  0.38832762  0.67193978  0.45820196  1  0  -0.41225  0  3.229592  0  0  -0.339892  0  3.527157  0  0  -0.36184  0  3.538316  0  0  -0.340125  -0.325012  0  3.519142  0
N  N117  1  0.61167397  0.32805942  0.54180059  1  0  -0.412434  0  3.229644  0  0  -0.340039  0  3.527185  0  0  -0.361981  0  3.538333  0  0  -0.340179  -0.325171  0  3.519182  0
N  N118  1  0.08655790  0.82928658  0.62253488  1  0  -0.148183  0  3.53387  0  0  -0.064277  0  3.749949  0  0  -0.081362  0  3.773385  0  0  -0.219451  -0.052751  0  3.733659  0
N  N119  1  0.91344068  0.17071520  0.37746456  1  0  -0.148232  0  3.533667  0  0  -0.06431  0  3.74974  0  0  -0.081393  0  3.773178  0  0  -0.219468  -0.052781  0  3.733452  0
N  N120  1  0.58814536  0.80739413  0.48117771  1  0  -0.150874  0  3.537055  0  0  -0.06649  0  3.753558  0  0  -0.083505  0  3.776741  0  0  -0.220751  -0.055037  0  3.73757  0
N  N121  1  0.41185589  0.19260679  0.51882435  1  0  -0.151041  0  3.537159  0  0  -0.066429  0  3.753447  0  0  -0.083443  0  3.77663  0  0  -0.220728  -0.054979  0  3.737447  0
O  O122  1  0.06493515  0.51735314  0.38045380  1  0  -0.66272  0  2.046535  0  0  -0.587573  0  2.318683  0  0  -0.617065  0  2.30447  0  0  -0.341474  -0.56681  0  2.327722  0
O  O123  1  0.93506409  0.48264779  0.61954708  1  0  -0.662734  0  2.046568  0  0  -0.587594  0  2.318687  0  0  -0.617101  0  2.304515  0  0  -0.341497  -0.566823  0  2.327716  0
O  O124  1  0.54612378  0.25471806  0.95116986  1  0  -0.304009  0  2.358491  0  0  -0.233699  0  2.584391  0  0  -0.251855  0  2.585778  0  0  -0.153188  -0.220791  0  2.582888  0
O  O125  1  0.45387615  0.74528200  0.04883031  1  0  -0.304014  0  2.35843  0  0  -0.23373  0  2.584323  0  0  -0.251904  0  2.585719  0  0  -0.153218  -0.22085  0  2.582833  0
O  O126  1  0.25689974  0.44852643  0.57868979  1  0  -0.65274  0  2.039514  0  0  -0.578927  0  2.312668  0  0  -0.607278  0  2.296521  0  0  -0.330755  -0.559015  0  2.323213  0
O  O127  1  0.74310465  0.55147449  0.42130866  1  0  -0.652733  0  2.039433  0  0  -0.578901  0  2.312572  0  0  -0.607252  0  2.296421  0  0  -0.330799  -0.559014  0  2.32313  0
O  O128  1  0.47655741  0.57565925  0.64767432  1  0  -0.612936  0  1.958251  0  0  -0.5634  0  2.186509  0  0  -0.586974  0  2.176443  0  0  -0.314782  -0.5471  0  2.192969  0
O  O129  1  0.52344454  0.42434080  0.35232703  1  0  -0.612917  0  1.958216  0  0  -0.563374  0  2.186474  0  0  -0.586947  0  2.176409  0  0  -0.314802  -0.547077  0  2.192934  0
O  O130  1  0.14756355  0.37417783  0.32104225  1  0  -0.610364  0  1.874354  0  0  -0.57114  0  2.095182  0  0  -0.591956  0  2.084705  0  0  -0.334276  -0.556635  0  2.102102  0
O  O131  1  0.85243711  0.62582395  0.67895549  1  0  -0.610393  0  1.874406  0  0  -0.571183  0  2.095237  0  0  -0.591997  0  2.084764  0  0  -0.33429  -0.556685  0  2.102155  0
