# generated using pymatgen
data_LuH6(CO)8
_symmetry_space_group_name_H-M   'P 1'
_cell_length_a   8.72593179
_cell_length_b   8.72594226
_cell_length_c   12.47942014
_cell_angle_alpha   83.53662011
_cell_angle_beta   83.53685149
_cell_angle_gamma   87.27320330
_symmetry_Int_Tables_number   1
_chemical_formula_structural   LuH6(CO)8
_chemical_formula_sum   'Lu4 H24 C32 O32'
_cell_volume   937.58113287
_cell_formula_units_Z   4
loop_
 _symmetry_equiv_pos_site_id
 _symmetry_equiv_pos_as_xyz
  1  'x, y, z'
loop_
 _atom_site_type_symbol
 _atom_site_label
 _atom_site_symmetry_multiplicity
 _atom_site_fract_x
 _atom_site_fract_y
 _atom_site_fract_z
 _atom_site_occupancy
 _atom_site_pbe_bader_spin_density
 _atom_site_pbe_cm5_charge
 _atom_site_pbe_ddec_charge
 _atom_site_pbe_ddec_spin_density
 _atom_site_pbe_ddec_sum_bond_order
 _atom_site_pbe_magmom
Lu  Lu0  1  0.73425252  0.80720067  0.77758423  1  0  1.356649  1.605505  0  2.922131  0
Lu  Lu1  1  0.19280172  0.26574671  0.72241722  1  0  1.356657  1.605507  0  2.922068  0
Lu  Lu2  1  0.26574564  0.19279816  0.22241893  1  0  1.356646  1.605474  0  2.922304  0
Lu  Lu3  1  0.80719853  0.73425789  0.27758211  1  0  1.356679  1.605533  0  2.921961  0
H  H4  1  0.44842534  0.81997976  0.02299585  1  0  0.107318  0.074607  0  0.976963  0
H  H5  1  0.18001667  0.55157183  0.47700427  1  0  0.107347  0.07464  0  0.977079  0
H  H6  1  0.55157529  0.18001445  0.97700588  1  0  0.107329  0.074614  0  0.97705  0
H  H7  1  0.81998148  0.44842699  0.52299489  1  0  0.10734  0.074644  0  0.977039  0
H  H8  1  0.40469093  0.61844339  0.03453979  1  0  0.100915  0.069797  0  1.016202  0
H  H9  1  0.38155151  0.59531054  0.46546114  1  0  0.100905  0.069782  0  1.016275  0
H  H10  1  0.59531085  0.38155082  0.96546024  1  0  0.10093  0.06978  0  1.016289  0
H  H11  1  0.61844784  0.40468713  0.53453801  1  0  0.10092  0.06979  0  1.016268  0
H  H12  1  0.37754056  0.63595314  0.83960708  1  0  0.106143  0.072982  0  0.993946  0
H  H13  1  0.36404117  0.62245933  0.66039469  1  0  0.10615  0.073  0  0.993866  0
H  H14  1  0.62246105  0.36404569  0.16039260  1  0  0.10614  0.073007  0  0.993943  0
H  H15  1  0.63596164  0.37753835  0.33960578  1  0  0.106165  0.07302  0  0.993965  0
H  H16  1  0.26160580  0.78988784  0.89424507  1  0  0.107228  0.079945  0  0.99858  0
H  H17  1  0.21010513  0.73839378  0.60575404  1  0  0.107216  0.079937  0  0.998565  0
H  H18  1  0.73839474  0.21010868  0.10575648  1  0  0.107216  0.079944  0  0.998567  0
H  H19  1  0.78989653  0.26160389  0.39424653  1  0  0.107225  0.079931  0  0.99854  0
H  H20  1  0.67978298  0.68495835  0.01015275  1  0  0.311178  0.347152  0  0.971234  0
H  H21  1  0.31503914  0.32021550  0.48984852  1  0  0.311163  0.347114  0  0.971295  0
H  H22  1  0.32021871  0.31503817  0.98984631  1  0  0.311147  0.347078  0  0.97133  0
H  H23  1  0.68495790  0.67978216  0.51015162  1  0  0.311174  0.34714  0  0.971275  0
H  H24  1  0.41230874  0.93057680  0.76172696  1  0  0.316324  0.358707  0  0.965529  0
H  H25  1  0.06941746  0.58769038  0.73827369  1  0  0.316295  0.358705  0  0.96556  0
H  H26  1  0.58768938  0.06942318  0.23827451  1  0  0.316318  0.358731  0  0.965602  0
H  H27  1  0.93058180  0.41230960  0.26172688  1  0  0.316295  0.358691  0  0.965591  0
C  C28  1  0.56669669  0.91991307  0.54521857  1  0  0.114347  0.170399  0  4.10524  0
C  C29  1  0.08008959  0.43330066  0.95477939  1  0  0.114344  0.170388  0  4.105262  0
C  C30  1  0.43329693  0.08008343  0.45478033  1  0  0.114377  0.170389  0  4.105276  0
C  C31  1  0.91991655  0.56670048  0.04521974  1  0  0.114343  0.17039  0  4.105336  0
C  C32  1  0.43641100  0.02869274  0.57142562  1  0  0.114802  0.174142  0  4.084595  0
C  C33  1  0.97130727  0.56358392  0.92857786  1  0  0.114734  0.174008  0  4.084498  0
C  C34  1  0.56358135  0.97130724  0.42857871  1  0  0.114731  0.173985  0  4.084595  0
C  C35  1  0.02869665  0.43641490  0.07142084  1  0  0.11474  0.17399  0  4.084354  0
C  C36  1  0.91073556  0.96865041  0.95862283  1  0  0.120328  0.190402  0  4.110928  0
C  C37  1  0.03135387  0.08927010  0.54137637  1  0  0.120391  0.19055  0  4.110616  0
C  C38  1  0.08926943  0.03135073  0.04137560  1  0  0.120356  0.190458  0  4.110669  0
C  C39  1  0.96864877  0.91073219  0.45862295  1  0  0.12037  0.19044  0  4.110766  0
C  C40  1  0.06814697  0.02461232  0.92622187  1  0  0.120198  0.184642  0  4.113228  0
C  C41  1  0.97538964  0.93185522  0.57377874  1  0  0.120202  0.184644  0  4.113073  0
C  C42  1  0.93185234  0.97538651  0.07378040  1  0  0.120205  0.18463  0  4.113344  0
C  C43  1  0.02461535  0.06814592  0.42622289  1  0  0.120178  0.184604  0  4.113011  0
C  C44  1  0.69140310  0.19476000  0.74128394  1  0  0.123515  0.191228  0  4.09886  0
C  C45  1  0.80524370  0.30859357  0.75871684  1  0  0.123524  0.191177  0  4.099007  0
C  C46  1  0.30859395  0.80523767  0.25871941  1  0  0.123477  0.19123  0  4.098638  0
C  C47  1  0.19475446  0.69140526  0.24128552  1  0  0.123564  0.191222  0  4.098857  0
C  C48  1  0.56814376  0.31600824  0.74906960  1  0  0.117452  0.181311  0  4.139506  0
C  C49  1  0.68399418  0.43185501  0.75093155  1  0  0.117477  0.181393  0  4.139284  0
C  C50  1  0.43186004  0.68399405  0.25093043  1  0  0.11749  0.181361  0  4.139569  0
C  C51  1  0.31600492  0.56814959  0.24907107  1  0  0.11743  0.181307  0  4.139145  0
C  C52  1  0.45751225  0.71492903  0.98088536  1  0  -0.075197  0.03992  0  3.887239  0
C  C53  1  0.28506424  0.54248740  0.51911491  1  0  -0.075227  0.039864  0  3.887459  0
C  C54  1  0.54248945  0.28506749  0.01911450  1  0  -0.075232  0.039897  0  3.887402  0
C  C55  1  0.71493391  0.45751142  0.48088425  1  0  -0.075266  0.039791  0  3.887385  0
C  C56  1  0.37992371  0.74344973  0.87805652  1  0  -0.071623  0.051991  0  3.87393  0
C  C57  1  0.25654009  0.62007471  0.62194478  1  0  -0.071663  0.051945  0  3.873847  0
C  C58  1  0.62007688  0.25654563  0.12194432  1  0  -0.071615  0.051952  0  3.873869  0
C  C59  1  0.74345917  0.37992526  0.37805420  1  0  -0.071648  0.051997  0  3.873831  0
O  O60  1  0.64822973  0.82113280  0.59741148  1  0  -0.309856  -0.447735  0  2.460075  0
O  O61  1  0.17886563  0.35176774  0.90258868  1  0  -0.309876  -0.447748  0  2.460216  0
O  O62  1  0.35176501  0.17886487  0.40258964  1  0  -0.309901  -0.447789  0  2.460244  0
O  O63  1  0.82113820  0.64823340  0.09740904  1  0  -0.309849  -0.447754  0  2.460253  0
O  O64  1  0.35749386  0.06026025  0.65804906  1  0  -0.311789  -0.440632  0  2.441247  0
O  O65  1  0.93973643  0.64250625  0.84195011  1  0  -0.311734  -0.440534  0  2.44101  0
O  O66  1  0.64250318  0.93973742  0.34195028  1  0  -0.311772  -0.44059  0  2.440984  0
O  O67  1  0.06026630  0.35749373  0.15805019  1  0  -0.311755  -0.440543  0  2.440917  0
O  O68  1  0.80154489  0.93079255  0.91090286  1  0  -0.365186  -0.468871  0  2.48038  0
O  O69  1  0.06921412  0.19845802  0.58909386  1  0  -0.365152  -0.468847  0  2.480298  0
O  O70  1  0.19845895  0.06920858  0.08909646  1  0  -0.365166  -0.468853  0  2.480325  0
O  O71  1  0.93078733  0.80154542  0.41090706  1  0  -0.365142  -0.468794  0  2.480386  0
O  O72  1  0.15177460  0.05389382  0.83777448  1  0  -0.368021  -0.472253  0  2.452194  0
O  O73  1  0.94610683  0.84823376  0.66222822  1  0  -0.36802  -0.472287  0  2.452313  0
O  O74  1  0.84823260  0.94610962  0.16222278  1  0  -0.367957  -0.472158  0  2.452514  0
O  O75  1  0.05389337  0.15177199  0.33777102  1  0  -0.368049  -0.472293  0  2.452151  0
O  O76  1  0.69561069  0.05654470  0.72219809  1  0  -0.365483  -0.470285  0  2.519772  0
O  O77  1  0.94345192  0.30438389  0.77780121  1  0  -0.365452  -0.47025  0  2.519997  0
O  O78  1  0.30437923  0.94345874  0.27780776  1  0  -0.365506  -0.470366  0  2.519632  0
O  O79  1  0.05654384  0.69561724  0.22220035  1  0  -0.365454  -0.470245  0  2.519826  0
O  O80  1  0.42342707  0.32295083  0.75661068  1  0  -0.375547  -0.467381  0  2.51615  0
O  O81  1  0.67705304  0.57657832  0.74339121  1  0  -0.375558  -0.467468  0  2.516086  0
O  O82  1  0.57657194  0.67705607  0.24338857  1  0  -0.375503  -0.467355  0  2.516222  0
O  O83  1  0.32294973  0.42342051  0.25660998  1  0  -0.375582  -0.467435  0  2.51583  0
O  O84  1  0.61760258  0.67715273  0.94867841  1  0  -0.426705  -0.505272  0  2.419684  0
O  O85  1  0.32284502  0.38239784  0.55132173  1  0  -0.426694  -0.50524  0  2.419757  0
O  O86  1  0.38239797  0.32284379  0.05132154  1  0  -0.426658  -0.505194  0  2.419779  0
O  O87  1  0.67715194  0.61760213  0.44867823  1  0  -0.426696  -0.505258  0  2.419713  0
O  O88  1  0.47216977  0.85350674  0.80773139  1  0  -0.447055  -0.520273  0  2.49144  0
O  O89  1  0.14648614  0.52782860  0.69226803  1  0  -0.446968  -0.520208  0  2.491441  0
O  O90  1  0.52782954  0.14649208  0.19227088  1  0  -0.447044  -0.520271  0  2.491532  0
O  O91  1  0.85351308  0.47217253  0.30773085  1  0  -0.446989  -0.520218  0  2.491407  0
