# generated using pymatgen
data_MnBH12C13(N4O)2
_symmetry_space_group_name_H-M   'P 1'
_cell_length_a   8.49236471
_cell_length_b   9.77840342
_cell_length_c   10.51145717
_cell_angle_alpha   98.70218552
_cell_angle_beta   97.44326897
_cell_angle_gamma   106.03034292
_symmetry_Int_Tables_number   1
_chemical_formula_structural   MnBH12C13(N4O)2
_chemical_formula_sum   'Mn2 B2 H24 C26 N16 O4'
_cell_volume   815.69469585
_cell_formula_units_Z   2
loop_
 _symmetry_equiv_pos_site_id
 _symmetry_equiv_pos_as_xyz
  1  'x, y, z'
loop_
 _atom_site_type_symbol
 _atom_site_label
 _atom_site_symmetry_multiplicity
 _atom_site_fract_x
 _atom_site_fract_y
 _atom_site_fract_z
 _atom_site_occupancy
 _atom_site_hle17_ddec_charge
 _atom_site_hle17_ddec_spin_density
 _atom_site_hle17_ddec_sum_bond_order
 _atom_site_hle17_magmom
 _atom_site_hse06_10hf_ddec_charge
 _atom_site_hse06_10hf_ddec_spin_density
 _atom_site_hse06_10hf_ddec_sum_bond_order
 _atom_site_hse06_10hf_magmom
 _atom_site_hse06_ddec_charge
 _atom_site_hse06_ddec_spin_density
 _atom_site_hse06_ddec_sum_bond_order
 _atom_site_hse06_magmom
 _atom_site_pbe_cm5_charge
 _atom_site_pbe_ddec_charge
 _atom_site_pbe_ddec_spin_density
 _atom_site_pbe_ddec_sum_bond_order
 _atom_site_pbe_magmom
Mn  Mn0  1  0.21412561  0.72111384  0.17797418  1  0.979476  4.836705  1.986338  4.658  0.803548  4.743518  2.485375  4.509  0.855336  4.783189  2.430388  4.575  0.605679  0.76521  4.697945  2.524771  4.442
Mn  Mn1  1  0.78495042  0.26346949  0.82079313  1  0.618975  -1.173113  3.019783  -1.14  0.549473  -1.084511  3.538976  -1.037  0.574133  -1.046827  3.499075  -0.998  0.689293  0.539045  -1.105492  3.558022  -1.058
B  B2  1  0.85418411  0.11874819  0.31095806  1  0.716287  0.000724  3.000721  0.001  0.546794  0.001047  3.315754  0.001  0.569732  0.000758  3.314426  0.001  0.111705  0.530168  0.00135  3.318488  0.001
B  B3  1  0.14330038  0.89070319  0.69113872  1  0.716934  0.000366  3.009044  0.0  0.54986  0.000643  3.321715  0.001  0.571429  0.000484  3.323601  0.0  0.110364  0.534549  0.001064  3.321854  0.001
H  H4  1  0.54317145  0.95119735  0.14175561  1  0.083725  -0.00024  0.9647  0.0  0.088997  0.000338  1.035199  0.0  0.091317  0.000155  1.032703  0.0  0.133792  0.087219  0.000509  1.037108  0.0
H  H5  1  0.46323122  0.02478146  0.85544411  1  0.082924  -0.000167  0.971925  -0.001  0.089057  0.00048  1.041913  0.0  0.091949  0.000319  1.037231  0.0  0.132406  0.086803  0.000604  1.045682  0.0
H  H6  1  0.81527166  0.92303941  0.49792627  1  0.105339  0.00018  0.981349  0.0  0.109874  0.000314  1.051107  0.0  0.112943  0.000218  1.04976  0.0  0.117485  0.107617  0.000417  1.052266  0.0
H  H7  1  0.19865479  0.10855781  0.52137756  1  0.106182  0.000115  0.974794  0.0  0.110995  -0.000113  1.045287  0.0  0.113407  -0.00012  1.044974  0.0  0.116071  0.10946  -0.000113  1.045265  0.0
H  H8  1  0.90337036  0.10472641  0.04321908  1  0.096752  -0.000342  0.943433  -0.001  0.10538  0.000146  1.006097  0.0  0.108116  0.000101  1.00269  0.0  0.13881  0.103379  0.000191  1.008757  0.0
H  H9  1  0.12621260  0.90739659  0.96360795  1  0.090927  -0.000323  0.942882  0.0  0.100287  6.6e-05  1.005775  0.0  0.102822  -4.6e-05  1.003226  0.0  0.13747  0.098399  0.000169  1.007724  0.0
H  H10  1  0.93714664  0.85049345  0.28110635  1  0.089041  -8e-05  0.961843  0.0  0.096198  0.000244  1.028467  0.0  0.098483  0.000124  1.026185  0.0  0.134829  0.094689  0.000303  1.029915  0.0
H  H11  1  0.06347555  0.15966746  0.72433699  1  0.097075  0.000478  0.960754  0.001  0.102911  7e-06  1.029266  0.0  0.105717  2.3e-05  1.0251  0.0  0.138757  0.100682  2e-06  1.032621  0.0
H  H12  1  0.52185448  0.69488704  0.42972735  1  0.096242  -0.00011  0.944413  0.0  0.108071  0.000198  0.998746  0.0  0.110859  9e-05  0.997439  0.0  0.11642  0.105773  0.000352  1.000368  0.0
H  H13  1  0.51307110  0.30779165  0.58880928  1  0.10065  -6.4e-05  0.948362  0.0  0.110646  0.000203  1.00433  0.0  0.113901  0.000124  1.001705  0.0  0.117076  0.107954  0.000292  1.007223  0.0
H  H14  1  0.36786242  0.11102241  0.17964719  1  0.081118  -0.00012  1.000988  0.0  0.085353  0.000108  1.074626  0.0  0.087309  1.8e-05  1.07461  0.0  0.104096  0.08396  0.000182  1.074691  0.0
H  H15  1  0.62881915  0.89705067  0.82080722  1  0.084021  0.00023  1.006776  0.0  0.087792  0.000177  1.081064  0.0  0.089196  0.0001  1.081068  0.0  0.106734  0.086729  0.00023  1.081312  0.0
H  H16  1  0.63487613  0.29987327  0.28739758  1  0.103999  1.1e-05  0.947192  0.0  0.117743  -0.0  0.999708  0.0  0.120066  1e-06  0.998972  0.0  0.122127  0.115411  7.8e-05  1.001274  0.0
H  H17  1  0.33671672  0.68726142  0.68733675  1  0.104034  0.000331  0.951228  0.0  0.11742  0.000547  1.004818  0.0  0.120334  0.000396  1.0033  0.0  0.12273  0.115444  0.000575  1.005897  0.0
H  H18  1  0.56978750  0.35343228  0.03629647  1  0.123634  8e-06  0.925284  0.0  0.134471  0.000145  0.977957  0.0  0.137911  0.000103  0.975376  0.0  0.129951  0.131992  0.00018  0.979865  0.0
H  H19  1  0.43634579  0.63879702  0.93545097  1  0.117567  -0.000169  0.922065  0.0  0.129591  6.3e-05  0.973284  0.0  0.133219  -2.2e-05  0.97081  0.0  0.127599  0.126897  0.000155  0.975237  0.0
H  H20  1  0.16644147  0.28088885  0.23914904  1  0.120499  0.000184  0.94646  0.0  0.130853  0.00039  1.004151  0.0  0.134213  0.000236  1.001783  0.0  0.124894  0.128418  0.000425  1.005939  0.0
H  H21  1  0.83619739  0.73124420  0.77122378  1  0.122593  5.1e-05  0.941474  0.0  0.13299  7.9e-05  0.997735  0.0  0.13586  6.7e-05  0.996476  0.0  0.126643  0.130372  3e-05  0.999409  0.0
H  H22  1  0.66658928  0.12728032  0.51809680  1  0.080119  0.000342  0.977543  0.0  0.086211  0.000459  1.047397  0.0  0.088625  0.000292  1.043958  0.0  0.13083  0.084265  0.000616  1.050581  0.0
H  H23  1  0.33122677  0.85764189  0.48834652  1  0.080107  -0.000274  0.964025  0.0  0.086737  0.000184  1.034083  0.0  0.088832  7.3e-05  1.03217  0.0  0.131416  0.085081  0.000337  1.035671  0.0
H  H24  1  0.13649048  0.36902536  0.45645502  1  0.103132  4.8e-05  0.956471  0.0  0.115545  0.000113  1.013168  0.0  0.117713  7.7e-05  1.012503  0.0  0.119124  0.113832  0.000122  1.013959  0.0
H  H25  1  0.84283499  0.66169522  0.54505084  1  0.100399  0.000207  0.962632  0.0  0.1132  0.000312  1.019464  0.0  0.115982  0.000238  1.018001  0.0  0.11994  0.111003  0.000363  1.020896  0.0
H  H26  1  0.09806446  0.46284534  0.70915074  1  0.102186  0.000116  0.975006  0.0  0.107284  0.000184  1.042012  0.0  0.109179  0.000103  1.041578  0.0  0.11283  0.105745  0.000259  1.04264  0.0
H  H27  1  0.88810572  0.53114869  0.30477841  1  0.100218  -0.000221  0.967093  0.0  0.106984  3.4e-05  1.0313  0.0  0.108817  -4.4e-05  1.031588  0.0  0.113525  0.105636  7.9e-05  1.03108  0.0
C  C28  1  0.57605904  0.91202067  0.22931223  1  0.213743  0.007242  3.664966  0.007  0.154292  0.010757  3.930473  0.009  0.168965  0.009015  3.942153  0.008  0.150482  0.144486  0.012673  3.922413  0.011
C  C29  1  0.43640426  0.07402372  0.77324921  1  0.189211  0.016471  3.625374  0.013  0.13053  0.007644  3.896963  0.004  0.14971  0.004395  3.902835  0.002  0.139386  0.11714  0.009102  3.892989  0.005
C  C30  1  0.92141798  0.52973480  0.98437408  1  0.483435  0.028064  3.91791  0.021  0.446649  0.017327  4.211848  0.012  0.48477  0.007822  4.196272  0.005  0.184708  0.419197  0.02405  4.222749  0.016
C  C31  1  0.05146167  0.44921403  0.99730457  1  0.503095  0.015652  3.904323  0.01  0.462302  0.013607  4.197924  0.009  0.498113  0.00683  4.184125  0.005  0.195801  0.436809  0.018159  4.206923  0.012
C  C32  1  0.71578626  0.89474444  0.41415764  1  -0.034184  0.000508  3.725095  0.001  -0.072773  0.001484  3.988891  0.001  -0.070889  0.000873  4.008124  0.001  -0.00034  -0.073722  0.002112  3.975761  0.002
C  C33  1  0.29973893  0.12026297  0.60042569  1  -0.035049  -0.003778  3.727773  -0.003  -0.074713  -0.000913  3.993148  -0.001  -0.07314  -0.000629  4.012614  -0.001  -0.003158  -0.075337  -0.000892  3.979499  -0.001
C  C34  1  0.81917721  0.16313812  0.07372538  1  0.19724  0.011831  3.61664  0.01  0.135979  0.006663  3.889285  0.005  0.153103  0.004684  3.897702  0.003  0.142005  0.123617  0.007318  3.884674  0.005
C  C35  1  0.19899672  0.84193447  0.92360966  1  0.214028  0.007007  3.666104  0.006  0.152389  0.009816  3.935722  0.008  0.167208  0.008007  3.946957  0.007  0.152288  0.142403  0.011608  3.928281  0.01
C  C36  1  0.02967270  0.94450013  0.26487083  1  0.217473  0.003076  3.650363  0.003  0.159713  0.005757  3.915211  0.005  0.174624  0.004732  3.926231  0.004  0.14907  0.150022  0.006464  3.907107  0.005
C  C37  1  0.97027599  0.06572647  0.73943922  1  0.21186  -0.014436  3.608848  -0.012  0.151521  -0.012156  3.877615  -0.01  0.168518  -0.011591  3.88554  -0.009  0.150336  0.139686  -0.011673  3.872692  -0.009
C  C38  1  0.56974261  0.78244548  0.37951495  1  -0.01505  0.002147  3.771002  0.003  -0.04369  0.003899  4.033853  0.004  -0.042548  0.002956  4.053808  0.004  -0.005824  -0.044821  0.004839  4.020613  0.005
C  C39  1  0.45647073  0.21869975  0.63431117  1  -0.024477  0.004917  3.73238  0.004  -0.052728  0.000417  3.997125  0.0  -0.049695  -0.00061  4.013428  -0.001  -0.007197  -0.055273  0.000727  3.986348  0.0
C  C40  1  0.24955809  0.08163534  0.21289263  1  -0.013497  0.000974  3.779698  0.002  -0.04109  0.002149  4.044532  0.003  -0.03988  0.001543  4.066084  0.002  -0.009041  -0.04177  0.00291  4.02946  0.003
C  C41  1  0.74853177  0.92792540  0.79033921  1  -0.022551  -0.002773  3.751884  -0.003  -0.053146  -0.002013  4.021636  -0.002  -0.051498  -0.002285  4.04406  -0.003  -0.007792  -0.054608  -0.002442  4.006418  -0.003
C  C42  1  0.67926534  0.26673858  0.19919529  1  -0.037766  -0.002685  3.731591  -0.002  -0.07368  -0.000556  3.992392  -0.001  -0.072764  -0.000576  4.012095  0.0  0.001291  -0.073289  -0.000394  3.978271  0.0
C  C43  1  0.30876785  0.72516912  0.78155515  1  -0.038062  -9.3e-05  3.718382  0.0  -0.07363  0.000892  3.97675  0.001  -0.071676  0.000363  3.994433  0.0  0.000987  -0.074775  0.001543  3.964801  0.001
C  C44  1  0.64641000  0.29150396  0.07447746  1  -0.010283  0.002231  3.704451  0.001  -0.042961  0.002316  3.970594  0.001  -0.040357  0.001901  3.988649  0.001  0.001748  -0.04439  0.002147  3.958246  0.0
C  C45  1  0.35859357  0.70344775  0.90470263  1  0.002306  0.002422  3.72487  0.003  -0.027317  0.003934  3.985426  0.004  -0.025272  0.003022  4.004061  0.004  0.005406  -0.02909  0.005267  3.973379  0.005
C  C46  1  0.15183137  0.16824698  0.24476709  1  -0.046281  0.000491  3.703477  0.0  -0.083371  0.000968  3.959638  0.001  -0.081775  0.000572  3.977954  0.0  -0.003385  -0.084268  0.001309  3.946939  0.001
C  C47  1  0.84934282  0.84298345  0.76303853  1  -0.042577  0.002929  3.695352  0.003  -0.079968  0.000898  3.95295  0.001  -0.080039  0.001362  3.97385  0.001  -0.000952  -0.07927  0.000637  3.93847  0.001
C  C48  1  0.78711942  0.20815062  0.53573531  1  0.172989  0.003599  3.676063  0.003  0.113568  -0.00253  3.951097  -0.002  0.129565  -0.004773  3.960599  -0.004  0.135013  0.101771  -0.000868  3.947285  -0.001
C  C49  1  0.20596849  0.78359868  0.47100592  1  0.18495  0.007881  3.708023  0.007  0.12517  0.010678  3.982059  0.009  0.139116  0.009091  3.99426  0.008  0.139391  0.115584  0.015331  3.974065  0.012
C  C50  1  0.03332129  0.33306957  0.50643195  1  -0.032561  -0.001573  3.718166  -0.001  -0.073019  -0.000326  3.982565  0.0  -0.072899  0.00026  4.003577  0.0  -0.002215  -0.072697  -0.000694  3.968536  0.0
C  C51  1  0.95043949  0.68234205  0.49764558  1  -0.025274  0.000155  3.708203  0.0  -0.066556  0.00164  3.971042  0.001  -0.064419  0.000777  3.989167  0.001  0.001425  -0.06769  0.001577  3.958689  0.001
C  C52  1  0.01235104  0.38054790  0.63114020  1  -0.008831  0.00186  3.722257  0.001  -0.040068  0.00018  3.99348  0.0  -0.036975  -0.000445  4.011858  -0.001  -0.006563  -0.042947  0.000655  3.982098  0.0
C  C53  1  0.97469889  0.61734164  0.37952490  1  -0.001586  0.003762  3.749565  0.004  -0.030494  0.005891  4.016958  0.006  -0.028961  0.004717  4.03719  0.005  -0.002889  -0.031516  0.006191  4.003338  0.006
N  N54  1  0.48217048  0.79458265  0.26338948  1  -0.373652  0.028846  3.20545  0.013  -0.304591  0.034814  3.491662  0.013  -0.323974  0.030761  3.504554  0.01  -0.350003  -0.290937  0.038644  3.482816  0.016
N  N55  1  0.54357080  0.18717323  0.74198560  1  -0.290236  0.005235  3.315583  0.011  -0.238546  0.002265  3.613104  0.01  -0.254776  0.000752  3.624349  0.009  -0.367921  -0.22755  0.00335  3.602466  0.012
N  N56  1  0.78998878  0.18583312  0.19856516  1  -0.335962  0.001112  3.515291  0.001  -0.237532  0.001345  3.754939  0.001  -0.256043  0.000857  3.776097  0.0  -0.238423  -0.224711  0.001718  3.740696  0.001
N  N57  1  0.20596004  0.81286211  0.79442704  1  -0.331931  0.001421  3.520047  0.001  -0.232633  0.003078  3.756094  0.003  -0.250619  0.002305  3.777298  0.002  -0.236478  -0.220473  0.003384  3.741779  0.003
N  N58  1  0.71871916  0.97777207  0.31788511  1  -0.331143  0.000894  3.505852  0.001  -0.226634  0.002466  3.732997  0.002  -0.24511  0.001765  3.754305  0.002  -0.23263  -0.214119  0.003185  3.718378  0.003
N  N59  1  0.28720053  0.02775535  0.68887469  1  -0.335836  0.000758  3.503661  0.0  -0.235058  0.001502  3.73635  0.001  -0.252951  0.000952  3.756127  0.001  -0.237072  -0.222986  0.002038  3.722844  0.002
N  N60  1  0.88994220  0.22203060  0.44577723  1  -0.327674  0.000961  3.485204  0.001  -0.227435  -0.000634  3.722467  0.0  -0.245773  -0.000904  3.743952  -0.001  -0.235089  -0.215769  -9.7e-05  3.709511  0.0
N  N61  1  0.09803809  0.78968530  0.55502877  1  -0.323984  0.002701  3.499774  0.003  -0.224293  0.004608  3.736314  0.004  -0.241618  0.003565  3.756995  0.004  -0.232376  -0.212798  0.004921  3.722588  0.004
N  N62  1  0.01123703  0.07981229  0.27876515  1  -0.336013  0.000742  3.494478  0.001  -0.233956  0.001773  3.729412  0.002  -0.252039  0.001297  3.749893  0.001  -0.234058  -0.221516  0.002211  3.715173  0.002
N  N63  1  0.99044988  0.93176602  0.72984858  1  -0.329797  -0.001453  3.500743  -0.001  -0.228628  -0.002955  3.736687  -0.002  -0.247645  -0.002358  3.758559  -0.002  -0.232395  -0.215774  -0.003309  3.721654  -0.003
N  N64  1  0.17182945  0.94145458  0.22594528  1  -0.387239  0.027426  3.221957  0.015  -0.319554  0.032543  3.505708  0.016  -0.340219  0.029353  3.522542  0.013  -0.345995  -0.304672  0.035709  3.493352  0.018
N  N65  1  0.82521209  0.06784844  0.77512262  1  -0.312643  0.012161  3.324042  0.021  -0.255995  0.00753  3.609348  0.016  -0.277434  0.008135  3.628781  0.016  -0.362347  -0.241541  0.006532  3.594969  0.016
N  N66  1  0.85770780  0.29974231  0.64965487  1  -0.308566  0.009721  3.323459  0.014  -0.256301  0.006693  3.616144  0.012  -0.274035  0.006254  3.630535  0.011  -0.367786  -0.244638  0.007459  3.606971  0.013
N  N67  1  0.13610461  0.68150048  0.36373215  1  -0.392801  0.025338  3.229176  0.008  -0.325213  0.030581  3.519801  0.008  -0.34519  0.027116  3.533698  0.006  -0.359316  -0.311657  0.034587  3.510981  0.011
N  N68  1  0.73587192  0.22639222  0.99598266  1  -0.318322  0.008849  3.360756  0.012  -0.262233  0.005939  3.651071  0.009  -0.281424  0.003422  3.668427  0.007  -0.371748  -0.250182  0.007868  3.639074  0.011
N  N69  1  0.28864105  0.77746605  0.99306777  1  -0.392433  0.026992  3.245025  0.014  -0.32275  0.031683  3.529746  0.014  -0.344012  0.028105  3.546961  0.012  -0.354109  -0.307968  0.035125  3.518395  0.017
O  O70  1  0.94733370  0.65063883  0.05999006  1  -0.585485  0.04128  2.014066  0.036  -0.536794  0.045202  2.257579  0.037  -0.560231  0.036062  2.244467  0.028  -0.313957  -0.518645  0.051777  2.265066  0.044
O  O71  1  0.02445526  0.33737475  0.90678551  1  -0.514551  0.011199  2.167797  0.017  -0.472588  0.005038  2.431534  0.01  -0.503249  0.00295  2.426129  0.008  -0.299686  -0.450138  0.007809  2.43204  0.014
O  O72  1  0.79528533  0.46615870  0.89145527  1  -0.502649  -0.004366  2.098464  -0.001  -0.465423  -0.010285  2.356094  -0.006  -0.495754  -0.008463  2.346768  -0.003  -0.307573  -0.443848  -0.009921  2.361416  -0.006
O  O73  1  0.17648817  0.49722046  0.08960423  1  -0.575542  0.037427  2.019282  0.029  -0.521017  0.043016  2.267572  0.031  -0.546208  0.035829  2.252106  0.024  -0.313617  -0.50106  0.048126  2.276859  0.035
