# generated using pymatgen
data_Zn4H20(C16O11)3
_symmetry_space_group_name_H-M   'P 1'
_cell_length_a   23.81576063
_cell_length_b   23.81738254
_cell_length_c   23.81567305
_cell_angle_alpha   66.58318002
_cell_angle_beta   72.47040214
_cell_angle_gamma   107.53827319
_symmetry_Int_Tables_number   1
_chemical_formula_structural   Zn4H20(C16O11)3
_chemical_formula_sum   'Zn8 H40 C96 O66'
_cell_volume   10362.24079272
_cell_formula_units_Z   2
loop_
 _symmetry_equiv_pos_site_id
 _symmetry_equiv_pos_as_xyz
  1  'x, y, z'
loop_
 _atom_site_type_symbol
 _atom_site_label
 _atom_site_symmetry_multiplicity
 _atom_site_fract_x
 _atom_site_fract_y
 _atom_site_fract_z
 _atom_site_occupancy
 _atom_site_pbe_bader_charge
 _atom_site_pbe_bader_spin_density
 _atom_site_pbe_cm5_charge
 _atom_site_pbe_ddec_charge
 _atom_site_pbe_ddec_spin_density
 _atom_site_pbe_ddec_sum_bond_order
 _atom_site_pbe_magmom
Zn  Zn0  1  0.05706557  0.95708200  0.48585778  1  1.319755  0  0.681844  0.966317  0  2.370189  0
Zn  Zn1  1  0.05706143  0.09998143  0.45709649  1  1.318012  0  0.682004  0.966627  0  2.369749  0
Zn  Zn2  1  0.94293041  0.98585371  0.45707544  1  1.319865  0  0.681835  0.966313  0  2.370114  0
Zn  Zn3  1  0.94294965  0.95708682  0.59998739  1  1.31811  0  0.681823  0.966257  0  2.370077  0
Zn  Zn4  1  0.94293260  0.54291364  0.01414165  1  1.319237  0  0.681952  0.966446  0  2.37006  0
Zn  Zn5  1  0.05708531  0.51415010  0.04291839  1  1.319429  0  0.681878  0.966432  0  2.370013  0
Zn  Zn6  1  0.94293014  0.40001706  0.04292419  1  1.31748  0  0.681898  0.966346  0  2.370143  0
Zn  Zn7  1  0.05705742  0.54291604  0.90001914  1  1.317694  0  0.681844  0.966305  0  2.37032  0
H  H8  1  0.91937641  0.64709294  0.11760934  1  0.154391  0  0.126032  0.139382  0  0.971924  0
H  H9  1  0.08065718  0.61765187  0.14710157  1  0.155861  0  0.126013  0.139281  0  0.97197  0
H  H10  1  0.92778675  0.89301294  0.34234282  1  0.137338  0  0.125699  0.138995  0  0.970885  0
H  H11  1  0.07212685  0.84226925  0.39311502  1  0.135125  0  0.125648  0.138918  0  0.971388  0
H  H12  1  0.08064063  0.46299918  0.77228229  1  0.14137  0  0.125951  0.139313  0  0.972056  0
H  H13  1  0.91934934  0.27226561  0.96300560  1  0.141145  0  0.125987  0.139264  0  0.972112  0
H  H14  1  0.07216344  0.22985648  0.53478848  1  0.166749  0  0.125683  0.139006  0  0.970985  0
H  H15  1  0.92781763  0.03477113  0.72986535  1  0.16681  0  0.125709  0.139066  0  0.970909  0
H  H16  1  0.73536583  0.46522782  0.10691676  1  0.1349  0  0.125646  0.142245  0  0.967428  0
H  H17  1  0.73536849  0.27014936  0.15764472  1  0.134051  0  0.125667  0.142302  0  0.967036  0
H  H18  1  0.26473736  0.22773748  0.35291381  1  0.126588  0  0.126005  0.142716  0  0.968091  0
H  H19  1  0.26471746  0.03699932  0.38236348  1  0.173157  0  0.125978  0.1427  0  0.968178  0
H  H20  1  0.26464994  0.60694425  0.96520448  1  0.135419  0  0.125706  0.142339  0  0.967162  0
H  H21  1  0.26462173  0.65765925  0.77012320  1  0.133162  0  0.125683  0.142393  0  0.967317  0
H  H22  1  0.73527999  0.85288402  0.72775366  1  0.126367  0  0.125985  0.142779  0  0.968049  0
H  H23  1  0.73527428  0.88235704  0.53700578  1  0.173339  0  0.126001  0.14275  0  0.968164  0
H  H24  1  0.91903424  0.83683179  0.74363541  1  0.642271  0  0.309251  0.352614  0  0.96737  0
H  H25  1  0.08042198  0.66261500  0.75636306  1  0.636822  0  0.30937  0.35282  0  0.967328  0
H  H26  1  0.91954721  0.66318773  0.91780115  1  0.636871  0  0.309279  0.35263  0  0.967325  0
H  H27  1  0.08103132  0.83738347  0.58219229  1  0.638006  0  0.309394  0.352753  0  0.967184  0
H  H28  1  0.91899205  0.08220472  0.33734383  1  0.637698  0  0.309319  0.352526  0  0.967366  0
H  H29  1  0.08045306  0.41780144  0.16322204  1  0.636672  0  0.309354  0.352648  0  0.967198  0
H  H30  1  0.91957204  0.25638137  0.16261622  1  0.636468  0  0.309417  0.352831  0  0.967586  0
H  H31  1  0.08099498  0.24362438  0.33682992  1  0.65598  0  0.309367  0.3529  0  0.967448  0
H  H32  1  0.12206395  0.78132350  0.17243646  1  0.613431  0  0.329436  0.360937  0  0.891408  0
H  H33  1  0.87791645  0.67240011  0.28131405  1  0.612966  0  0.329359  0.360715  0  0.891573  0
H  H34  1  0.00956406  0.68480164  0.36139702  1  0.610815  0  0.330038  0.361314  0  0.891462  0
H  H35  1  0.99037036  0.86132862  0.18489302  1  0.611424  0  0.32991  0.361221  0  0.89122  0
H  H36  1  0.87790299  0.20552197  0.84075111  1  0.60722  0  0.3293  0.360716  0  0.891528  0
H  H37  1  0.12207552  0.34072385  0.70554435  1  0.607187  0  0.3293  0.360539  0  0.891762  0
H  H38  1  0.99037749  0.12901047  0.82477481  1  0.620461  0  0.329885  0.361064  0  0.891192  0
H  H39  1  0.00958052  0.32473654  0.62905242  1  0.620498  0  0.33003  0.361348  0  0.891329  0
H  H40  1  0.54623671  0.17527049  0.31510042  1  0.609537  0  0.329928  0.361211  0  0.890819  0
H  H41  1  0.54619312  0.37097484  0.13860961  1  0.609789  0  0.330024  0.361364  0  0.891053  0
H  H42  1  0.45372629  0.15926768  0.21864541  1  0.615896  0  0.32931  0.360522  0  0.891597  0
H  H43  1  0.45374405  0.29447940  0.32759772  1  0.605156  0  0.329465  0.361156  0  0.891639  0
H  H44  1  0.45377224  0.81511641  0.67523504  1  0.611126  0  0.329828  0.361181  0  0.890986  0
H  H45  1  0.45379273  0.63862235  0.87095746  1  0.610069  0  0.330065  0.361488  0  0.890965  0
H  H46  1  0.54626927  0.71865026  0.65925997  1  0.61623  0  0.329272  0.360538  0  0.891661  0
H  H47  1  0.54627654  0.82757145  0.79449815  1  0.603049  0  0.329335  0.361198  0  0.891568  0
C  C48  1  0.18157528  0.09079320  0.40922350  1  1.5471  0  0.233763  0.609106  0  4.160963  0
C  C49  1  0.99998811  0.14002163  0.35997919  1  1.426847  0  0.226882  0.632021  0  4.114501  0
C  C50  1  0.99996810  0.90919764  0.40925751  1  1.52934  0  0.232889  0.606898  0  4.163919  0
C  C51  1  0.81843086  0.90919339  0.59081547  1  1.548772  0  0.23407  0.609391  0  4.160891  0
C  C52  1  0.00004255  0.86000309  0.64002341  1  1.42545  0  0.226992  0.632658  0  4.114407  0
C  C53  1  0.99999890  0.09077434  0.59078352  1  1.554455  0  0.23295  0.606862  0  4.163744  0
C  C54  1  0.00002728  0.59079832  0.09077412  1  1.532816  0  0.233806  0.609173  0  4.161262  0
C  C55  1  0.00001167  0.35998351  0.14003344  1  1.426093  0  0.226996  0.632225  0  4.114419  0
C  C56  1  0.81845243  0.40923000  0.09074920  1  1.54196  0  0.232897  0.606902  0  4.163638  0
C  C57  1  0.99998458  0.40920448  0.90922352  1  1.550499  0  0.233711  0.608919  0  4.161609  0
C  C58  1  0.99998611  0.64001563  0.85996906  1  1.426217  0  0.226942  0.632293  0  4.114221  0
C  C59  1  0.18155189  0.59076164  0.90921022  1  1.541564  0  0.232972  0.607088  0  4.163591  0
C  C60  1  0.00003596  0.80411160  0.69591070  1  0.012664  0  -0.051721  -0.304236  0  4.031552  0
C  C61  1  0.99999191  0.69590424  0.80408189  1  0.010409  0  -0.051946  -0.304364  0  4.031612  0
C  C62  1  0.95604444  0.77684725  0.76710399  1  0.674219  0  0.07138  0.197326  0  4.065671  0
C  C63  1  0.04393736  0.72312409  0.73288781  1  0.675574  0  0.071702  0.197828  0  4.064904  0
C  C64  1  0.95606524  0.72317150  0.82080421  1  0.524383  0  0.071563  0.19766  0  4.065344  0
C  C65  1  0.04400028  0.77688148  0.67918749  1  0.521913  0  0.071594  0.197886  0  4.064916  0
C  C66  1  0.99999494  0.19591284  0.30409026  1  0.010907  0  -0.051908  -0.304062  0  4.031656  0
C  C67  1  0.00001034  0.30409259  0.19591850  1  0.010155  0  -0.051867  -0.304218  0  4.031141  0
C  C68  1  0.95602124  0.17919907  0.27685963  1  0.524351  0  0.071544  0.197369  0  4.065647  0
C  C69  1  0.04394540  0.32080734  0.22318559  1  0.524648  0  0.071539  0.197691  0  4.065384  0
C  C70  1  0.95607134  0.23290298  0.22311804  1  0.674934  0  0.071663  0.19788  0  4.064698  0
C  C71  1  0.04397912  0.26710437  0.27684358  1  0.675375  0  0.071479  0.197448  0  4.06563  0
C  C72  1  0.00001740  0.62833044  0.12831011  1  0.069653  0  -0.006497  -0.024126  0  3.95406  0
C  C73  1  0.95437454  0.65369815  0.13813719  1  -0.030969  0  -0.055723  -0.077607  0  3.903391  0
C  C74  1  0.95236947  0.68681740  0.17496689  1  -0.012282  0  -0.003793  -0.087574  0  3.942004  0
C  C75  1  0.99998781  0.69904513  0.19906167  1  0.113419  0  0.0039  0.078653  0  4.094402  0
C  C76  1  0.04762284  0.67497675  0.18683611  1  -0.011239  0  -0.00373  -0.087308  0  3.9417  0
C  C77  1  0.04564696  0.63816284  0.15369794  1  -0.032678  0  -0.055826  -0.077745  0  3.903153  0
C  C78  1  0.99997458  0.73462063  0.23466353  1  -0.355076  0  -0.041998  -0.125807  0  4.175797  0
C  C79  1  0.99996532  0.76535107  0.26543435  1  -0.139232  0  -0.041041  -0.123977  0  4.174324  0
C  C80  1  0.99995009  0.80092509  0.30103152  1  0.07888  0  0.002948  0.077853  0  4.093677  0
C  C81  1  0.96074457  0.83563605  0.30262300  1  -0.004382  0  -0.003472  -0.087348  0  3.942244  0
C  C82  1  0.95978578  0.86871755  0.33948624  1  0.009151  0  -0.056363  -0.078206  0  3.904642  0
C  C83  1  0.99994621  0.87164622  0.37175849  1  0.021546  0  -0.00619  -0.023882  0  3.957758  0
C  C84  1  0.04010726  0.83938086  0.36883824  1  0.008623  0  -0.0564  -0.078329  0  3.905715  0
C  C85  1  0.03914175  0.80250994  0.33576509  1  0.001689  0  -0.003058  -0.086907  0  3.942048  0
C  C86  1  0.99999200  0.37167616  0.87168341  1  -0.024236  0  -0.006543  -0.024273  0  3.954388  0
C  C87  1  0.04563785  0.40748119  0.80067476  1  0.027853  0  -0.05577  -0.078113  0  3.903488  0
C  C88  1  0.04763447  0.37264691  0.76556045  1  0.024402  0  -0.00364  -0.086023  0  3.940316  0
C  C89  1  0.00000249  0.30094651  0.80095530  1  0.044005  0  0.003923  0.077838  0  4.09432  0
C  C90  1  0.95236977  0.26555037  0.87265153  1  0.024048  0  -0.003679  -0.086025  0  3.940591  0
C  C91  1  0.95435549  0.30066705  0.90748454  1  0.027996  0  -0.055806  -0.078055  0  3.90313  0
C  C92  1  0.99999936  0.26535568  0.76536824  1  -0.349226  0  -0.041944  -0.125683  0  4.175952  0
C  C93  1  0.99998650  0.23460048  0.73462314  1  -0.137593  0  -0.041251  -0.124411  0  4.174815  0
C  C94  1  0.99998382  0.19901584  0.69903727  1  0.148882  0  0.003151  0.077157  0  4.093076  0
C  C95  1  0.03918746  0.23662664  0.62511954  1  -0.013478  0  -0.003449  -0.085747  0  3.940593  0
C  C96  1  0.04015012  0.20072109  0.59108071  1  -0.024968  0  -0.056228  -0.078846  0  3.904301  0
C  C97  1  0.99999315  0.12829599  0.62831066  1  0.033361  0  -0.006423  -0.023808  0  3.957542  0
C  C98  1  0.95982679  0.09106190  0.70073610  1  -0.024272  0  -0.056168  -0.07866  0  3.90433  0
C  C99  1  0.96077661  0.12509911  0.73664424  1  -0.014469  0  -0.003511  -0.085892  0  3.940065  0
C  C100  1  0.74340141  0.37170848  0.12825314  1  0.049138  0  -0.006156  -0.024087  0  3.959566  0
C  C101  1  0.70820652  0.40893846  0.13118788  1  0.095925  0  -0.056358  -0.081502  0  3.905113  0
C  C102  1  0.63826220  0.37489747  0.16426646  1  -0.070914  0  -0.00328  -0.085762  0  3.941192  0
C  C103  1  0.60195387  0.30097970  0.19898126  1  0.05898  0  0.00311  0.077119  0  4.092714  0
C  C104  1  0.63826322  0.26337623  0.19737628  1  -0.002647  0  -0.00348  -0.086024  0  3.941164  0
C  C105  1  0.70820879  0.29928357  0.16051363  1  -0.029506  0  -0.056351  -0.081476  0  3.904358  0
C  C106  1  0.53078224  0.26539734  0.23457294  1  -0.088813  0  -0.041236  -0.124245  0  4.174813  0
C  C107  1  0.46928288  0.23464247  0.26533485  1  -0.39877  0  -0.04189  -0.125667  0  4.175921  0
C  C108  1  0.39810410  0.19905034  0.30093214  1  0.119901  0  0.003861  0.077845  0  4.093694  0
C  C109  1  0.36180500  0.23444689  0.31317100  1  0.050684  0  -0.003565  -0.086121  0  3.940923  0
C  C110  1  0.29185328  0.19933426  0.34630799  1  -0.090135  0  -0.055872  -0.080922  0  3.903211  0
C  C111  1  0.25664265  0.12832433  0.37168477  1  0.030563  0  -0.006543  -0.024624  0  3.956356  0
C  C112  1  0.29184576  0.09251889  0.36184371  1  -0.008353  0  -0.055791  -0.080915  0  3.90366  0
C  C113  1  0.36179457  0.12735275  0.32500760  1  -0.010931  0  -0.003664  -0.086024  0  3.941328  0
C  C114  1  0.25660188  0.62828059  0.87168115  1  0.050363  0  -0.006208  -0.02417  0  3.959511  0
C  C115  1  0.29180313  0.63121740  0.90891253  1  0.096794  0  -0.056279  -0.081388  0  3.904575  0
C  C116  1  0.36174764  0.66429785  0.87487439  1  -0.124387  0  -0.003563  -0.086076  0  3.941385  0
C  C117  1  0.39805210  0.69901101  0.80095535  1  0.11506  0  0.003111  0.077061  0  4.092307  0
C  C118  1  0.36173176  0.69739912  0.76334991  1  -0.003151  0  -0.003423  -0.085956  0  3.941019  0
C  C119  1  0.29178579  0.66053951  0.79925577  1  -0.031398  0  -0.056368  -0.081607  0  3.904848  0
C  C120  1  0.46922159  0.73460531  0.76537722  1  -0.088355  0  -0.04127  -0.124213  0  4.174868  0
C  C121  1  0.53072126  0.76535315  0.73464236  1  -0.399959  0  -0.04186  -0.125552  0  4.176361  0
C  C122  1  0.60189843  0.80093478  0.69906357  1  0.119739  0  0.004006  0.077923  0  4.093884  0
C  C123  1  0.63820690  0.81315560  0.73446718  1  0.050839  0  -0.003765  -0.086238  0  3.941574  0
C  C124  1  0.70815612  0.84628223  0.69935035  1  -0.090385  0  -0.055831  -0.081092  0  3.903445  0
C  C125  1  0.74336221  0.87165996  0.62833996  1  0.030855  0  -0.006363  -0.02449  0  3.956189  0
C  C126  1  0.70815629  0.86183598  0.59252648  1  -0.008934  0  -0.055874  -0.080959  0  3.903698  0
C  C127  1  0.63820611  0.82501102  0.62735839  1  -0.010152  0  -0.003788  -0.086248  0  3.941177  0
C  C128  1  0.10049413  0.68474313  0.20964964  1  1.559816  0  0.231181  0.565145  0  4.132534  0
C  C129  1  0.89949143  0.70961581  0.18472691  1  1.560545  0  0.231039  0.564805  0  4.133089  0
C  C130  1  0.08293285  0.76817662  0.33755445  1  1.566745  0  0.231439  0.566778  0  4.13188  0
C  C131  1  0.91696781  0.83743566  0.26826690  1  1.569906  0  0.231532  0.567092  0  4.131897  0
C  C132  1  0.89949410  0.18987367  0.91575803  1  1.562049  0  0.230937  0.564307  0  4.133327  0
C  C133  1  0.10051950  0.41574630  0.68988793  1  1.561285  0  0.230926  0.564508  0  4.132976  0
C  C134  1  0.91698537  0.07952104  0.81476778  1  1.541439  0  0.231542  0.566639  0  4.131261  0
C  C135  1  0.08297006  0.31474989  0.57954136  1  1.542375  0  0.231308  0.566115  0  4.131258  0
C  C136  1  0.60571852  0.18525097  0.23171666  1  1.556215  0  0.231448  0.566653  0  4.131712  0
C  C137  1  0.60571099  0.42046970  0.16249179  1  1.558137  0  0.231375  0.566083  0  4.131852  0
C  C138  1  0.39436273  0.08424851  0.31522504  1  1.559699  0  0.230687  0.563948  0  4.132938  0
C  C139  1  0.39438043  0.31012784  0.29036618  1  1.563919  0  0.23122  0.564807  0  4.132612  0
C  C140  1  0.39427261  0.73173142  0.68522932  1  1.556135  0  0.231608  0.566711  0  4.131846  0
C  C141  1  0.39429579  0.66250850  0.92045802  1  1.558684  0  0.231325  0.566267  0  4.131368  0
C  C142  1  0.60562949  0.81523639  0.58425149  1  1.559032  0  0.230795  0.564031  0  4.133462  0
C  C143  1  0.60564599  0.79035698  0.81014272  1  1.561909  0  0.231056  0.564462  0  4.132912  0
O  O144  1  0.99999979  0.99999992  0.50000114  1  -1.232687  0  -0.573115  -1.031779  0  2.550778  0
O  O145  1  0.15276060  0.02553156  0.43330125  1  -1.165934  0  -0.308427  -0.538503  0  2.334641  0
O  O146  1  0.04054187  0.15629258  0.38353717  1  -1.175358  0  -0.308723  -0.55132  0  2.375022  0
O  O147  1  0.96067789  0.93564264  0.41161198  1  -1.162917  0  -0.308305  -0.537327  0  2.3357  0
O  O148  1  0.15276212  0.12724069  0.41396187  1  -1.163551  0  -0.308543  -0.538467  0  2.334086  0
O  O149  1  0.03927915  0.91158189  0.43568289  1  -1.163027  0  -0.308725  -0.53761  0  2.33538  0
O  O150  1  0.95943122  0.07592055  0.38424929  1  -1.177814  0  -0.308713  -0.551133  0  2.375005  0
O  O151  1  0.84724248  0.93329854  0.52554708  1  -1.165909  0  -0.308534  -0.53856  0  2.334744  0
O  O152  1  0.95949720  0.88356004  0.65629752  1  -1.174284  0  -0.30874  -0.551437  0  2.374985  0
O  O153  1  0.84724585  0.91389906  0.62727531  1  -1.164975  0  -0.308741  -0.538601  0  2.334324  0
O  O154  1  0.04059143  0.88427772  0.57591926  1  -1.177607  0  -0.308822  -0.551459  0  2.375053  0
O  O155  1  0.03930134  0.12770282  0.52505126  1  -1.176104  0  -0.308522  -0.537565  0  2.335544  0
O  O156  1  0.96070097  0.02504252  0.62770878  1  -1.176102  0  -0.308561  -0.537497  0  2.335457  0
O  O157  1  0.00000213  0.49999895  0.00000553  1  -1.232872  0  -0.573091  -1.031816  0  2.550812  0
O  O158  1  0.95884319  0.58606016  0.06669057  1  -1.163782  0  -0.308535  -0.538242  0  2.334083  0
O  O159  1  0.03983910  0.42408440  0.11649030  1  -1.17594  0  -0.308724  -0.551181  0  2.3751  0
O  O160  1  0.84725522  0.37229804  0.08839239  1  -1.163644  0  -0.308396  -0.537679  0  2.336153  0
O  O161  1  0.04121309  0.56672199  0.08604417  1  -1.16482  0  -0.3085  -0.538239  0  2.333865  0
O  O162  1  0.84725773  0.47495999  0.06432490  1  -1.163583  0  -0.308702  -0.537958  0  2.336005  0
O  O163  1  0.96018401  0.34371095  0.11575107  1  -1.176827  0  -0.308792  -0.55131  0  2.374916  0
O  O164  1  0.95881307  0.37275136  0.97448976  1  -1.172679  0  -0.30846  -0.538079  0  2.33399  0
O  O165  1  0.03981057  0.61573570  0.84369518  1  -1.176797  0  -0.308724  -0.551353  0  2.374831  0
O  O166  1  0.04115236  0.47447060  0.87277115  1  -1.171938  0  -0.308411  -0.538067  0  2.334239  0
O  O167  1  0.96015944  0.61646531  0.92407289  1  -1.175945  0  -0.308772  -0.551236  0  2.374921  0
O  O168  1  0.15275485  0.56432977  0.97494354  1  -1.162946  0  -0.308785  -0.538106  0  2.335892  0
O  O169  1  0.15274030  0.58839702  0.87228064  1  -1.164202  0  -0.308375  -0.537724  0  2.336349  0
O  O170  1  0.91300155  0.79977207  0.78720975  1  -1.130755  0  -0.350284  -0.407961  0  2.275085  0
O  O171  1  0.08694797  0.70016542  0.71278631  1  -1.126074  0  -0.350655  -0.408402  0  2.274943  0
O  O172  1  0.91303386  0.70024763  0.88677199  1  -1.120049  0  -0.350438  -0.408081  0  2.274945  0
O  O173  1  0.08705349  0.79983135  0.61321919  1  -1.121296  0  -0.350617  -0.408313  0  2.274885  0
O  O174  1  0.91297261  0.11323621  0.29978990  1  -1.12178  0  -0.350458  -0.407845  0  2.275257  0
O  O175  1  0.08697032  0.38677100  0.20027811  1  -1.120849  0  -0.350544  -0.408104  0  2.275062  0
O  O176  1  0.91305300  0.21280506  0.20015758  1  -1.125112  0  -0.35065  -0.40844  0  2.275457  0
O  O177  1  0.08702510  0.28720073  0.29977658  1  -1.144589  0  -0.350444  -0.40831  0  2.275641  0
O  O178  1  0.13753145  0.74965565  0.19481228  1  -1.100276  0  -0.325554  -0.449593  0  2.224536  0
O  O179  1  0.11155127  0.63746265  0.23775842  1  -1.08628  0  -0.261019  -0.412871  0  2.022143  0
O  O180  1  0.86244667  0.69476697  0.24964187  1  -1.099495  0  -0.325345  -0.449115  0  2.224624  0
O  O181  1  0.88843664  0.73772417  0.13744105  1  -1.086218  0  -0.261088  -0.412835  0  2.022444  0
O  O182  1  0.05530582  0.70090267  0.35474496  1  -1.101377  0  -0.325507  -0.449217  0  2.224667  0
O  O183  1  0.13978792  0.79824403  0.32673447  1  -1.083438  0  -0.262234  -0.415311  0  2.022936  0
O  O184  1  0.94462444  0.85465925  0.20098011  1  -1.101684  0  -0.32521  -0.449091  0  2.224047  0
O  O185  1  0.86011106  0.82660883  0.29831935  1  -1.085363  0  -0.26233  -0.415451  0  2.023207  0
O  O186  1  0.86244465  0.16767925  0.88788346  1  -1.09851  0  -0.32519  -0.449039  0  2.22521  0
O  O187  1  0.88845172  0.15070830  0.97409095  1  -1.086908  0  -0.260989  -0.412817  0  2.022493  0
O  O188  1  0.13755111  0.38786165  0.66770409  1  -1.09907  0  -0.325228  -0.448954  0  2.225109  0
O  O189  1  0.11158387  0.47408414  0.65071747  1  -1.085478  0  -0.261083  -0.412974  0  2.022694  0
O  O190  1  0.94462750  0.08994235  0.85441473  1  -1.105323  0  -0.325165  -0.448845  0  2.224203  0
O  O191  1  0.86012557  0.03350341  0.84154815  1  -1.089204  0  -0.262309  -0.41552  0  2.022813  0
O  O192  1  0.05532396  0.35438633  0.58997499  1  -1.106002  0  -0.325351  -0.449041  0  2.224405  0
O  O193  1  0.13982497  0.34154596  0.53351206  1  -1.089236  0  -0.262154  -0.415259  0  2.022686  0
O  O194  1  0.55566247  0.14561893  0.29900801  1  -1.089726  0  -0.325365  -0.4492  0  2.223635  0
O  O195  1  0.62494357  0.15845263  0.20166004  1  -1.078904  0  -0.262092  -0.415398  0  2.023759  0
O  O196  1  0.55562753  0.41004201  0.14529234  1  -1.099124  0  -0.325403  -0.449117  0  2.224423  0
O  O197  1  0.62494907  0.46648605  0.17333397  1  -1.075151  0  -0.262169  -0.415274  0  2.023219  0
O  O198  1  0.44442572  0.11212769  0.25030625  1  -1.104697  0  -0.325113  -0.448685  0  2.224886  0
O  O199  1  0.37519359  0.02590872  0.36250284  1  -1.090131  0  -0.260992  -0.412878  0  2.022651  0
O  O200  1  0.44445540  0.33232249  0.30521398  1  -1.0941  0  -0.325662  -0.45001  0  2.224982  0
O  O201  1  0.37521222  0.34929407  0.26224558  1  -1.085642  0  -0.260967  -0.412959  0  2.022642  0
O  O202  1  0.44434015  0.79901459  0.64558917  1  -1.091511  0  -0.325244  -0.449145  0  2.223686  0
O  O203  1  0.37503441  0.70166616  0.65843797  1  -1.079436  0  -0.262178  -0.415411  0  2.023541  0
O  O204  1  0.44436487  0.64529311  0.91003335  1  -1.100059  0  -0.325428  -0.44928  0  2.224056  0
O  O205  1  0.37506481  0.67334185  0.96648250  1  -1.074984  0  -0.262101  -0.415361  0  2.023082  0
O  O206  1  0.55556132  0.75031934  0.61212522  1  -1.104609  0  -0.325132  -0.448778  0  2.225237  0
O  O207  1  0.62479146  0.86251566  0.52591746  1  -1.089854  0  -0.260913  -0.41274  0  2.023134  0
O  O208  1  0.55557484  0.80519988  0.83233968  1  -1.091034  0  -0.325381  -0.449867  0  2.224702  0
O  O209  1  0.62482031  0.76224397  0.84930766  1  -1.085415  0  -0.261015  -0.412818  0  2.022559  0
