# generated using pymatgen
data_CdH8C8BrN5
_symmetry_space_group_name_H-M   'P 1'
_cell_length_a   7.62592823
_cell_length_b   7.50579888
_cell_length_c   10.37904294
_cell_angle_alpha   73.34606216
_cell_angle_beta   79.83780358
_cell_angle_gamma   83.18386751
_symmetry_Int_Tables_number   1
_chemical_formula_structural   CdH8C8BrN5
_chemical_formula_sum   'Cd2 H16 C16 Br2 N10'
_cell_volume   558.77047861
_cell_formula_units_Z   2
loop_
 _symmetry_equiv_pos_site_id
 _symmetry_equiv_pos_as_xyz
  1  'x, y, z'
loop_
 _atom_site_type_symbol
 _atom_site_label
 _atom_site_symmetry_multiplicity
 _atom_site_fract_x
 _atom_site_fract_y
 _atom_site_fract_z
 _atom_site_occupancy
 _atom_site_hle17_bader_spin_density
 _atom_site_hle17_ddec_charge
 _atom_site_hle17_ddec_spin_density
 _atom_site_hle17_ddec_sum_bond_order
 _atom_site_hle17_magmom
 _atom_site_hse06_10hf_bader_spin_density
 _atom_site_hse06_10hf_ddec_charge
 _atom_site_hse06_10hf_ddec_spin_density
 _atom_site_hse06_10hf_ddec_sum_bond_order
 _atom_site_hse06_10hf_magmom
 _atom_site_hse06_bader_spin_density
 _atom_site_hse06_ddec_charge
 _atom_site_hse06_ddec_spin_density
 _atom_site_hse06_ddec_sum_bond_order
 _atom_site_hse06_magmom
 _atom_site_pbe_bader_spin_density
 _atom_site_pbe_cm5_charge
 _atom_site_pbe_ddec_charge
 _atom_site_pbe_ddec_spin_density
 _atom_site_pbe_ddec_sum_bond_order
 _atom_site_pbe_magmom
Cd  Cd0  1  0.31060556  0.42559520  0.16607470  1  0  0.993049  0  1.92904  0  0  0.823017  0  2.394901  0  0  0.869947  0  2.35406  0  0  0.679179  0.790352  0  2.422298  0
Cd  Cd1  1  0.68938752  0.57440347  0.83392591  1  0  0.993054  0  1.929014  0  0  0.823006  0  2.3949  0  0  0.86994  0  2.354056  0  0  0.679185  0.790341  0  2.422296  0
H  H2  1  0.03518442  0.22759882  0.11691061  1  0  0.284187  0  0.912893  0  0  0.276323  0  0.969906  0  0  0.281913  0  0.966406  0  0  0.277412  0.272142  0  0.972758  0
H  H3  1  0.96481320  0.77239155  0.88309320  1  0  0.284198  0  0.912961  0  0  0.276341  0  0.969949  0  0  0.281932  0  0.966443  0  0  0.277412  0.272158  0  0.972802  0
H  H4  1  0.20941035  0.20970414  0.00166565  1  0  0.282198  0  0.947102  0  0  0.268143  0  1.01241  0  0  0.273833  0  1.009227  0  0  0.281621  0.264004  0  1.014763  0
H  H5  1  0.79058799  0.79029461  0.99833628  1  0  0.28217  0  0.947124  0  0  0.268063  0  1.012481  0  0  0.273751  0  1.009303  0  0  0.28158  0.263923  0  1.014837  0
H  H6  1  0.34421187  0.29210905  0.48811729  1  0  0.078544  0  0.945039  0  0  0.087637  0  1.008868  0  0  0.089584  0  1.007381  0  0  0.111787  0.086081  0  1.010228  0
H  H7  1  0.65578607  0.70789659  0.51187934  1  0  0.078543  0  0.945085  0  0  0.087587  0  1.008972  0  0  0.089533  0  1.007487  0  0  0.111786  0.086032  0  1.010332  0
H  H8  1  0.28371745  0.01432147  0.69147805  1  0  0.103271  0  0.980513  0  0  0.106518  0  1.053009  0  0  0.109708  0  1.052395  0  0  0.092154  0.104137  0  1.053767  0
H  H9  1  0.71628443  0.98568290  0.30852323  1  0  0.103272  0  0.980514  0  0  0.10651  0  1.05302  0  0  0.1097  0  1.052405  0  0  0.092156  0.104134  0  1.053778  0
H  H10  1  0.18340036  0.72932012  0.65471394  1  0  0.081825  0  0.970236  0  0  0.092011  0  1.034327  0  0  0.093522  0  1.033813  0  0  0.096558  0.090981  0  1.03447  0
H  H11  1  0.81661262  0.27067871  0.34528631  1  0  0.081843  0  0.970175  0  0  0.092022  0  1.034277  0  0  0.093533  0  1.033766  0  0  0.096552  0.09099  0  1.034423  0
H  H12  1  0.15101958  0.72866160  0.41779293  1  0  0.117973  0  0.954774  0  0  0.126603  0  1.017034  0  0  0.129421  0  1.016552  0  0  0.105907  0.124579  0  1.017519  0
H  H13  1  0.84898391  0.27133861  0.58221003  1  0  0.117971  0  0.954751  0  0  0.126616  0  1.016993  0  0  0.129436  0  1.016503  0  0  0.105892  0.124592  0  1.017482  0
H  H14  1  0.35772682  0.97219418  0.13911664  1  0  0.081543  0  0.917009  0  0  0.098698  0  0.979106  0  0  0.099184  0  0.978846  0  0  0.105288  0.098415  0  0.979103  0
H  H15  1  0.64227674  0.02780599  0.86088438  1  0  0.081423  0  0.917103  0  0  0.098666  0  0.979154  0  0  0.09915  0  0.978899  0  0  0.10527  0.098382  0  0.979152  0
H  H16  1  0.13631159  0.90762130  0.18519618  1  0  0.071935  0  0.938505  0  0  0.089266  0  0.999607  0  0  0.089572  0  0.999855  0  0  0.099903  0.089011  0  0.999561  0
H  H17  1  0.86369515  0.09237192  0.81480599  1  0  0.071894  0  0.938499  0  0  0.089268  0  0.999594  0  0  0.089586  0  0.999828  0  0  0.099909  0.089014  0  0.999545  0
C  C18  1  0.30107518  0.16323663  0.47904505  1  0  0.132624  0  3.720131  0  0  0.102113  0  3.971932  0  0  0.108799  0  3.99169  0  0  0.042978  0.097793  0  3.958566  0
C  C19  1  0.69892418  0.83676631  0.52095586  1  0  0.132568  0  3.720105  0  0  0.102083  0  3.971915  0  0  0.108769  0  3.991673  0  0  0.042967  0.097761  0  3.958551  0
C  C20  1  0.26724465  0.00983976  0.59042719  1  0  -0.128496  0  3.74594  0  0  -0.143458  0  4.003272  0  0  -0.151064  0  4.025991  0  0  -0.093298  -0.138457  0  3.98793  0
C  C21  1  0.73275958  0.99017014  0.40956974  1  0  -0.128362  0  3.745846  0  0  -0.143301  0  4.003139  0  0  -0.150904  0  4.025855  0  0  -0.093246  -0.138305  0  3.987802  0
C  C22  1  0.21246290  0.85102673  0.56911363  1  0  0.004603  0  3.729941  0  0  -0.01324  0  3.978757  0  0  -0.009892  0  3.998869  0  0  -0.071765  -0.015018  0  3.964419  0
C  C23  1  0.78754336  0.14897210  0.43088931  1  0  0.004533  0  3.730167  0  0  -0.013318  0  3.97901  0  0  -0.009972  0  3.999121  0  0  -0.07177  -0.015095  0  3.964673  0
C  C24  1  0.19395209  0.84991360  0.43829120  1  0  -0.154228  0  3.697575  0  0  -0.170875  0  3.941845  0  0  -0.178887  0  3.964675  0  0  -0.082765  -0.165474  0  3.926081  0
C  C25  1  0.80605405  0.15008796  0.56170827  1  0  -0.154242  0  3.697633  0  0  -0.170904  0  3.9419  0  0  -0.178914  0  3.964734  0  0  -0.082748  -0.165504  0  3.926136  0
C  C26  1  0.23246215  0.00898396  0.33112907  1  0  0.23277  0  3.70367  0  0  0.236959  0  3.943701  0  0  0.244136  0  3.965591  0  0  0.120249  0.232288  0  3.928733  0
C  C27  1  0.76753759  0.99101342  0.66887396  1  0  0.232661  0  3.703544  0  0  0.236886  0  3.943607  0  0  0.244062  0  3.965503  0  0  0.120198  0.232218  0  3.928632  0
C  C28  1  0.22358321  0.01378087  0.18568286  1  0  0.006458  0  3.673347  0  0  -0.056533  0  3.932466  0  0  -0.052465  0  3.942948  0  0  -0.070898  -0.059375  0  3.925037  0
C  C29  1  0.77641915  0.98621788  0.81431764  1  0  0.006729  0  3.673225  0  0  -0.056441  0  3.932494  0  0  -0.052382  0  3.942971  0  0  -0.070867  -0.05928  0  3.92505  0
C  C30  1  0.59089049  0.62685751  0.25715635  1  0  0.496682  0  3.973761  0  0  0.456255  0  4.259579  0  0  0.48206  0  4.270649  0  0  0.304162  0.438648  0  4.251788  0
C  C31  1  0.40911586  0.37314260  0.74284052  1  0  0.496658  0  3.973842  0  0  0.456206  0  4.259657  0  0  0.482004  0  4.270726  0  0  0.304198  0.438606  0  4.251866  0
C  C32  1  0.89363684  0.62033341  0.24276583  1  0  0.494303  0  3.968931  0  0  0.455416  0  4.253905  0  0  0.481272  0  4.263435  0  0  0.306161  0.437589  0  4.247682  0
C  C33  1  0.10636942  0.37966941  0.75722660  1  0  0.494091  0  3.96914  0  0  0.45518  0  4.254143  0  0  0.481041  0  4.263685  0  0  0.306019  0.437353  0  4.247907  0
Br  Br34  1  0.32645302  0.71141963  0.93524395  1  0  -0.570333  0  0.9261  0  0  -0.507562  0  1.210518  0  0  -0.527799  0  1.189554  0  0  -0.274545  -0.493187  0  1.224529  0
Br  Br35  1  0.67353999  0.28857909  0.06475858  1  0  -0.570323  0  0.926081  0  0  -0.507551  0  1.210498  0  0  -0.527794  0  1.189546  0  0  -0.274542  -0.493177  0  1.224508  0
N  N36  1  0.28438968  0.16153424  0.35276664  1  0  -0.365029  0  3.262974  0  0  -0.290027  0  3.515936  0  0  -0.310687  0  3.53677  0  0  -0.333756  -0.276042  0  3.501536  0
N  N37  1  0.71561251  0.83846728  0.64723233  1  0  -0.365  0  3.263094  0  0  -0.289977  0  3.516003  0  0  -0.310634  0  3.53683  0  0  -0.333726  -0.276004  0  3.501635  0
N  N38  1  0.17131663  0.20112710  0.10290515  1  0  -0.621247  0  3.11718  0  0  -0.565661  0  3.357423  0  0  -0.585311  0  3.357863  0  0  -0.624539  -0.551599  0  3.356958  0
N  N39  1  0.82868198  0.79886882  0.89709543  1  0  -0.621262  0  3.117256  0  0  -0.565616  0  3.357655  0  0  -0.585266  0  3.358103  0  0  -0.624496  -0.551552  0  3.357193  0
N  N40  1  0.44719505  0.57007879  0.29004476  1  0  -0.584194  0  2.805428  0  0  -0.538712  0  3.081185  0  0  -0.560606  0  3.087537  0  0  -0.385374  -0.523714  0  3.076697  0
N  N41  1  0.55279251  0.42990451  0.70995978  1  0  -0.583995  0  2.805885  0  0  -0.538518  0  3.081649  0  0  -0.560402  0  3.087997  0  0  -0.385355  -0.523527  0  3.077161  0
N  N42  1  0.74071129  0.70514981  0.21531663  1  0  -0.461888  0  3.298794  0  0  -0.401331  0  3.552952  0  0  -0.424209  0  3.555634  0  0  -0.305677  -0.385501  0  3.550932  0
N  N43  1  0.25927207  0.29485571  0.78467974  1  0  -0.461894  0  3.29898  0  0  -0.401295  0  3.553143  0  0  -0.424173  0  3.555829  0  0  -0.305682  -0.385477  0  3.551129  0
N  N44  1  0.03928488  0.55832423  0.26154513  1  0  -0.576552  0  2.785884  0  0  -0.531555  0  3.061191  0  0  -0.552023  0  3.065039  0  0  -0.380742  -0.517639  0  3.058772  0
N  N45  1  0.96070214  0.44168951  0.73844039  1  0  -0.576523  0  2.785488  0  0  -0.531521  0  3.060806  0  0  -0.552002  0  3.064666  0  0  -0.38069  -0.517598  0  3.058376  0
