# generated using pymatgen
data_ZnH19C12N2ClO3
_symmetry_space_group_name_H-M   'P 1'
_cell_length_a   7.25415050
_cell_length_b   9.74805125
_cell_length_c   9.34938268
_cell_angle_alpha   89.99964710
_cell_angle_beta   93.92806293
_cell_angle_gamma   89.99930963
_symmetry_Int_Tables_number   1
_chemical_formula_structural   ZnH19C12N2ClO3
_chemical_formula_sum   'Zn2 H38 C24 N4 Cl2 O6'
_cell_volume   659.57756770
_cell_formula_units_Z   2
loop_
 _symmetry_equiv_pos_site_id
 _symmetry_equiv_pos_as_xyz
  1  'x, y, z'
loop_
 _atom_site_type_symbol
 _atom_site_label
 _atom_site_symmetry_multiplicity
 _atom_site_fract_x
 _atom_site_fract_y
 _atom_site_fract_z
 _atom_site_occupancy
 _atom_site_hle17_bader_spin_density
 _atom_site_hle17_ddec_charge
 _atom_site_hle17_ddec_spin_density
 _atom_site_hle17_ddec_sum_bond_order
 _atom_site_hle17_magmom
 _atom_site_hse06_10hf_bader_spin_density
 _atom_site_hse06_10hf_ddec_charge
 _atom_site_hse06_10hf_ddec_spin_density
 _atom_site_hse06_10hf_ddec_sum_bond_order
 _atom_site_hse06_10hf_magmom
 _atom_site_hse06_bader_spin_density
 _atom_site_hse06_ddec_charge
 _atom_site_hse06_ddec_spin_density
 _atom_site_hse06_ddec_sum_bond_order
 _atom_site_hse06_magmom
 _atom_site_pbe_bader_spin_density
 _atom_site_pbe_cm5_charge
 _atom_site_pbe_ddec_charge
 _atom_site_pbe_ddec_spin_density
 _atom_site_pbe_ddec_sum_bond_order
 _atom_site_pbe_magmom
Zn  Zn0  1  0.82652577  0.86198467  0.52126719  1  0  0.93392  0  1.95738  0  0  0.745212  0  2.438837  0  0  0.790698  0  2.387022  0  0  0.616909  0.714147  0  2.473684  0
Zn  Zn1  1  0.17348885  0.36198352  0.47873204  1  0  0.933935  0  1.957369  0  0  0.745287  0  2.438826  0  0  0.790763  0  2.387008  0  0  0.616956  0.714224  0  2.473676  0
H  H2  1  0.15475592  0.64732619  0.58432335  1  0  0.363457  0  0.922279  0  0  0.335195  0  1.000748  0  0  0.346805  0  0.987662  0  0  0.30626  0.32719  0  1.009471  0
H  H3  1  0.84525336  0.14731927  0.41566882  1  0  0.363452  0  0.922231  0  0  0.335227  0  1.000641  0  0  0.346832  0  0.987561  0  0  0.306307  0.327222  0  1.009361  0
H  H4  1  0.50930683  0.26387659  0.53046826  1  0  0.27476  0  0.878256  0  0  0.267399  0  0.928739  0  0  0.273027  0  0.925334  0  0  0.304968  0.263443  0  0.931144  0
H  H5  1  0.49069720  0.76387699  0.46952479  1  0  0.274883  0  0.878201  0  0  0.267445  0  0.928795  0  0  0.273076  0  0.925385  0  0  0.304968  0.263491  0  0.931194  0
H  H6  1  0.45428425  0.45525575  0.97039351  1  0  0.098578  0  0.943585  0  0  0.11485  0  1.005624  0  0  0.116315  0  1.005438  0  0  0.102706  0.113766  0  1.005831  0
H  H7  1  0.54569841  0.95526973  0.02961649  1  0  0.098654  0  0.943328  0  0  0.114921  0  1.005417  0  0  0.1164  0  1.005221  0  0  0.102685  0.113836  0  1.005625  0
H  H8  1  0.43723478  0.61194800  0.87326969  1  0  0.108541  0  0.947647  0  0  0.121075  0  1.012284  0  0  0.123428  0  1.010951  0  0  0.106264  0.119365  0  1.01335  0
H  H9  1  0.56273324  0.11196127  0.12674038  1  0  0.108453  0  0.947759  0  0  0.121064  0  1.012334  0  0  0.123426  0  1.011003  0  0  0.106267  0.119348  0  1.013407  0
H  H10  1  0.74257503  0.59119070  0.79412276  1  0  0.077575  0  0.970248  0  0  0.08673  0  1.035848  0  0  0.08825  0  1.036155  0  0  0.08908  0.08468  0  1.037301  0
H  H11  1  0.25739441  0.09118719  0.20587867  1  0  0.077536  0  0.970176  0  0  0.086728  0  1.035809  0  0  0.088249  0  1.036113  0  0  0.089082  0.084669  0  1.03726  0
H  H12  1  0.85866898  0.36035640  0.71709756  1  0  0.076478  0  0.970147  0  0  0.086749  0  1.035158  0  0  0.088641  0  1.034898  0  0  0.090514  0.084858  0  1.036071  0
H  H13  1  0.14131403  0.86034344  0.28289808  1  0  0.076463  0  0.97008  0  0  0.086705  0  1.035132  0  0  0.08861  0  1.034856  0  0  0.090535  0.084812  0  1.036044  0
H  H14  1  0.61433916  0.20699289  0.91178334  1  0  0.084217  0  0.962652  0  0  0.10286  0  1.023753  0  0  0.103282  0  1.025124  0  0  0.095578  0.102587  0  1.022729  0
H  H15  1  0.38566364  0.70699129  0.08821511  1  0  0.084264  0  0.962701  0  0  0.102886  0  1.023804  0  0  0.103317  0  1.02516  0  0  0.095565  0.102601  0  1.022797  0
H  H16  1  0.67650653  0.15443759  0.74416105  1  0  0.096384  0  0.948146  0  0  0.110193  0  1.012672  0  0  0.112045  0  1.011602  0  0  0.090196  0.107934  0  1.015015  0
H  H17  1  0.32350233  0.65443327  0.25583076  1  0  0.096394  0  0.948181  0  0  0.110207  0  1.012671  0  0  0.112061  0  1.011598  0  0  0.090184  0.107946  0  1.015012  0
H  H18  1  0.03207637  0.57320756  0.03076387  1  0  0.104115  0  0.945896  0  0  0.130922  0  0.99907  0  0  0.131804  0  0.999972  0  0  0.087156  0.130263  0  0.998445  0
H  H19  1  0.96791917  0.07320109  0.96923145  1  0  0.104069  0  0.94606  0  0  0.130853  0  0.99927  0  0  0.131733  0  1.000172  0  0  0.08713  0.130191  0  0.998638  0
H  H20  1  0.13009622  0.41509617  0.98646322  1  0  0.097211  0  0.989913  0  0  0.11742  0  1.055512  0  0  0.118222  0  1.056491  0  0  0.076647  0.116762  0  1.054923  0
H  H21  1  0.86988781  0.91509837  0.01352924  1  0  0.097181  0  0.989857  0  0  0.117343  0  1.055539  0  0  0.118139  0  1.056526  0  0  0.076564  0.116682  0  1.054955  0
H  H22  1  0.05482169  0.53237132  0.84742081  1  0  0.100184  0  0.97553  0  0  0.118297  0  1.04261  0  0  0.119751  0  1.042769  0  0  0.085649  0.117188  0  1.042575  0
H  H23  1  0.94515727  0.03237178  0.15257261  1  0  0.100126  0  0.975564  0  0  0.11823  0  1.042663  0  0  0.119704  0  1.042801  0  0  0.085647  0.117121  0  1.042623  0
H  H24  1  0.63912260  0.34976474  0.09887545  1  0  0.092966  0  0.984063  0  0  0.109569  0  1.057051  0  0  0.111134  0  1.056175  0  0  0.078584  0.108247  0  1.057859  0
H  H25  1  0.36087185  0.84976266  0.90112341  1  0  0.092949  0  0.98411  0  0  0.109563  0  1.057079  0  0  0.111129  0  1.056198  0  0  0.078588  0.108239  0  1.057894  0
H  H26  1  0.85032101  0.41582151  0.17586554  1  0  0.105205  0  0.969186  0  0  0.127498  0  1.030531  0  0  0.128339  0  1.031462  0  0  0.085008  0.126236  0  1.030848  0
H  H27  1  0.14967052  0.91582050  0.82413232  1  0  0.105172  0  0.9692  0  0  0.127434  0  1.030585  0  0  0.128278  0  1.03151  0  0  0.084963  0.126188  0  1.030892  0
H  H28  1  0.84660835  0.25481263  0.09290815  1  0  0.104339  0  0.972617  0  0  0.124821  0  1.038596  0  0  0.126162  0  1.038566  0  0  0.087315  0.123724  0  1.03873  0
H  H29  1  0.15339348  0.75481016  0.90708495  1  0  0.104301  0  0.972578  0  0  0.124778  0  1.03857  0  0  0.126118  0  1.038539  0  0  0.087321  0.123687  0  1.038706  0
H  H30  1  0.29721876  0.24211624  0.93686969  1  0  0.122409  0  0.949183  0  0  0.144083  0  1.00832  0  0  0.145567  0  1.00849  0  0  0.097747  0.142496  0  1.009134  0
H  H31  1  0.70278623  0.74211788  0.06311794  1  0  0.122398  0  0.948982  0  0  0.144118  0  1.008085  0  0  0.1456  0  1.008251  0  0  0.09777  0.14253  0  1.008904  0
H  H32  1  0.31542934  0.09384404  0.83119716  1  0  0.124544  0  0.963893  0  0  0.147848  0  1.02013  0  0  0.148831  0  1.021524  0  0  0.099222  0.147019  0  1.019258  0
H  H33  1  0.68458108  0.59384978  0.16879307  1  0  0.124566  0  0.964008  0  0  0.147839  0  1.020264  0  0  0.14883  0  1.021668  0  0  0.099251  0.14701  0  1.019391  0
H  H34  1  0.14327199  0.21989918  0.78258549  1  0  0.119394  0  0.946473  0  0  0.139059  0  1.008286  0  0  0.140625  0  1.008407  0  0  0.095222  0.13803  0  1.007969  0
H  H35  1  0.85672782  0.71990042  0.21740012  1  0  0.119431  0  0.946457  0  0  0.139093  0  1.008288  0  0  0.14065  0  1.008415  0  0  0.095218  0.138062  0  1.007971  0
H  H36  1  0.41696872  0.01914864  0.62915028  1  0  0.103423  0  0.952094  0  0  0.111318  0  1.023706  0  0  0.114012  0  1.021816  0  0  0.103075  0.109265  0  1.025467  0
H  H37  1  0.58306604  0.51915327  0.37085961  1  0  0.1035  0  0.952077  0  0  0.111355  0  1.023652  0  0  0.114036  0  1.021769  0  0  0.103139  0.109302  0  1.025412  0
H  H38  1  0.40493734  0.06880180  0.44776114  1  0  0.110464  0  0.937031  0  0  0.123721  0  1.001454  0  0  0.125102  0  1.001837  0  0  0.120432  0.122861  0  1.001005  0
H  H39  1  0.59507046  0.56881022  0.55224698  1  0  0.110428  0  0.937083  0  0  0.1237  0  1.001411  0  0  0.125073  0  1.00179  0  0  0.120434  0.122835  0  1.000963  0
C  C40  1  0.14413616  0.06671388  0.53264064  1  0  0.693831  0  3.80013  0  0  0.640002  0  4.101687  0  0  0.673448  0  4.095648  0  0  0.226144  0.617268  0  4.106097  0
C  C41  1  0.85586678  0.56670858  0.46738084  1  0  0.693982  0  3.7997  0  0  0.63994  0  4.101457  0  0  0.67339  0  4.095411  0  0  0.22617  0.617199  0  4.105863  0
C  C42  1  0.42620062  0.27733944  0.73743359  1  0  0.22102  0  3.53593  0  0  0.231644  0  3.771439  0  0  0.233451  0  3.788687  0  0  0.083621  0.230252  0  3.759499  0
C  C43  1  0.57380381  0.77733953  0.26256867  1  0  0.220841  0  3.536126  0  0  0.231407  0  3.771547  0  0  0.233211  0  3.788792  0  0  0.083603  0.230023  0  3.759593  0
C  C44  1  0.39100553  0.43111984  0.74673463  1  0  0.207509  0  3.588855  0  0  0.192749  0  3.850586  0  0  0.206484  0  3.863279  0  0  0.145324  0.183544  0  3.841811  0
C  C45  1  0.60897412  0.93111599  0.25325220  1  0  0.207431  0  3.588545  0  0  0.192892  0  3.850025  0  0  0.206659  0  3.86269  0  0  0.145296  0.183682  0  3.841244  0
C  C46  1  0.48649693  0.50603786  0.86983137  1  0  -0.184444  0  3.697782  0  0  -0.227144  0  3.937608  0  0  -0.229797  0  3.947791  0  0  -0.15295  -0.225036  0  3.930268  0
C  C47  1  0.51348376  0.00604650  0.13017957  1  0  -0.184392  0  3.697979  0  0  -0.227229  0  3.937906  0  0  -0.229926  0  3.948126  0  0  -0.152866  -0.225123  0  3.93056  0
C  C48  1  0.69169930  0.50041204  0.84734172  1  0  -0.102668  0  3.629423  0  0  -0.113031  0  3.878063  0  0  -0.116204  0  3.896249  0  0  -0.10638  -0.110697  0  3.86644  0
C  C49  1  0.30828413  0.00041058  0.15266340  1  0  -0.102475  0  3.62946  0  0  -0.113047  0  3.878221  0  0  -0.11621  0  3.896412  0  0  -0.106396  -0.110703  0  3.866587  0
C  C50  1  0.76365486  0.36111626  0.80250869  1  0  -0.10816  0  3.612726  0  0  -0.121544  0  3.863663  0  0  -0.124304  0  3.880875  0  0  -0.113934  -0.119023  0  3.851872  0
C  C51  1  0.23634439  0.86111517  0.19749043  1  0  -0.108017  0  3.612705  0  0  -0.121433  0  3.863576  0  0  -0.124199  0  3.88078  0  0  -0.113915  -0.118914  0  3.851781  0
C  C52  1  0.62602517  0.24362625  0.80175159  1  0  -0.188259  0  3.609524  0  0  -0.231559  0  3.84404  0  0  -0.233016  0  3.857439  0  0  -0.162209  -0.229987  0  3.8351  0
C  C53  1  0.37398093  0.74361872  0.19824585  1  0  -0.188418  0  3.609563  0  0  -0.23165  0  3.843958  0  0  -0.233111  0  3.857364  0  0  -0.162251  -0.230072  0  3.835017  0
C  C54  1  0.83340187  0.42525073  0.94472552  1  0  0.165265  0  3.644937  0  0  0.202469  0  3.872949  0  0  0.202708  0  3.895111  0  0  -0.023562  0.202281  0  3.857302  0
C  C55  1  0.16658584  0.92524737  0.05527462  1  0  0.164925  0  3.645194  0  0  0.202509  0  3.87271  0  0  0.202747  0  3.894871  0  0  -0.023624  0.202311  0  3.857079  0
C  C56  1  0.02326002  0.48963805  0.95150622  1  0  -0.336041  0  3.69922  0  0  -0.420881  0  3.936264  0  0  -0.423963  0  3.948053  0  0  -0.247714  -0.41842  0  3.927781  0
C  C57  1  0.97672590  0.98963963  0.04848669  1  0  -0.335805  0  3.699276  0  0  -0.42069  0  3.93625  0  0  -0.423786  0  3.948033  0  0  -0.247614  -0.418225  0  3.92777  0
C  C58  1  0.78763524  0.35839589  0.08401683  1  0  -0.343888  0  3.712594  0  0  -0.428395  0  3.948862  0  0  -0.430666  0  3.959111  0  0  -0.248314  -0.425958  0  3.941904  0
C  C59  1  0.21236349  0.85839650  0.91597801  1  0  -0.343738  0  3.712595  0  0  -0.428305  0  3.94879  0  0  -0.43058  0  3.959043  0  0  -0.248267  -0.425875  0  3.941804  0
C  C60  1  0.28587098  0.20389449  0.82634014  1  0  -0.356852  0  3.613685  0  0  -0.440925  0  3.847748  0  0  -0.444332  0  3.857813  0  0  -0.239017  -0.438044  0  3.840728  0
C  C61  1  0.71414349  0.70389871  0.17364833  1  0  -0.356797  0  3.613476  0  0  -0.440901  0  3.847541  0  0  -0.444309  0  3.857635  0  0  -0.239038  -0.438017  0  3.840522  0
C  C62  1  0.35164411  0.09273403  0.55211906  1  0  -0.136537  0  3.659247  0  0  -0.194709  0  3.918411  0  0  -0.196125  0  3.926305  0  0  -0.075146  -0.193947  0  3.912838  0
C  C63  1  0.64837751  0.59274088  0.44788907  1  0  -0.136676  0  3.659339  0  0  -0.194597  0  3.918211  0  0  -0.195966  0  3.926035  0  0  -0.0752  -0.193861  0  3.912721  0
N  N64  1  0.39613020  0.23671641  0.58365379  1  0  -0.449423  0  3.244509  0  0  -0.38335  0  3.493901  0  0  -0.400967  0  3.50423  0  0  -0.472814  -0.370366  0  3.485933  0
N  N65  1  0.60387871  0.73671863  0.41633788  1  0  -0.449349  0  3.244581  0  0  -0.383288  0  3.493918  0  0  -0.400913  0  3.504236  0  0  -0.472785  -0.37031  0  3.485935  0
N  N66  1  0.28813989  0.48702518  0.64502507  1  0  -0.205154  0  3.21958  0  0  -0.153437  0  3.529644  0  0  -0.165705  0  3.53689  0  0  -0.255796  -0.145473  0  3.52416  0
N  N67  1  0.71187634  0.98702171  0.35498112  1  0  -0.20509  0  3.218395  0  0  -0.153429  0  3.5284  0  0  -0.165706  0  3.535643  0  0  -0.255768  -0.145457  0  3.522912  0
Cl  Cl68  1  0.71184423  0.87305724  0.73766075  1  0  -0.572761  0  0.905712  0  0  -0.506282  0  1.172878  0  0  -0.521795  0  1.149552  0  0  -0.300359  -0.494858  0  1.190909  0
Cl  Cl69  1  0.28816203  0.37305896  0.26233354  1  0  -0.572805  0  0.905678  0  0  -0.506329  0  1.172839  0  0  -0.521846  0  1.149519  0  0  -0.300384  -0.494895  0  1.190861  0
O  O70  1  0.09159949  0.94312056  0.53575704  1  0  -0.595743  0  2.045816  0  0  -0.524697  0  2.308885  0  0  -0.551351  0  2.295143  0  0  -0.30631  -0.507203  0  2.319091  0
O  O71  1  0.90841216  0.44312314  0.46426967  1  0  -0.595638  0  2.04561  0  0  -0.524671  0  2.308933  0  0  -0.551293  0  2.29512  0  0  -0.306343  -0.507178  0  2.319152  0
O  O72  1  0.03727899  0.17021659  0.50875469  1  0  -0.619258  0  2.089315  0  0  -0.540908  0  2.337207  0  0  -0.568712  0  2.323963  0  0  -0.301624  -0.521705  0  2.345404  0
O  O73  1  0.96274160  0.67021135  0.49124470  1  0  -0.619472  0  2.089067  0  0  -0.540947  0  2.336916  0  0  -0.568804  0  2.323736  0  0  -0.301615  -0.521729  0  2.345102  0
O  O74  1  0.26362684  0.62794770  0.65507055  1  0  -0.386625  0  2.037994  0  0  -0.344898  0  2.262865  0  0  -0.361268  0  2.256775  0  0  -0.267526  -0.332754  0  2.266559  0
O  O75  1  0.73638205  0.12794744  0.34492344  1  0  -0.386637  0  2.037629  0  0  -0.34493  0  2.262514  0  0  -0.361307  0  2.256436  0  0  -0.267544  -0.332786  0  2.266212  0
