# generated using pymatgen
data_Sn2H18C12O5
_symmetry_space_group_name_H-M   'P 1'
_cell_length_a   8.40199654
_cell_length_b   12.96379129
_cell_length_c   14.93649908
_cell_angle_alpha   89.99968574
_cell_angle_beta   90.00034396
_cell_angle_gamma   96.64152143
_symmetry_Int_Tables_number   1
_chemical_formula_structural   Sn2H18C12O5
_chemical_formula_sum   'Sn8 H72 C48 O20'
_cell_volume   1615.99146887
_cell_formula_units_Z   4
loop_
 _symmetry_equiv_pos_site_id
 _symmetry_equiv_pos_as_xyz
  1  'x, y, z'
loop_
 _atom_site_type_symbol
 _atom_site_label
 _atom_site_symmetry_multiplicity
 _atom_site_fract_x
 _atom_site_fract_y
 _atom_site_fract_z
 _atom_site_occupancy
 _atom_site_hle17_bader_spin_density
 _atom_site_hle17_ddec_charge
 _atom_site_hle17_ddec_spin_density
 _atom_site_hle17_ddec_sum_bond_order
 _atom_site_hle17_magmom
 _atom_site_hse06_10hf_bader_spin_density
 _atom_site_hse06_10hf_ddec_charge
 _atom_site_hse06_10hf_ddec_spin_density
 _atom_site_hse06_10hf_ddec_sum_bond_order
 _atom_site_hse06_10hf_magmom
 _atom_site_hse06_bader_spin_density
 _atom_site_hse06_ddec_charge
 _atom_site_hse06_ddec_spin_density
 _atom_site_hse06_ddec_sum_bond_order
 _atom_site_hse06_magmom
 _atom_site_pbe_bader_spin_density
 _atom_site_pbe_cm5_charge
 _atom_site_pbe_ddec_charge
 _atom_site_pbe_ddec_spin_density
 _atom_site_pbe_ddec_sum_bond_order
 _atom_site_pbe_magmom
Sn  Sn0  1  0.37793506  0.01288770  0.79020251  1  0  1.543074  0  2.889971  0  0  1.382134  0  3.398896  0  0  1.435882  0  3.366731  0  0  0.618881  1.344941  0  3.420481  0
Sn  Sn1  1  0.37795545  0.51288800  0.70980365  1  0  1.543063  0  2.889996  0  0  1.382029  0  3.399069  0  0  1.435771  0  3.366911  0  0  0.618886  1.34495  0  3.420444  0
Sn  Sn2  1  0.62205174  0.98711265  0.20980090  1  0  1.54305  0  2.889927  0  0  1.382053  0  3.398917  0  0  1.435798  0  3.366747  0  0  0.618915  1.344914  0  3.420411  0
Sn  Sn3  1  0.62204750  0.48710983  0.29019843  1  0  1.543094  0  2.889961  0  0  1.38207  0  3.399019  0  0  1.435819  0  3.366844  0  0  0.618928  1.344996  0  3.420393  0
Sn  Sn4  1  0.33941817  0.41204442  0.48767881  1  0  1.556523  0  2.937065  0  0  1.402947  0  3.434598  0  0  1.45276  0  3.404671  0  0  0.619481  1.368477  0  3.454845  0
Sn  Sn5  1  0.33942137  0.91204679  0.01232260  1  0  1.556501  0  2.937149  0  0  1.402947  0  3.434664  0  0  1.452751  0  3.404747  0  0  0.619504  1.368486  0  3.454881  0
Sn  Sn6  1  0.66057631  0.58795273  0.51231858  1  0  1.556463  0  2.937209  0  0  1.402869  0  3.434763  0  0  1.45268  0  3.404841  0  0  0.619476  1.3684  0  3.455  0
Sn  Sn7  1  0.66057493  0.08795345  0.98767880  1  0  1.556415  0  2.937169  0  0  1.402837  0  3.434707  0  0  1.452645  0  3.404785  0  0  0.619476  1.368368  0  3.454928  0
H  H8  1  0.81038114  0.26658699  0.81441113  1  0  0.104971  0  0.97385  0  0  0.115021  0  1.041438  0  0  0.118245  0  1.039101  0  0  0.105206  0.112725  0  1.04313  0
H  H9  1  0.81039116  0.76658443  0.68559195  1  0  0.104976  0  0.973915  0  0  0.11503  0  1.041492  0  0  0.118256  0  1.039155  0  0  0.105193  0.112735  0  1.043183  0
H  H10  1  0.18962759  0.73341001  0.18559430  1  0  0.104997  0  0.973861  0  0  0.115015  0  1.041477  0  0  0.11824  0  1.039139  0  0  0.10518  0.112721  0  1.043171  0
H  H11  1  0.18960910  0.23341188  0.31440745  1  0  0.104955  0  0.973902  0  0  0.11502  0  1.041477  0  0  0.118246  0  1.039136  0  0  0.105185  0.112728  0  1.043168  0
H  H12  1  0.02721311  0.27688739  0.50511307  1  0  0.078871  0  1.001637  0  0  0.091034  0  1.066828  0  0  0.093687  0  1.065914  0  0  0.095225  0.089141  0  1.067622  0
H  H13  1  0.02722003  0.77688237  0.99488731  1  0  0.078906  0  1.001709  0  0  0.091065  0  1.066907  0  0  0.093718  0  1.065994  0  0  0.095213  0.089171  0  1.067699  0
H  H14  1  0.97278367  0.72311518  0.49488967  1  0  0.07891  0  1.001731  0  0  0.091056  0  1.066958  0  0  0.093711  0  1.066045  0  0  0.09523  0.089162  0  1.067743  0
H  H15  1  0.97277445  0.22311478  0.00511208  1  0  0.07897  0  1.001689  0  0  0.091113  0  1.066905  0  0  0.093767  0  1.06599  0  0  0.095256  0.08922  0  1.067685  0
H  H16  1  0.77214895  0.16506395  0.54114847  1  0  0.099859  0  0.946489  0  0  0.109541  0  1.007565  0  0  0.113434  0  1.004179  0  0  0.102213  0.106741  0  1.009993  0
H  H17  1  0.77215861  0.66505676  0.95885026  1  0  0.09988  0  0.946538  0  0  0.109581  0  1.007585  0  0  0.113473  0  1.004203  0  0  0.102241  0.106782  0  1.010012  0
H  H18  1  0.22785622  0.83493308  0.45885561  1  0  0.099861  0  0.946492  0  0  0.109547  0  1.007553  0  0  0.11344  0  1.00417  0  0  0.102246  0.106746  0  1.009976  0
H  H19  1  0.22783690  0.33493960  0.04114779  1  0  0.099835  0  0.946506  0  0  0.109546  0  1.007554  0  0  0.11344  0  1.004168  0  0  0.102203  0.106742  0  1.009974  0
H  H20  1  0.09705786  0.47093528  0.90676978  1  0  0.100592  0  0.913873  0  0  0.123428  0  0.966391  0  0  0.123808  0  0.966475  0  0  0.114356  0.123067  0  0.966404  0
H  H21  1  0.09705575  0.97093648  0.59323127  1  0  0.100599  0  0.913832  0  0  0.123418  0  0.966369  0  0  0.123797  0  0.966457  0  0  0.114357  0.123058  0  0.966379  0
H  H22  1  0.90294232  0.52906648  0.09323029  1  0  0.10058  0  0.913829  0  0  0.123418  0  0.966342  0  0  0.123797  0  0.966427  0  0  0.114362  0.123056  0  0.966353  0
H  H23  1  0.90294340  0.02906607  0.40677147  1  0  0.100611  0  0.913842  0  0  0.123443  0  0.96636  0  0  0.123822  0  0.966447  0  0  0.114355  0.123081  0  0.966367  0
H  H24  1  0.89825476  0.44342660  0.86185102  1  0  0.089542  0  0.92513  0  0  0.107299  0  0.987732  0  0  0.107942  0  0.987341  0  0  0.103742  0.106799  0  0.988014  0
H  H25  1  0.89825411  0.94342676  0.63815084  1  0  0.089527  0  0.925122  0  0  0.107282  0  0.987728  0  0  0.107927  0  0.987336  0  0  0.10373  0.106781  0  0.98801  0
H  H26  1  0.10174970  0.55657278  0.13814569  1  0  0.089495  0  0.925091  0  0  0.107232  0  0.987724  0  0  0.107874  0  0.987335  0  0  0.103741  0.106733  0  0.988004  0
H  H27  1  0.10174592  0.05657423  0.36184989  1  0  0.089545  0  0.925108  0  0  0.1073  0  0.987712  0  0  0.107943  0  0.987321  0  0  0.103729  0.1068  0  0.987992  0
H  H28  1  0.99610969  0.34166405  0.91213430  1  0  0.074864  0  0.964454  0  0  0.09302  0  1.031049  0  0  0.093199  0  1.03097  0  0  0.09628  0.092808  0  1.031186  0
H  H29  1  0.99610990  0.84166526  0.58786704  1  0  0.0749  0  0.964385  0  0  0.093057  0  1.03098  0  0  0.093235  0  1.030901  0  0  0.096305  0.092844  0  1.031118  0
H  H30  1  0.00388930  0.65833772  0.08786778  1  0  0.074849  0  0.964456  0  0  0.093003  0  1.031057  0  0  0.093182  0  1.030976  0  0  0.096285  0.092792  0  1.031193  0
H  H31  1  0.00388957  0.15833884  0.41213302  1  0  0.074863  0  0.964488  0  0  0.093014  0  1.031087  0  0  0.093192  0  1.031009  0  0  0.096272  0.092802  0  1.031225  0
H  H32  1  0.43869122  0.81468551  0.77330855  1  0  0.167354  0  0.980457  0  0  0.184585  0  1.037404  0  0  0.187464  0  1.038416  0  0  0.092542  0.182498  0  1.03681  0
H  H33  1  0.43868930  0.31467991  0.72668769  1  0  0.167298  0  0.98044  0  0  0.184568  0  1.037346  0  0  0.187428  0  1.038385  0  0  0.092516  0.182477  0  1.036757  0
H  H34  1  0.56130856  0.18532014  0.22668616  1  0  0.167308  0  0.980414  0  0  0.18456  0  1.037356  0  0  0.187426  0  1.038388  0  0  0.092534  0.182472  0  1.036766  0
H  H35  1  0.56131334  0.68531638  0.27330702  1  0  0.167332  0  0.980447  0  0  0.184595  0  1.037354  0  0  0.187476  0  1.038366  0  0  0.09255  0.182504  0  1.036764  0
H  H36  1  0.60156558  0.90083112  0.72747794  1  0  0.158401  0  0.983773  0  0  0.176872  0  1.041055  0  0  0.179194  0  1.042705  0  0  0.089379  0.175195  0  1.039987  0
H  H37  1  0.60156877  0.40081898  0.77252246  1  0  0.158421  0  0.983769  0  0  0.176912  0  1.041018  0  0  0.179236  0  1.042663  0  0  0.089399  0.175231  0  1.03996  0
H  H38  1  0.39842922  0.09917926  0.27252146  1  0  0.158447  0  0.983743  0  0  0.176921  0  1.04101  0  0  0.179242  0  1.04266  0  0  0.089397  0.175244  0  1.039947  0
H  H39  1  0.39843830  0.59917571  0.22747292  1  0  0.158377  0  0.983745  0  0  0.176858  0  1.041017  0  0  0.17918  0  1.042668  0  0  0.089399  0.175177  0  1.039958  0
H  H40  1  0.42120790  0.87064563  0.66399562  1  0  0.163132  0  0.979706  0  0  0.182465  0  1.03252  0  0  0.185557  0  1.03261  0  0  0.092887  0.180238  0  1.032569  0
H  H41  1  0.42120640  0.37063630  0.83600230  1  0  0.163065  0  0.979766  0  0  0.182434  0  1.032533  0  0  0.185521  0  1.032628  0  0  0.092878  0.180209  0  1.032583  0
H  H42  1  0.57879149  0.12936392  0.33600243  1  0  0.163072  0  0.979762  0  0  0.182439  0  1.03253  0  0  0.185526  0  1.032628  0  0  0.092892  0.180223  0  1.03257  0
H  H43  1  0.57879766  0.62935530  0.16399375  1  0  0.16313  0  0.979701  0  0  0.182474  0  1.032492  0  0  0.185561  0  1.032591  0  0  0.092894  0.180249  0  1.032543  0
H  H44  1  0.23126328  0.17914170  0.82912866  1  0  0.163845  0  0.965955  0  0  0.184997  0  1.015886  0  0  0.187949  0  1.016454  0  0  0.093027  0.182879  0  1.015588  0
H  H45  1  0.23126358  0.67913310  0.67086751  1  0  0.163889  0  0.965897  0  0  0.185054  0  1.015789  0  0  0.18801  0  1.016349  0  0  0.09303  0.182925  0  1.015509  0
H  H46  1  0.76873936  0.82086626  0.17086939  1  0  0.163869  0  0.965874  0  0  0.185034  0  1.015772  0  0  0.187988  0  1.016334  0  0  0.093012  0.182903  0  1.015491  0
H  H47  1  0.76872758  0.32085942  0.32913121  1  0  0.163821  0  0.96596  0  0  0.184976  0  1.015885  0  0  0.187928  0  1.016451  0  0  0.093007  0.182856  0  1.015596  0
H  H48  1  0.08706966  0.08365471  0.77826264  1  0  0.163443  0  0.997539  0  0  0.179187  0  1.056962  0  0  0.182253  0  1.05796  0  0  0.089075  0.176979  0  1.056357  0
H  H49  1  0.08707274  0.58363957  0.72173417  1  0  0.163518  0  0.997414  0  0  0.179242  0  1.056869  0  0  0.182309  0  1.057864  0  0  0.08907  0.17703  0  1.056271  0
H  H50  1  0.91293424  0.91635946  0.22173675  1  0  0.163437  0  0.9975  0  0  0.179156  0  1.056967  0  0  0.182223  0  1.057965  0  0  0.089039  0.176947  0  1.056365  0
H  H51  1  0.91292015  0.41634981  0.27826456  1  0  0.163434  0  0.997521  0  0  0.179176  0  1.056945  0  0  0.182242  0  1.057943  0  0  0.089059  0.176966  0  1.056347  0
H  H52  1  0.23087011  0.16141943  0.71019923  1  0  0.16454  0  0.981348  0  0  0.181297  0  1.039166  0  0  0.183733  0  1.041019  0  0  0.091607  0.179531  0  1.037989  0
H  H53  1  0.23086815  0.66141098  0.78979837  1  0  0.164572  0  0.981382  0  0  0.181303  0  1.039224  0  0  0.183737  0  1.041081  0  0  0.091655  0.179535  0  1.038054  0
H  H54  1  0.76913300  0.83859086  0.28979950  1  0  0.164562  0  0.981366  0  0  0.181304  0  1.0392  0  0  0.183737  0  1.04106  0  0  0.091648  0.179537  0  1.038021  0
H  H55  1  0.76912316  0.33858232  0.21020103  1  0  0.164565  0  0.981351  0  0  0.181279  0  1.039215  0  0  0.183714  0  1.041071  0  0  0.09162  0.179512  0  1.038046  0
H  H56  1  0.45660645  0.24092783  0.42934579  1  0  0.167534  0  0.991153  0  0  0.185574  0  1.046574  0  0  0.188609  0  1.047018  0  0  0.09089  0.183394  0  1.046355  0
H  H57  1  0.45660807  0.74092522  0.07065548  1  0  0.167551  0  0.991044  0  0  0.185574  0  1.046497  0  0  0.188606  0  1.046947  0  0  0.090874  0.183392  0  1.046276  0
H  H58  1  0.54339255  0.75907395  0.57065494  1  0  0.16751  0  0.991072  0  0  0.18554  0  1.046521  0  0  0.188574  0  1.046966  0  0  0.090876  0.183357  0  1.046299  0
H  H59  1  0.54339314  0.25907575  0.92934325  1  0  0.167576  0  0.99102  0  0  0.185585  0  1.046493  0  0  0.188619  0  1.046938  0  0  0.090869  0.183396  0  1.046274  0
H  H60  1  0.48293023  0.24912814  0.54862142  1  0  0.178272  0  0.986414  0  0  0.19303  0  1.045751  0  0  0.196246  0  1.046249  0  0  0.092329  0.190695  0  1.045512  0
H  H61  1  0.48293102  0.74913043  0.95137661  1  0  0.178238  0  0.986429  0  0  0.19299  0  1.045775  0  0  0.196206  0  1.046273  0  0  0.092324  0.190658  0  1.045536  0
H  H62  1  0.51706995  0.75087362  0.45137730  1  0  0.178251  0  0.986419  0  0  0.193013  0  1.045752  0  0  0.196228  0  1.046251  0  0  0.092322  0.190682  0  1.04551  0
H  H63  1  0.51706932  0.25087211  0.04862078  1  0  0.178261  0  0.986401  0  0  0.19302  0  1.045735  0  0  0.196236  0  1.046234  0  0  0.09233  0.190685  0  1.045503  0
H  H64  1  0.29266879  0.20179618  0.50366088  1  0  0.156249  0  0.98685  0  0  0.17468  0  1.042611  0  0  0.177122  0  1.0437  0  0  0.086446  0.172919  0  1.041927  0
H  H65  1  0.29266464  0.70179516  0.99633874  1  0  0.15621  0  0.986858  0  0  0.174637  0  1.042628  0  0  0.177081  0  1.043715  0  0  0.086416  0.172876  0  1.041945  0
H  H66  1  0.70733496  0.79820554  0.49633919  1  0  0.156156  0  0.986847  0  0  0.174584  0  1.042628  0  0  0.177027  0  1.043716  0  0  0.086401  0.172821  0  1.041945  0
H  H67  1  0.70733507  0.29820427  0.00365931  1  0  0.156187  0  0.98687  0  0  0.17462  0  1.042636  0  0  0.177064  0  1.043721  0  0  0.086406  0.172859  0  1.041953  0
H  H68  1  0.18331844  0.56264127  0.42015501  1  0  0.1647  0  0.99499  0  0  0.181243  0  1.052871  0  0  0.183393  0  1.055166  0  0  0.089388  0.179658  0  1.051417  0
H  H69  1  0.18331960  0.06264112  0.07984819  1  0  0.164703  0  0.99497  0  0  0.181248  0  1.052849  0  0  0.183399  0  1.05514  0  0  0.089395  0.179664  0  1.051398  0
H  H70  1  0.81668071  0.43736128  0.57984573  1  0  0.164721  0  0.994983  0  0  0.181256  0  1.052871  0  0  0.183405  0  1.055169  0  0  0.089404  0.179671  0  1.051423  0
H  H71  1  0.81668026  0.93735909  0.92015388  1  0  0.164693  0  0.994972  0  0  0.181233  0  1.05286  0  0  0.183383  0  1.055152  0  0  0.089391  0.179649  0  1.051409  0
H  H72  1  0.17090953  0.45558058  0.34358977  1  0  0.164961  0  0.993809  0  0  0.18038  0  1.053439  0  0  0.183342  0  1.054025  0  0  0.089001  0.178255  0  1.053121  0
H  H73  1  0.17091127  0.95557983  0.15641555  1  0  0.164978  0  0.993783  0  0  0.180396  0  1.053402  0  0  0.183357  0  1.053987  0  0  0.089006  0.178271  0  1.053082  0
H  H74  1  0.82908811  0.54442043  0.65641096  1  0  0.164928  0  0.99384  0  0  0.18034  0  1.053484  0  0  0.183302  0  1.054069  0  0  0.088975  0.178215  0  1.053162  0
H  H75  1  0.82908978  0.04442036  0.84358786  1  0  0.164947  0  0.993809  0  0  0.180362  0  1.053443  0  0  0.183324  0  1.054027  0  0  0.089001  0.178236  0  1.053117  0
H  H76  1  0.03935815  0.45184412  0.43885485  1  0  0.165118  0  0.986032  0  0  0.184413  0  1.039939  0  0  0.187034  0  1.041056  0  0  0.090331  0.182535  0  1.039222  0
H  H77  1  0.03935984  0.95184235  0.06115004  1  0  0.165125  0  0.986089  0  0  0.184396  0  1.040045  0  0  0.187022  0  1.041145  0  0  0.09034  0.182516  0  1.039333  0
H  H78  1  0.96063950  0.54815689  0.56114789  1  0  0.165094  0  0.98614  0  0  0.184384  0  1.040057  0  0  0.187007  0  1.041171  0  0  0.090329  0.182506  0  1.039339  0
H  H79  1  0.96063749  0.04815711  0.93885270  1  0  0.165102  0  0.986145  0  0  0.184384  0  1.040075  0  0  0.187005  0  1.041195  0  0  0.090321  0.182505  0  1.039358  0
C  C80  1  0.62602792  0.14185360  0.70103849  1  0  0.613459  0  3.937153  0  0  0.567879  0  4.225678  0  0  0.601894  0  4.218698  0  0  0.204264  0.544822  0  4.229747  0
C  C81  1  0.62603588  0.64184655  0.79896053  1  0  0.613439  0  3.937493  0  0  0.567851  0  4.225985  0  0  0.601867  0  4.219003  0  0  0.204294  0.544792  0  4.230068  0
C  C82  1  0.37398041  0.85814729  0.29896492  1  0  0.613377  0  3.937336  0  0  0.567807  0  4.225854  0  0  0.601821  0  4.218877  0  0  0.20421  0.544749  0  4.229927  0
C  C83  1  0.37396422  0.35814899  0.20103753  1  0  0.613506  0  3.937266  0  0  0.567948  0  4.225719  0  0  0.60196  0  4.218741  0  0  0.204326  0.544889  0  4.229804  0
C  C84  1  0.77686497  0.20846433  0.68002764  1  0  -0.082483  0  3.829483  0  0  -0.065529  0  4.077251  0  0  -0.075315  0  4.10105  0  0  -0.041205  -0.059211  0  4.06119  0
C  C85  1  0.77686988  0.70845874  0.81997091  1  0  -0.082391  0  3.829449  0  0  -0.065408  0  4.077165  0  0  -0.075196  0  4.100964  0  0  -0.04119  -0.05909  0  4.061108  0
C  C86  1  0.22314630  0.79153342  0.31997443  1  0  -0.082431  0  3.82926  0  0  -0.065491  0  4.077033  0  0  -0.075275  0  4.100831  0  0  -0.041221  -0.059176  0  4.060978  0
C  C87  1  0.22312785  0.29153682  0.18002782  1  0  -0.082531  0  3.829551  0  0  -0.065542  0  4.077253  0  0  -0.075326  0  4.10105  0  0  -0.041205  -0.059226  0  4.061202  0
C  C88  1  0.86025061  0.26926935  0.74708954  1  0  -0.18488  0  3.772189  0  0  -0.218793  0  4.028965  0  0  -0.217962  0  4.047207  0  0  -0.106285  -0.219073  0  4.016674  0
C  C89  1  0.86025954  0.76926954  0.75291302  1  0  -0.185035  0  3.77236  0  0  -0.218964  0  4.029127  0  0  -0.218135  0  4.04737  0  0  -0.106353  -0.219241  0  4.016835  0
C  C90  1  0.13975812  0.73072765  0.25291455  1  0  -0.184988  0  3.772177  0  0  -0.218825  0  4.02898  0  0  -0.217989  0  4.047227  0  0  -0.106266  -0.219107  0  4.016698  0
C  C91  1  0.13973747  0.23072836  0.24708704  1  0  -0.184986  0  3.772404  0  0  -0.218934  0  4.029134  0  0  -0.218107  0  4.047377  0  0  -0.106349  -0.219212  0  4.016852  0
C  C92  1  0.00113509  0.33179876  0.72727607  1  0  0.143712  0  3.777114  0  0  0.137848  0  4.034413  0  0  0.142117  0  4.051082  0  0  0.068367  0.134518  0  4.023304  0
C  C93  1  0.00114286  0.83179807  0.77272531  1  0  0.143797  0  3.777171  0  0  0.137925  0  4.034487  0  0  0.142193  0  4.051155  0  0  0.068367  0.134594  0  4.023375  0
C  C94  1  0.99887103  0.66820294  0.27272533  1  0  0.143869  0  3.777029  0  0  0.137911  0  4.034456  0  0  0.142157  0  4.051153  0  0  0.068398  0.13458  0  4.023353  0
C  C95  1  0.99885668  0.16820058  0.22727543  1  0  0.143788  0  3.777148  0  0  0.137986  0  4.034403  0  0  0.142253  0  4.051072  0  0  0.068394  0.134655  0  4.0233  0
C  C96  1  0.06597318  0.33473181  0.63893017  1  0  0.279876  0  3.877807  0  0  0.262496  0  4.134948  0  0  0.276706  0  4.149733  0  0  0.084869  0.252871  0  4.124713  0
C  C97  1  0.06597722  0.83473145  0.86107275  1  0  0.280008  0  3.877927  0  0  0.262546  0  4.135177  0  0  0.276757  0  4.149961  0  0  0.084935  0.252929  0  4.124931  0
C  C98  1  0.93403350  0.66526677  0.36107123  1  0  0.279865  0  3.878061  0  0  0.262493  0  4.13522  0  0  0.276712  0  4.150008  0  0  0.084898  0.252868  0  4.124984  0
C  C99  1  0.93401758  0.16526725  0.13892798  1  0  0.280075  0  3.877827  0  0  0.262519  0  4.135175  0  0  0.27673  0  4.149962  0  0  0.084983  0.252896  0  4.124937  0
C  C100  1  0.98083472  0.27290627  0.57334219  1  0  -0.226431  0  3.82437  0  0  -0.244698  0  4.083083  0  0  -0.252373  0  4.103466  0  0  -0.119379  -0.239662  0  4.069319  0
C  C101  1  0.98084185  0.77290007  0.92665741  1  0  -0.226499  0  3.824444  0  0  -0.24475  0  4.083207  0  0  -0.252426  0  4.103591  0  0  -0.119346  -0.23971  0  4.069436  0
C  C102  1  0.01917093  0.72709310  0.42666055  1  0  -0.22653  0  3.824605  0  0  -0.244793  0  4.083311  0  0  -0.252465  0  4.103685  0  0  -0.1194  -0.239752  0  4.069531  0
C  C103  1  0.01915366  0.22709630  0.07334199  1  0  -0.22662  0  3.824317  0  0  -0.244838  0  4.083101  0  0  -0.252513  0  4.103482  0  0  -0.119428  -0.239794  0  4.069315  0
C  C104  1  0.83819772  0.21140451  0.59289621  1  0  -0.074125  0  3.810227  0  0  -0.102191  0  4.068701  0  0  -0.098616  0  4.086983  0  0  -0.098926  -0.104256  0  4.056119  0
C  C105  1  0.83820759  0.71139527  0.90710454  1  0  -0.07411  0  3.810105  0  0  -0.102201  0  4.068558  0  0  -0.098624  0  4.086838  0  0  -0.098938  -0.104263  0  4.055975  0
C  C106  1  0.16180792  0.78859486  0.40710654  1  0  -0.074117  0  3.810102  0  0  -0.10218  0  4.068577  0  0  -0.098605  0  4.08686  0  0  -0.098971  -0.104241  0  4.055986  0
C  C107  1  0.16178895  0.28860030  0.09289486  1  0  -0.074054  0  3.81009  0  0  -0.102151  0  4.068532  0  0  -0.098577  0  4.086815  0  0  -0.098927  -0.104206  0  4.055936  0
C  C108  1  0.01414194  0.41300910  0.87180308  1  0  -0.071864  0  3.643674  0  0  -0.16609  0  3.901274  0  0  -0.159804  0  3.906586  0  0  -0.131704  -0.17018  0  3.897447  0
C  C109  1  0.01414373  0.91301006  0.62819930  1  0  -0.071879  0  3.64357  0  0  -0.166104  0  3.901189  0  0  -0.159822  0  3.906503  0  0  -0.131748  -0.170195  0  3.897356  0
C  C110  1  0.98585808  0.58699189  0.12819967  1  0  -0.071789  0  3.643652  0  0  -0.165992  0  3.901277  0  0  -0.159705  0  3.906591  0  0  -0.131712  -0.170077  0  3.897444  0
C  C111  1  0.98586002  0.08699166  0.37180344  1  0  -0.071861  0  3.643604  0  0  -0.166106  0  3.901204  0  0  -0.159823  0  3.906515  0  0  -0.131695  -0.17019  0  3.897364  0
C  C112  1  0.47109718  0.88297178  0.73130061  1  0  -0.698861  0  3.499809  0  0  -0.749034  0  3.739476  0  0  -0.764276  0  3.745154  0  0  -0.319545  -0.738569  0  3.735694  0
C  C113  1  0.47109938  0.38296667  0.76869810  1  0  -0.69873  0  3.499875  0  0  -0.74898  0  3.739463  0  0  -0.764197  0  3.74517  0  0  -0.319495  -0.738533  0  3.735693  0
C  C114  1  0.52889873  0.11703237  0.26869745  1  0  -0.698778  0  3.499796  0  0  -0.749011  0  3.739417  0  0  -0.764231  0  3.745122  0  0  -0.319535  -0.738559  0  3.73563  0
C  C115  1  0.52890578  0.61703036  0.23129661  1  0  -0.698802  0  3.499771  0  0  -0.749035  0  3.739472  0  0  -0.764259  0  3.745123  0  0  -0.319571  -0.738586  0  3.735696  0
C  C116  1  0.20940259  0.12241456  0.77481885  1  0  -0.703421  0  3.492927  0  0  -0.750309  0  3.731503  0  0  -0.766223  0  3.737753  0  0  -0.320654  -0.7394  0  3.727335  0
C  C117  1  0.20940136  0.62240724  0.72517685  1  0  -0.703588  0  3.492823  0  0  -0.750432  0  3.731383  0  0  -0.766349  0  3.737629  0  0  -0.320721  -0.739525  0  3.727245  0
C  C118  1  0.79060464  0.87759257  0.22517921  1  0  -0.703456  0  3.492807  0  0  -0.750305  0  3.731338  0  0  -0.766223  0  3.737592  0  0  -0.320655  -0.739383  0  3.727187  0
C  C119  1  0.79059146  0.37758760  0.27482187  1  0  -0.703428  0  3.492902  0  0  -0.750273  0  3.731537  0  0  -0.766188  0  3.737786  0  0  -0.320645  -0.739374  0  3.727386  0
C  C120  1  0.40004674  0.25691231  0.49310491  1  0  -0.720763  0  3.483729  0  0  -0.761533  0  3.712757  0  0  -0.776792  0  3.717514  0  0  -0.323355  -0.750975  0  3.709632  0
C  C121  1  0.40004774  0.75691007  0.00689475  1  0  -0.720709  0  3.483639  0  0  -0.761454  0  3.712697  0  0  -0.77671  0  3.717455  0  0  -0.323304  -0.750897  0  3.709565  0
C  C122  1  0.59995226  0.74308946  0.50689449  1  0  -0.720604  0  3.483616  0  0  -0.76136  0  3.71266  0  0  -0.776619  0  3.71742  0  0  -0.323303  -0.750808  0  3.709525  0
C  C123  1  0.59995228  0.24309092  0.99310397  1  0  -0.72072  0  3.483606  0  0  -0.761466  0  3.712667  0  0  -0.776725  0  3.717423  0  0  -0.323316  -0.750902  0  3.709547  0
C  C124  1  0.15942994  0.47811662  0.41367573  1  0  -0.72545  0  3.486837  0  0  -0.76869  0  3.719797  0  0  -0.783975  0  3.725577  0  0  -0.328065  -0.75817  0  3.715958  0
C  C125  1  0.15942966  0.97811551  0.08632945  1  0  -0.725453  0  3.486856  0  0  -0.768699  0  3.71984  0  0  -0.783976  0  3.725626  0  0  -0.328093  -0.758179  0  3.715997  0
C  C126  1  0.84057024  0.52188514  0.58632634  1  0  -0.725397  0  3.48697  0  0  -0.76861  0  3.719892  0  0  -0.783893  0  3.725673  0  0  -0.328051  -0.758092  0  3.716052  0
C  C127  1  0.84056767  0.02188395  0.91367330  1  0  -0.725391  0  3.48694  0  0  -0.768614  0  3.719896  0  0  -0.783897  0  3.72568  0  0  -0.328062  -0.758092  0  3.716049  0
O  O128  1  0.53640767  0.09931120  0.64100697  1  0  -0.614802  0  1.901663  0  0  -0.562382  0  2.107447  0  0  -0.585282  0  2.099711  0  0  -0.311778  -0.54655  0  2.112324  0
O  O129  1  0.53641921  0.59930689  0.85898793  1  0  -0.614793  0  1.901937  0  0  -0.562375  0  2.107729  0  0  -0.585272  0  2.099993  0  0  -0.311793  -0.546555  0  2.112609  0
O  O130  1  0.46359441  0.90068820  0.35899377  1  0  -0.614745  0  1.901967  0  0  -0.562331  0  2.107751  0  0  -0.585231  0  2.100018  0  0  -0.311748  -0.546505  0  2.112628  0
O  O131  1  0.46357749  0.40068947  0.14101012  1  0  -0.614816  0  1.901921  0  0  -0.562399  0  2.107698  0  0  -0.585299  0  2.099966  0  0  -0.311781  -0.546577  0  2.112573  0
O  O132  1  0.59086227  0.12827528  0.78611998  1  0  -0.664606  0  2.058533  0  0  -0.588388  0  2.297139  0  0  -0.617006  0  2.291101  0  0  -0.292679  -0.568497  0  2.300637  0
O  O133  1  0.59086227  0.62826878  0.71387631  1  0  -0.6646  0  2.058794  0  0  -0.588321  0  2.297356  0  0  -0.616941  0  2.29132  0  0  -0.292605  -0.56844  0  2.300857  0
O  O134  1  0.40914536  0.87172796  0.21388075  1  0  -0.664591  0  2.05862  0  0  -0.588339  0  2.297195  0  0  -0.61696  0  2.291162  0  0  -0.292592  -0.568452  0  2.300696  0
O  O135  1  0.40913221  0.37172837  0.28612175  1  0  -0.664554  0  2.058612  0  0  -0.588335  0  2.297225  0  0  -0.616955  0  2.291187  0  0  -0.292653  -0.568456  0  2.30073  0
O  O136  1  0.08823973  0.39502080  0.78804600  1  0  -0.264869  0  2.421259  0  0  -0.18112  0  2.654112  0  0  -0.199712  0  2.660333  0  0  -0.17885  -0.167971  0  2.649399  0
O  O137  1  0.08824352  0.89502127  0.71195604  1  0  -0.264947  0  2.421347  0  0  -0.181158  0  2.654174  0  0  -0.199749  0  2.660394  0  0  -0.178818  -0.167998  0  2.649457  0
O  O138  1  0.91176979  0.60498008  0.21195741  1  0  -0.264888  0  2.421391  0  0  -0.181124  0  2.654296  0  0  -0.199712  0  2.660525  0  0  -0.178851  -0.167977  0  2.649584  0
O  O139  1  0.91175516  0.10497895  0.28804536  1  0  -0.264961  0  2.421265  0  0  -0.181163  0  2.654058  0  0  -0.199752  0  2.660276  0  0  -0.178836  -0.168007  0  2.649343  0
O  O140  1  0.19968260  0.39631000  0.62018021  1  0  -0.6586  0  2.177798  0  0  -0.569143  0  2.418541  0  0  -0.59846  0  2.416928  0  0  -0.286706  -0.548311  0  2.418697  0
O  O141  1  0.19968453  0.89631579  0.87982154  1  0  -0.658598  0  2.177972  0  0  -0.569111  0  2.418738  0  0  -0.598427  0  2.417123  0  0  -0.286651  -0.548274  0  2.418898  0
O  O142  1  0.80032066  0.60368939  0.37981785  1  0  -0.658616  0  2.177966  0  0  -0.569134  0  2.41869  0  0  -0.598452  0  2.417077  0  0  -0.28671  -0.548302  0  2.418845  0
O  O143  1  0.80030955  0.10368526  0.12017920  1  0  -0.658608  0  2.177987  0  0  -0.569093  0  2.418788  0  0  -0.598412  0  2.417179  0  0  -0.286693  -0.54825  0  2.418939  0
O  O144  1  0.45159584  0.01569116  0.92172073  1  0  -0.971761  0  1.849361  0  0  -0.853489  0  2.118901  0  0  -0.885796  0  2.101518  0  0  -0.440767  -0.830927  0  2.130055  0
O  O145  1  0.45160213  0.51568768  0.57827897  1  0  -0.971763  0  1.849303  0  0  -0.853476  0  2.118845  0  0  -0.88578  0  2.101461  0  0  -0.440755  -0.830923  0  2.12999  0
O  O146  1  0.54839571  0.98430914  0.07827800  1  0  -0.971739  0  1.849332  0  0  -0.853418  0  2.118838  0  0  -0.885715  0  2.101443  0  0  -0.440764  -0.830869  0  2.130003  0
O  O147  1  0.54839908  0.48431329  0.42172177  1  0  -0.971804  0  1.849324  0  0  -0.853458  0  2.118801  0  0  -0.885765  0  2.101423  0  0  -0.440791  -0.830911  0  2.129951  0
