# generated using pymatgen
data_DyH11C12(N3O4)2
_symmetry_space_group_name_H-M   'P 1'
_cell_length_a   6.27096366
_cell_length_b   12.40335401
_cell_length_c   13.37208150
_cell_angle_alpha   59.89202907
_cell_angle_beta   84.99755971
_cell_angle_gamma   83.46628536
_symmetry_Int_Tables_number   1
_chemical_formula_structural   DyH11C12(N3O4)2
_chemical_formula_sum   'Dy2 H22 C24 N12 O16'
_cell_volume   893.37293419
_cell_formula_units_Z   2
loop_
 _symmetry_equiv_pos_site_id
 _symmetry_equiv_pos_as_xyz
  1  'x, y, z'
loop_
 _atom_site_type_symbol
 _atom_site_label
 _atom_site_symmetry_multiplicity
 _atom_site_fract_x
 _atom_site_fract_y
 _atom_site_fract_z
 _atom_site_occupancy
 _atom_site_hle17_bader_spin_density
 _atom_site_hle17_ddec_charge
 _atom_site_hle17_ddec_spin_density
 _atom_site_hle17_ddec_sum_bond_order
 _atom_site_hle17_magmom
 _atom_site_hse06_10hf_bader_spin_density
 _atom_site_hse06_10hf_ddec_charge
 _atom_site_hse06_10hf_ddec_spin_density
 _atom_site_hse06_10hf_ddec_sum_bond_order
 _atom_site_hse06_10hf_magmom
 _atom_site_hse06_bader_spin_density
 _atom_site_hse06_ddec_charge
 _atom_site_hse06_ddec_spin_density
 _atom_site_hse06_ddec_sum_bond_order
 _atom_site_hse06_magmom
 _atom_site_pbe_bader_spin_density
 _atom_site_pbe_cm5_charge
 _atom_site_pbe_ddec_charge
 _atom_site_pbe_ddec_spin_density
 _atom_site_pbe_ddec_sum_bond_order
 _atom_site_pbe_magmom
Dy  Dy0  1  0.45118574  0.14078970  0.25673375  1  0  2.17205  0  1.610505  0  0  2.009357  0  2.095969  0  0  2.058719  0  2.055616  0  0  1.493286  1.972264  0  2.127368  0
Dy  Dy1  1  0.54881947  0.85921267  0.74326595  1  0  2.17205  0  1.6105  0  0  2.009293  0  2.095997  0  0  2.058656  0  2.055649  0  0  1.493287  1.972296  0  2.127262  0
H  H2  1  0.71012068  0.75476428  0.26616278  1  0  0.10784  0  0.934829  0  0  0.117666  0  0.99427  0  0  0.121665  0  0.991289  0  0  0.104251  0.114754  0  0.996592  0
H  H3  1  0.28987613  0.24523906  0.73383243  1  0  0.107782  0  0.93498  0  0  0.117631  0  0.994381  0  0  0.121627  0  0.991404  0  0  0.10425  0.114735  0  0.996679  0
H  H4  1  0.72945434  0.49107415  0.69930738  1  0  0.102909  0  0.948551  0  0  0.112828  0  1.012845  0  0  0.116635  0  1.009327  0  0  0.102802  0.110106  0  1.015391  0
H  H5  1  0.27053206  0.50893361  0.30068792  1  0  0.102855  0  0.948626  0  0  0.112848  0  1.012857  0  0  0.116656  0  1.009339  0  0  0.102836  0.11012  0  1.015408  0
H  H6  1  0.81392866  0.28328746  0.46029836  1  0  0.091682  0  0.920125  0  0  0.10204  0  0.978015  0  0  0.104502  0  0.975113  0  0  0.134913  0.100179  0  0.980168  0
H  H7  1  0.18606591  0.71671270  0.53970585  1  0  0.091709  0  0.920105  0  0  0.102064  0  0.977992  0  0  0.104527  0  0.975088  0  0  0.134933  0.1002  0  0.980149  0
H  H8  1  0.78205610  0.50638472  0.28856569  1  0  0.285871  0  0.959887  0  0  0.259379  0  1.035071  0  0  0.268666  0  1.027452  0  0  0.301616  0.252857  0  1.040386  0
H  H9  1  0.21794832  0.49361382  0.71143723  1  0  0.285818  0  0.95995  0  0  0.259359  0  1.035079  0  0  0.268647  0  1.027459  0  0  0.301628  0.252838  0  1.040392  0
H  H10  1  0.89319585  0.37660978  0.90513706  1  0  0.303197  0  0.885331  0  0  0.284798  0  0.94655  0  0  0.293024  0  0.940018  0  0  0.338481  0.27893  0  0.951369  0
H  H11  1  0.10680629  0.62339244  0.09486511  1  0  0.303293  0  0.885262  0  0  0.28493  0  0.946459  0  0  0.293158  0  0.939918  0  0  0.338545  0.279061  0  0.951279  0
H  H12  1  0.64257084  0.41584399  0.98757238  1  0  0.318678  0  0.907716  0  0  0.303293  0  0.972743  0  0  0.30928  0  0.968277  0  0  0.306601  0.299039  0  0.975932  0
H  H13  1  0.35743212  0.58416202  0.01242733  1  0  0.318679  0  0.907808  0  0  0.3033  0  0.97282  0  0  0.309287  0  0.968355  0  0  0.306612  0.299048  0  0.975984  0
H  H14  1  0.57947317  0.52212240  0.84476527  1  0  0.356026  0  0.919167  0  0  0.334986  0  0.987842  0  0  0.343875  0  0.979392  0  0  0.296989  0.328693  0  0.99374  0
H  H15  1  0.42053306  0.47787443  0.15523532  1  0  0.356057  0  0.919104  0  0  0.335018  0  0.987788  0  0  0.343909  0  0.979336  0  0  0.296969  0.328723  0  0.993686  0
H  H16  1  0.67760510  0.09759600  0.46467632  1  0  0.465862  0  0.817492  0  0  0.43647  0  0.876629  0  0  0.447574  0  0.860349  0  0  0.313334  0.428607  0  0.888132  0
H  H17  1  0.32240483  0.90240730  0.53532497  1  0  0.465809  0  0.817581  0  0  0.436464  0  0.876624  0  0  0.447558  0  0.860363  0  0  0.313386  0.428607  0  0.888126  0
H  H18  1  0.86089767  0.10934843  0.36519653  1  0  0.45865  0  0.819074  0  0  0.432553  0  0.87176  0  0  0.443386  0  0.855824  0  0  0.317435  0.424846  0  0.883101  0
H  H19  1  0.13911709  0.89065494  0.63480524  1  0  0.458698  0  0.819014  0  0  0.432569  0  0.871745  0  0  0.443398  0  0.855817  0  0  0.317463  0.424868  0  0.883079  0
H  H20  1  0.50663949  0.98442454  0.16229598  1  0  0.435454  0  0.842736  0  0  0.413105  0  0.894512  0  0  0.422766  0  0.880368  0  0  0.314904  0.406285  0  0.904527  0
H  H21  1  0.49336600  0.01557761  0.83770904  1  0  0.435534  0  0.842592  0  0  0.413205  0  0.894362  0  0  0.42287  0  0.880209  0  0  0.314967  0.406386  0  0.904376  0
H  H22  1  0.25767965  0.98137854  0.18230698  1  0  0.449565  0  0.794064  0  0  0.433926  0  0.843084  0  0  0.44229  0  0.83103  0  0  0.338287  0.427967  0  0.851713  0
H  H23  1  0.74232491  0.01862751  0.81769264  1  0  0.449523  0  0.794082  0  0  0.433878  0  0.843133  0  0  0.44224  0  0.831084  0  0  0.33828  0.427923  0  0.851754  0
C  C24  1  0.68360764  0.75233185  0.42945075  1  0  -0.046236  0  3.702629  0  0  -0.037397  0  3.946744  0  0  -0.041809  0  3.968371  0  0  -0.011772  -0.034457  0  3.932224  0
C  C25  1  0.31638017  0.24766927  0.57054964  1  0  -0.046178  0  3.702563  0  0  -0.037535  0  3.946919  0  0  -0.041946  0  3.968546  0  0  -0.01181  -0.034593  0  3.932405  0
C  C26  1  0.71718485  0.69723771  0.35988985  1  0  -0.133382  0  3.705594  0  0  -0.16797  0  3.969134  0  0  -0.169275  0  3.984962  0  0  -0.084234  -0.167094  0  3.958549  0
C  C27  1  0.28280725  0.30276547  0.64010718  1  0  -0.133226  0  3.705717  0  0  -0.167788  0  3.969273  0  0  -0.169098  0  3.985105  0  0  -0.084174  -0.166932  0  3.958682  0
C  C28  1  0.74846121  0.56727286  0.41465689  1  0  0.172214  0  3.785422  0  0  0.163365  0  4.028484  0  0  0.169422  0  4.049912  0  0  0.101085  0.159367  0  4.013896  0
C  C29  1  0.25152577  0.43273129  0.58533697  1  0  0.172044  0  3.785405  0  0  0.163238  0  4.028329  0  0  0.169296  0  4.049757  0  0  0.101026  0.159241  0  4.013742  0
C  C30  1  0.74870765  0.49119175  0.53727551  1  0  0.131868  0  3.842591  0  0  0.137156  0  4.090855  0  0  0.139147  0  4.112938  0  0  0.085086  0.135699  0  4.076011  0
C  C31  1  0.25128424  0.50881239  0.46272035  1  0  0.131916  0  3.842806  0  0  0.137322  0  4.090853  0  0  0.139313  0  4.112937  0  0  0.085204  0.135866  0  4.076004  0
C  C32  1  0.72339022  0.54743060  0.60556183  1  0  -0.105799  0  3.702335  0  0  -0.141302  0  3.961366  0  0  -0.139151  0  3.97738  0  0  -0.080963  -0.14258  0  3.950528  0
C  C33  1  0.27659406  0.45257152  0.39443531  1  0  -0.105779  0  3.702409  0  0  -0.141393  0  3.961426  0  0  -0.139248  0  3.977438  0  0  -0.081057  -0.14267  0  3.950585  0
C  C34  1  0.69295961  0.67766340  0.55209453  1  0  -0.099745  0  3.764077  0  0  -0.091063  0  4.011669  0  0  -0.099935  0  4.035415  0  0  -0.02654  -0.085295  0  3.995739  0
C  C35  1  0.30703128  0.32233866  0.44790679  1  0  -0.099812  0  3.764073  0  0  -0.091077  0  4.011693  0  0  -0.099943  0  4.035436  0  0  -0.026526  -0.085309  0  3.995765  0
C  C36  1  0.68463661  0.73518917  0.62595794  1  0  0.647444  0  3.911972  0  0  0.602635  0  4.201744  0  0  0.636854  0  4.193924  0  0  0.185249  0.579483  0  4.206216  0
C  C37  1  0.31533563  0.26481815  0.37404202  1  0  0.647383  0  3.911992  0  0  0.60266  0  4.201662  0  0  0.636879  0  4.193844  0  0  0.185166  0.579504  0  4.206132  0
C  C38  1  0.60911506  0.88785657  0.36801776  1  0  0.670009  0  3.880243  0  0  0.620646  0  4.17835  0  0  0.655901  0  4.167689  0  0  0.20293  0.596716  0  4.1848  0
C  C39  1  0.39087702  0.11214583  0.63197586  1  0  0.669954  0  3.88025  0  0  0.620638  0  4.178339  0  0  0.655893  0  4.167678  0  0  0.202867  0.596706  0  4.184804  0
C  C40  1  0.09850316  0.29517045  0.04809700  1  0  0.224787  0  3.769829  0  0  0.190142  0  4.045091  0  0  0.20248  0  4.053154  0  0  0.227786  0.182113  0  4.039371  0
C  C41  1  0.90150642  0.70482632  0.95190644  1  0  0.224953  0  3.769733  0  0  0.190259  0  4.045104  0  0  0.202627  0  4.053129  0  0  0.227888  0.182231  0  4.039384  0
C  C42  1  0.36674565  0.39127465  0.94533761  1  0  0.587571  0  3.796621  0  0  0.549702  0  4.081283  0  0  0.570359  0  4.091069  0  0  0.331663  0.535785  0  4.074365  0
C  C43  1  0.63326183  0.60872327  0.05465944  1  0  0.587491  0  3.796692  0  0  0.54967  0  4.081269  0  0  0.570327  0  4.091057  0  0  0.331598  0.535753  0  4.074356  0
C  C44  1  0.79285969  0.36619897  0.46926678  1  0  0.264632  0  3.680655  0  0  0.209304  0  3.968735  0  0  0.223846  0  3.980857  0  0  0.157851  0.199849  0  3.960111  0
C  C45  1  0.20713948  0.63380222  0.53073675  1  0  0.26479  0  3.680281  0  0  0.209455  0  3.968385  0  0  0.223994  0  3.980508  0  0  0.157952  0.199998  0  3.959761  0
C  C46  1  0.96002805  0.21747259  0.15043765  1  0  0.657233  0  3.908316  0  0  0.612799  0  4.202132  0  0  0.647325  0  4.188749  0  0  0.24144  0.589328  0  4.210371  0
C  C47  1  0.03997774  0.78252695  0.84956402  1  0  0.657126  0  3.908612  0  0  0.612653  0  4.202535  0  0  0.647167  0  4.189148  0  0  0.241383  0.589188  0  4.210771  0
N  N48  1  0.77720908  0.36574837  0.56859455  1  0  -0.416191  0  2.956304  0  0  -0.396758  0  3.235477  0  0  -0.410092  0  3.248715  0  0  -0.351755  -0.387661  0  3.226352  0
N  N49  1  0.22278573  0.63425002  0.43140818  1  0  -0.416341  0  2.956355  0  0  -0.396967  0  3.23552  0  0  -0.410298  0  3.248755  0  0  -0.351901  -0.387867  0  3.226394  0
N  N50  1  0.77742873  0.48422287  0.37421467  1  0  -0.359975  0  3.417833  0  0  -0.295198  0  3.654443  0  0  -0.315539  0  3.669005  0  0  -0.38603  -0.28133  0  3.644179  0
N  N51  1  0.22256459  0.51577462  0.62578704  1  0  -0.359921  0  3.417708  0  0  -0.295176  0  3.654283  0  0  -0.315516  0  3.668847  0  0  -0.38603  -0.281307  0  3.644016  0
N  N52  1  0.30493980  0.30715064  0.05595890  1  0  -0.577032  0  3.075142  0  0  -0.533833  0  3.347368  0  0  -0.55164  0  3.357469  0  0  -0.388747  -0.521667  0  3.340273  0
N  N53  1  0.69507323  0.69285202  0.94403729  1  0  -0.577122  0  3.07526  0  0  -0.533899  0  3.3475  0  0  -0.551716  0  3.357592  0  0  -0.388779  -0.521747  0  3.340412  0
N  N54  1  0.04077783  0.36653115  0.93794718  1  0  -0.169789  0  3.459585  0  0  -0.117736  0  3.701805  0  0  -0.1293  0  3.715955  0  0  -0.261198  -0.110163  0  3.69246  0
N  N55  1  0.95922805  0.63346833  0.06205600  1  0  -0.169846  0  3.459509  0  0  -0.117851  0  3.701765  0  0  -0.129422  0  3.715903  0  0  -0.261321  -0.110279  0  3.692422  0
N  N56  1  0.56760465  0.43306279  0.91580509  1  0  -0.722706  0  3.037179  0  0  -0.695835  0  3.278016  0  0  -0.714843  0  3.270737  0  0  -0.588746  -0.682358  0  3.28272  0
N  N57  1  0.43239847  0.56694152  0.08419162  1  0  -0.722728  0  3.037291  0  0  -0.695896  0  3.278128  0  0  -0.714907  0  3.270844  0  0  -0.588696  -0.682406  0  3.282831  0
N  N58  1  0.20851679  0.42947390  0.86976487  1  0  -0.319085  0  2.808468  0  0  -0.297589  0  3.065032  0  0  -0.309539  0  3.075961  0  0  -0.223197  -0.289644  0  3.057776  0
N  N59  1  0.79148460  0.57053128  0.13023229  1  0  -0.31913  0  2.808604  0  0  -0.297606  0  3.065153  0  0  -0.309557  0  3.076086  0  0  -0.223179  -0.289659  0  3.057897  0
O  O60  1  0.63302340  0.67128017  0.73524821  1  0  -0.74045  0  2.019891  0  0  -0.68823  0  2.261839  0  0  -0.713804  0  2.252897  0  0  -0.402651  -0.670135  0  2.26732  0
O  O61  1  0.36697623  0.32871828  0.26475499  1  0  -0.740485  0  2.019878  0  0  -0.688278  0  2.261797  0  0  -0.713854  0  2.252856  0  0  -0.402632  -0.670169  0  2.26728  0
O  O62  1  0.72542337  0.84868752  0.58345610  1  0  -0.658485  0  1.976892  0  0  -0.607353  0  2.207746  0  0  -0.631741  0  2.199825  0  0  -0.378377  -0.590264  0  2.212608  0
O  O63  1  0.27458761  0.15131022  0.41654685  1  0  -0.658342  0  1.976865  0  0  -0.607333  0  2.207777  0  0  -0.63172  0  2.199852  0  0  -0.378336  -0.59023  0  2.212641  0
O  O64  1  0.43346725  0.92844936  0.40068913  1  0  -0.717207  0  2.010499  0  0  -0.661619  0  2.246906  0  0  -0.687686  0  2.236186  0  0  -0.384974  -0.64323  0  2.253697  0
O  O65  1  0.56653446  0.07155556  0.59931411  1  0  -0.717261  0  2.010651  0  0  -0.661645  0  2.247063  0  0  -0.687716  0  2.236341  0  0  -0.384918  -0.643262  0  2.253852  0
O  O66  1  0.70677682  0.96284825  0.27428525  1  0  -0.706511  0  1.950257  0  0  -0.657283  0  2.174201  0  0  -0.681129  0  2.16293  0  0  -0.376528  -0.640538  0  2.181505  0
O  O67  1  0.29321893  0.03715148  0.72570786  1  0  -0.706432  0  1.950112  0  0  -0.657202  0  2.174047  0  0  -0.681047  0  2.162775  0  0  -0.376496  -0.640465  0  2.181355  0
O  O68  1  0.70993537  0.12928611  0.38107366  1  0  -0.928046  0  1.880358  0  0  -0.877603  0  2.07328  0  0  -0.897409  0  2.041159  0  0  -0.647063  -0.863408  0  2.095688  0
O  O69  1  0.29007761  0.87071817  0.61892780  1  0  -0.928062  0  1.88052  0  0  -0.877582  0  2.073451  0  0  -0.897385  0  2.041343  0  0  -0.647149  -0.863414  0  2.095836  0
O  O70  1  0.06129030  0.14549509  0.24204169  1  0  -0.656652  0  2.028037  0  0  -0.604413  0  2.259386  0  0  -0.628174  0  2.248537  0  0  -0.330591  -0.587671  0  2.266323  0
O  O71  1  0.93872839  0.85449620  0.75796444  1  0  -0.656666  0  2.028443  0  0  -0.604395  0  2.259808  0  0  -0.628151  0  2.24896  0  0  -0.330597  -0.587669  0  2.266744  0
O  O72  1  0.75851064  0.23285230  0.13724002  1  0  -0.685667  0  2.000798  0  0  -0.638456  0  2.248252  0  0  -0.662154  0  2.237052  0  0  -0.372401  -0.621719  0  2.255417  0
O  O73  1  0.24149691  0.76714714  0.86276459  1  0  -0.685601  0  2.000686  0  0  -0.638358  0  2.248134  0  0  -0.662057  0  2.23694  0  0  -0.372349  -0.621636  0  2.25529  0
O  O74  1  0.37082113  0.03756998  0.14083485  1  0  -0.86056  0  1.801175  0  0  -0.816496  0  1.954742  0  0  -0.834471  0  1.927883  0  0  -0.600246  -0.803662  0  1.973532  0
O  O75  1  0.62918356  0.96243439  0.85916100  1  0  -0.860552  0  1.80106  0  0  -0.816492  0  1.954643  0  0  -0.834472  0  1.927792  0  0  -0.600269  -0.803669  0  1.973426  0
