# generated using pymatgen
data_CaH16C11(NO4)2
_symmetry_space_group_name_H-M   'P 1'
_cell_length_a   8.20697441
_cell_length_b   9.72993026
_cell_length_c   9.72988156
_cell_angle_alpha   78.82867552
_cell_angle_beta   75.00450018
_cell_angle_gamma   75.00437263
_symmetry_Int_Tables_number   1
_chemical_formula_structural   CaH16C11(NO4)2
_chemical_formula_sum   'Ca2 H32 C22 N4 O16'
_cell_volume   718.22155016
_cell_formula_units_Z   2
loop_
 _symmetry_equiv_pos_site_id
 _symmetry_equiv_pos_as_xyz
  1  'x, y, z'
loop_
 _atom_site_type_symbol
 _atom_site_label
 _atom_site_symmetry_multiplicity
 _atom_site_fract_x
 _atom_site_fract_y
 _atom_site_fract_z
 _atom_site_occupancy
 _atom_site_hle17_bader_spin_density
 _atom_site_hle17_ddec_charge
 _atom_site_hle17_ddec_spin_density
 _atom_site_hle17_ddec_sum_bond_order
 _atom_site_hle17_magmom
 _atom_site_hse06_10hf_bader_spin_density
 _atom_site_hse06_10hf_ddec_charge
 _atom_site_hse06_10hf_ddec_spin_density
 _atom_site_hse06_10hf_ddec_sum_bond_order
 _atom_site_hse06_10hf_magmom
 _atom_site_hse06_bader_spin_density
 _atom_site_hse06_ddec_charge
 _atom_site_hse06_ddec_spin_density
 _atom_site_hse06_ddec_sum_bond_order
 _atom_site_hse06_magmom
 _atom_site_pbe_bader_spin_density
 _atom_site_pbe_cm5_charge
 _atom_site_pbe_ddec_charge
 _atom_site_pbe_ddec_spin_density
 _atom_site_pbe_ddec_sum_bond_order
 _atom_site_pbe_magmom
Ca  Ca0  1  0.24999961  0.53927236  0.46072903  1  0  1.541377  0  1.134001  0  0  1.409023  0  1.491509  0  0  1.454416  0  1.445352  0  0  0.874109  1.373596  0  1.524766  0
Ca  Ca1  1  0.75000072  0.46072995  0.53927327  1  0  1.541367  0  1.133999  0  0  1.409015  0  1.491508  0  0  1.454408  0  1.445353  0  0  0.874118  1.373588  0  1.524764  0
H  H2  1  0.12431375  0.39951727  0.95098510  1  0  0.287967  0  0.882462  0  0  0.266551  0  0.949056  0  0  0.275415  0  0.942285  0  0  0.315558  0.259983  0  0.954375  0
H  H3  1  0.37568737  0.04901798  0.60047900  1  0  0.287936  0  0.882466  0  0  0.266525  0  0.949059  0  0  0.275419  0  0.942248  0  0  0.315572  0.259957  0  0.954377  0
H  H4  1  0.87568490  0.60048184  0.04901610  1  0  0.287939  0  0.882488  0  0  0.266533  0  0.949076  0  0  0.275398  0  0.942303  0  0  0.315568  0.259966  0  0.954395  0
H  H5  1  0.62431401  0.95098540  0.39951981  1  0  0.287937  0  0.88246  0  0  0.266525  0  0.949053  0  0  0.275375  0  0.942296  0  0  0.31556  0.259957  0  0.954372  0
H  H6  1  0.33253925  0.33205237  0.17306380  1  0  0.111545  0  0.907753  0  0  0.126585  0  0.964549  0  0  0.129131  0  0.962588  0  0  0.122037  0.124707  0  0.966081  0
H  H7  1  0.16746026  0.82693945  0.66794104  1  0  0.111515  0  0.907802  0  0  0.126594  0  0.964602  0  0  0.12914  0  0.962639  0  0  0.122032  0.124715  0  0.966135  0
H  H8  1  0.66745814  0.66794675  0.82693766  1  0  0.111573  0  0.907818  0  0  0.126595  0  0.964593  0  0  0.129152  0  0.962636  0  0  0.122044  0.124717  0  0.966126  0
H  H9  1  0.83254145  0.17306286  0.33205482  1  0  0.111534  0  0.907781  0  0  0.12658  0  0.964582  0  0  0.129124  0  0.962618  0  0  0.122032  0.124701  0  0.966115  0
H  H10  1  0.10580068  0.34015479  0.20414302  1  0  0.137955  0  0.915235  0  0  0.148431  0  0.976549  0  0  0.151829  0  0.97419  0  0  0.130616  0.145997  0  0.978303  0
H  H11  1  0.39419830  0.79586012  0.65983998  1  0  0.13797  0  0.91524  0  0  0.148462  0  0.976576  0  0  0.151858  0  0.97422  0  0  0.130626  0.146028  0  0.978329  0
H  H12  1  0.89419644  0.65984541  0.79585829  1  0  0.138008  0  0.915238  0  0  0.148455  0  0.976555  0  0  0.151861  0  0.974204  0  0  0.13062  0.146036  0  0.97829  0
H  H13  1  0.60580087  0.20414221  0.34015639  1  0  0.137971  0  0.915232  0  0  0.148451  0  0.97655  0  0  0.151848  0  0.97419  0  0  0.130617  0.146019  0  0.978303  0
H  H14  1  0.49831539  0.31158246  0.85745272  1  0  0.127751  0  0.91326  0  0  0.139108  0  0.974424  0  0  0.142697  0  0.971183  0  0  0.129901  0.1363  0  0.97729  0
H  H15  1  0.00168778  0.14255112  0.68841537  1  0  0.127731  0  0.913267  0  0  0.139094  0  0.974432  0  0  0.142678  0  0.971191  0  0  0.129911  0.136285  0  0.977298  0
H  H16  1  0.50168829  0.68841661  0.14254952  1  0  0.127759  0  0.91327  0  0  0.13913  0  0.974432  0  0  0.142718  0  0.971192  0  0  0.129905  0.136322  0  0.977299  0
H  H17  1  0.99831191  0.85744906  0.31158336  1  0  0.127741  0  0.913267  0  0  0.139089  0  0.974425  0  0  0.142673  0  0.971186  0  0  0.129906  0.136281  0  0.977293  0
H  H18  1  0.42272373  0.47476710  0.93253655  1  0  0.107413  0  0.935596  0  0  0.122808  0  0.992938  0  0  0.124284  0  0.992468  0  0  0.121789  0.121709  0  0.993383  0
H  H19  1  0.07727062  0.06746511  0.52523457  1  0  0.107446  0  0.935595  0  0  0.122836  0  0.992956  0  0  0.124309  0  0.992486  0  0  0.121795  0.121736  0  0.993401  0
H  H20  1  0.57727034  0.52523527  0.06746395  1  0  0.107458  0  0.935579  0  0  0.122853  0  0.992935  0  0  0.12433  0  0.992466  0  0  0.121801  0.121753  0  0.99338  0
H  H21  1  0.92272875  0.93253614  0.47476608  1  0  0.107451  0  0.935604  0  0  0.122824  0  0.992963  0  0  0.124297  0  0.992492  0  0  0.121789  0.121724  0  0.993409  0
H  H22  1  0.13633279  0.16126399  0.06173104  1  0  0.084232  0  0.909951  0  0  0.100266  0  0.96836  0  0  0.101753  0  0.967177  0  0  0.115138  0.099055  0  0.969387  0
H  H23  1  0.36366779  0.93826888  0.83873408  1  0  0.084248  0  0.909971  0  0  0.100276  0  0.968369  0  0  0.101764  0  0.967187  0  0  0.115159  0.099066  0  0.969396  0
H  H24  1  0.86366713  0.83873511  0.93826991  1  0  0.084258  0  0.909936  0  0  0.100288  0  0.968352  0  0  0.101777  0  0.967168  0  0  0.115153  0.099078  0  0.969379  0
H  H25  1  0.63633624  0.06172912  0.16126314  1  0  0.084227  0  0.909924  0  0  0.100265  0  0.968328  0  0  0.101751  0  0.967147  0  0  0.115148  0.099053  0  0.969359  0
H  H26  1  0.36745647  0.12627632  0.01972632  1  0  0.074565  0  0.908746  0  0  0.092574  0  0.965565  0  0  0.093392  0  0.965187  0  0  0.111565  0.091766  0  0.966079  0
H  H27  1  0.13254870  0.98027402  0.87372014  1  0  0.074561  0  0.908837  0  0  0.092573  0  0.965633  0  0  0.093388  0  0.965256  0  0  0.11158  0.091764  0  0.966151  0
H  H28  1  0.63254314  0.87372386  0.98027655  1  0  0.074524  0  0.90883  0  0  0.092601  0  0.965568  0  0  0.09342  0  0.965189  0  0  0.111585  0.091792  0  0.966089  0
H  H29  1  0.86745556  0.01972290  0.12628032  1  0  0.074554  0  0.908806  0  0  0.092611  0  0.965552  0  0  0.093431  0  0.965175  0  0  0.111589  0.0918  0  0.966076  0
H  H30  1  0.36446113  0.19713000  0.75649386  1  0  0.105937  0  0.953331  0  0  0.11696  0  1.018424  0  0  0.118887  0  1.017721  0  0  0.110486  0.115556  0  1.018866  0
H  H31  1  0.13553668  0.24350389  0.80286841  1  0  0.105923  0  0.953339  0  0  0.116967  0  1.018409  0  0  0.118892  0  1.017711  0  0  0.110497  0.115563  0  1.018852  0
H  H32  1  0.63554031  0.80286802  0.24350801  1  0  0.105973  0  0.953376  0  0  0.116987  0  1.018463  0  0  0.118913  0  1.017762  0  0  0.110499  0.115583  0  1.018904  0
H  H33  1  0.86446377  0.75649306  0.19713386  1  0  0.105942  0  0.953386  0  0  0.11696  0  1.018475  0  0  0.118886  0  1.017775  0  0  0.110513  0.115556  0  1.018918  0
C  C34  1  0.16817764  0.54682096  0.12866821  1  0  0.691838  0  3.916977  0  0  0.644058  0  4.229046  0  0  0.677864  0  4.218907  0  0  0.20967  0.620923  0  4.235272  0
C  C35  1  0.33182376  0.87133374  0.45317318  1  0  0.691948  0  3.917108  0  0  0.644223  0  4.229131  0  0  0.678029  0  4.218988  0  0  0.209766  0.621086  0  4.23536  0
C  C36  1  0.83182198  0.45317922  0.87133362  1  0  0.691834  0  3.917113  0  0  0.644083  0  4.229084  0  0  0.677902  0  4.218948  0  0  0.209722  0.620946  0  4.235314  0
C  C37  1  0.66817822  0.12866750  0.54682283  1  0  0.691842  0  3.917139  0  0  0.644063  0  4.229199  0  0  0.677867  0  4.219061  0  0  0.209714  0.620926  0  4.235427  0
C  C38  1  0.21476563  0.38190869  0.13266530  1  0  -0.17722  0  3.517878  0  0  -0.241442  0  3.779291  0  0  -0.24157  0  3.781788  0  0  -0.060694  -0.241199  0  3.777399  0
C  C39  1  0.28523544  0.86733564  0.61808499  1  0  -0.177256  0  3.517951  0  0  -0.241605  0  3.779468  0  0  -0.241728  0  3.781968  0  0  -0.060713  -0.24136  0  3.777572  0
C  C40  1  0.78523275  0.61809150  0.86733575  1  0  -0.1774  0  3.518093  0  0  -0.241548  0  3.779413  0  0  -0.24173  0  3.781973  0  0  -0.060714  -0.241315  0  3.777511  0
C  C41  1  0.71476682  0.13266452  0.38191013  1  0  -0.177236  0  3.517911  0  0  -0.241497  0  3.779359  0  0  -0.241613  0  3.781844  0  0  -0.060688  -0.241254  0  3.777465  0
C  C42  1  0.33530255  0.48029169  0.74278512  1  0  0.689063  0  3.910502  0  0  0.640538  0  4.213063  0  0  0.67405  0  4.206043  0  0  0.219971  0.617786  0  4.217008  0
C  C43  1  0.16469858  0.25721315  0.51970679  1  0  0.689008  0  3.910413  0  0  0.640521  0  4.212931  0  0  0.674031  0  4.205914  0  0  0.219957  0.61777  0  4.216876  0
C  C44  1  0.66469531  0.51971065  0.25721461  1  0  0.688902  0  3.910751  0  0  0.640409  0  4.213305  0  0  0.673924  0  4.206284  0  0  0.21989  0.617657  0  4.217247  0
C  C45  1  0.83530076  0.74278809  0.48029593  1  0  0.688951  0  3.910541  0  0  0.640512  0  4.212961  0  0  0.674023  0  4.20594  0  0  0.219943  0.617761  0  4.216906  0
C  C46  1  0.38556960  0.39988349  0.88211346  1  0  -0.165358  0  3.53102  0  0  -0.225503  0  3.77925  0  0  -0.226214  0  3.784276  0  0  -0.055305  -0.225102  0  3.776218  0
C  C47  1  0.11443212  0.11788822  0.60011378  1  0  -0.165358  0  3.531013  0  0  -0.225542  0  3.779285  0  0  -0.226242  0  3.784318  0  0  -0.055322  -0.225141  0  3.776256  0
C  C48  1  0.61443032  0.60011561  0.11788749  1  0  -0.165426  0  3.53105  0  0  -0.225632  0  3.779373  0  0  -0.226341  0  3.784393  0  0  -0.055347  -0.225232  0  3.776344  0
C  C49  1  0.88556753  0.88211195  0.39988702  1  0  -0.165374  0  3.531093  0  0  -0.225496  0  3.779264  0  0  -0.226202  0  3.784305  0  0  -0.055301  -0.225092  0  3.776224  0
C  C50  1  0.25019215  0.18803602  0.98322106  1  0  0.025437  0  3.520144  0  0  -0.037169  0  3.781778  0  0  -0.033116  0  3.7916  0  0  -0.051152  -0.039767  0  3.774987  0
C  C51  1  0.24980892  0.01677873  0.81196206  1  0  0.025387  0  3.520226  0  0  -0.037185  0  3.781812  0  0  -0.033131  0  3.791639  0  0  -0.051173  -0.039785  0  3.775024  0
C  C52  1  0.74980928  0.81196200  0.01678080  1  0  0.025424  0  3.520206  0  0  -0.037218  0  3.781837  0  0  -0.033165  0  3.791657  0  0  -0.051174  -0.039819  0  3.775045  0
C  C53  1  0.75019378  0.98321927  0.18803954  1  0  0.025439  0  3.520111  0  0  -0.037183  0  3.781714  0  0  -0.03313  0  3.791534  0  0  -0.051177  -0.039784  0  3.774924  0
C  C54  1  0.25000026  0.16787228  0.83212733  1  0  -0.181392  0  3.664682  0  0  -0.217336  0  3.912973  0  0  -0.22006  0  3.926434  0  0  -0.167948  -0.215191  0  3.903441  0
C  C55  1  0.75000020  0.83212468  0.16787391  1  0  -0.181506  0  3.6648  0  0  -0.21742  0  3.913088  0  0  -0.220144  0  3.926551  0  0  -0.167998  -0.215272  0  3.903556  0
N  N56  1  0.23866268  0.34472597  0.98553438  1  0  -0.06785  0  3.375654  0  0  0.014818  0  3.584815  0  0  0.002863  0  3.602682  0  0  -0.346556  0.022896  0  3.572795  0
N  N57  1  0.26134002  0.01446532  0.65526936  1  0  -0.067743  0  3.37553  0  0  0.014935  0  3.58477  0  0  0.002956  0  3.602622  0  0  -0.346576  0.023014  0  3.572747  0
N  N58  1  0.76133753  0.65527206  0.01446568  1  0  -0.067657  0  3.375562  0  0  0.014971  0  3.58478  0  0  0.00303  0  3.602654  0  0  -0.34655  0.023049  0  3.572763  0
N  N59  1  0.73866219  0.98553484  0.34472886  1  0  -0.06775  0  3.375585  0  0  0.014893  0  3.584779  0  0  0.002941  0  3.60265  0  0  -0.346559  0.022972  0  3.572759  0
O  O60  1  0.19857925  0.59450179  0.22896079  1  0  -0.693879  0  1.973355  0  0  -0.642144  0  2.230399  0  0  -0.66844  0  2.218153  0  0  -0.376442  -0.622946  0  2.238441  0
O  O61  1  0.30142421  0.77103662  0.40548868  1  0  -0.694027  0  1.973249  0  0  -0.642304  0  2.230277  0  0  -0.668601  0  2.218029  0  0  -0.376589  -0.623107  0  2.238323  0
O  O62  1  0.80142128  0.40549517  0.77103632  1  0  -0.693915  0  1.973284  0  0  -0.642199  0  2.230322  0  0  -0.668495  0  2.218069  0  0  -0.376539  -0.623002  0  2.238366  0
O  O63  1  0.69857837  0.22896247  0.59450453  1  0  -0.693915  0  1.973296  0  0  -0.642182  0  2.230344  0  0  -0.668479  0  2.218098  0  0  -0.376521  -0.622984  0  2.238387  0
O  O64  1  0.10287632  0.61971762  0.02577671  1  0  -0.647595  0  1.918683  0  0  -0.603938  0  2.149009  0  0  -0.626803  0  2.138873  0  0  -0.34523  -0.58775  0  2.155837  0
O  O65  1  0.39712240  0.97422231  0.38027773  1  0  -0.647555  0  1.91881  0  0  -0.603901  0  2.149113  0  0  -0.626765  0  2.138978  0  0  -0.345192  -0.587716  0  2.155942  0
O  O66  1  0.89712084  0.38028258  0.97422255  1  0  -0.647537  0  1.918801  0  0  -0.603902  0  2.149134  0  0  -0.626767  0  2.138992  0  0  -0.345208  -0.587717  0  2.15596  0
O  O67  1  0.60287648  0.02578109  0.61971953  1  0  -0.647563  0  1.918813  0  0  -0.603896  0  2.149139  0  0  -0.626769  0  2.139005  0  0  -0.345206  -0.587711  0  2.155967  0
O  O68  1  0.18372764  0.49342279  0.72770003  1  0  -0.655125  0  1.96886  0  0  -0.599255  0  2.202454  0  0  -0.625635  0  2.195833  0  0  -0.336694  -0.580719  0  2.206852  0
O  O69  1  0.31627193  0.27229905  0.50657217  1  0  -0.65508  0  1.96884  0  0  -0.599203  0  2.202384  0  0  -0.625595  0  2.195779  0  0  -0.336665  -0.580668  0  2.206781  0
O  O70  1  0.81626554  0.50658279  0.27230416  1  0  -0.654981  0  1.968966  0  0  -0.599131  0  2.202562  0  0  -0.625522  0  2.19595  0  0  -0.336619  -0.580595  0  2.206957  0
O  O71  1  0.68372457  0.72770329  0.49343298  1  0  -0.655039  0  1.968884  0  0  -0.599196  0  2.2024  0  0  -0.625582  0  2.195782  0  0  -0.336664  -0.580661  0  2.206797  0
O  O72  1  0.45317594  0.52891024  0.64881453  1  0  -0.716662  0  2.007194  0  0  -0.659101  0  2.261028  0  0  -0.687567  0  2.252645  0  0  -0.36774  -0.638406  0  2.26557  0
O  O73  1  0.04682183  0.35118452  0.47109020  1  0  -0.716683  0  2.007111  0  0  -0.659118  0  2.260914  0  0  -0.687582  0  2.25253  0  0  -0.367746  -0.638421  0  2.265456  0
O  O74  1  0.54682024  0.47108889  0.35118409  1  0  -0.716619  0  2.007198  0  0  -0.659053  0  2.261014  0  0  -0.687521  0  2.252631  0  0  -0.367712  -0.638356  0  2.265554  0
O  O75  1  0.95317578  0.64881353  0.52891450  1  0  -0.716656  0  2.007108  0  0  -0.65912  0  2.260899  0  0  -0.687585  0  2.252515  0  0  -0.367736  -0.638425  0  2.265445  0
