# generated using pymatgen
data_CuH16C20(NO2)2
_symmetry_space_group_name_H-M   'P 1'
_cell_length_a   9.51370448
_cell_length_b   10.48012571
_cell_length_c   10.55902003
_cell_angle_alpha   116.39233940
_cell_angle_beta   96.95519005
_cell_angle_gamma   103.73274159
_symmetry_Int_Tables_number   1
_chemical_formula_structural   CuH16C20(NO2)2
_chemical_formula_sum   'Cu2 H32 C40 N4 O8'
_cell_volume   884.48382936
_cell_formula_units_Z   2
loop_
 _symmetry_equiv_pos_site_id
 _symmetry_equiv_pos_as_xyz
  1  'x, y, z'
loop_
 _atom_site_type_symbol
 _atom_site_label
 _atom_site_symmetry_multiplicity
 _atom_site_fract_x
 _atom_site_fract_y
 _atom_site_fract_z
 _atom_site_occupancy
 _atom_site_hle17_ddec_charge
 _atom_site_hle17_ddec_spin_density
 _atom_site_hle17_ddec_sum_bond_order
 _atom_site_hle17_magmom
 _atom_site_hse06_10hf_ddec_charge
 _atom_site_hse06_10hf_ddec_spin_density
 _atom_site_hse06_10hf_ddec_sum_bond_order
 _atom_site_hse06_10hf_magmom
 _atom_site_hse06_ddec_charge
 _atom_site_hse06_ddec_spin_density
 _atom_site_hse06_ddec_sum_bond_order
 _atom_site_hse06_magmom
 _atom_site_pbe_cm5_charge
 _atom_site_pbe_ddec_charge
 _atom_site_pbe_ddec_spin_density
 _atom_site_pbe_ddec_sum_bond_order
 _atom_site_pbe_magmom
Cu  Cu0  1  0.38396747  0.82393186  0.54769007  1  0.869602  -0.730371  1.775849  -0.506  0.851988  -0.810632  2.158483  -0.624  0.946129  -0.888265  2.087271  -0.713  0.735022  0.796286  -0.749617  2.206612  -0.562
Cu  Cu1  1  0.61603375  0.17606945  0.45231064  1  0.86964  0.730368  1.775793  0.506  0.852039  0.810625  2.1584  0.624  0.946163  0.88825  2.087202  0.713  0.735044  0.796351  0.749605  2.206539  0.562
H  H2  1  0.12374430  0.11981475  0.33427619  1  0.113525  -0.000363  0.926175  0.0  0.130199  3.9e-05  0.981493  0.0  0.133535  1.7e-05  0.978872  0.0  0.101013  0.127779  -3e-06  0.983677  0.0
H  H3  1  0.87625263  0.88017299  0.66572557  1  0.113491  0.000364  0.926167  0.001  0.130144  -3.9e-05  0.981477  0.0  0.133472  -1.6e-05  0.978858  0.0  0.101003  0.127727  4e-06  0.983655  0.0
H  H4  1  0.05959092  0.95589668  0.35392170  1  0.106281  0.000732  0.924453  0.001  0.122516  0.000532  0.980559  0.001  0.124173  0.000312  0.979421  0.0  0.099453  0.121202  0.000837  0.981859  0.001
H  H5  1  0.94041169  0.04409220  0.64608591  1  0.106276  -0.000732  0.924579  -0.001  0.122477  -0.000532  0.980667  -0.001  0.124128  -0.000312  0.97953  0.0  0.099446  0.12116  -0.000837  0.981966  -0.001
H  H6  1  0.18376735  0.09780216  0.10738962  1  0.087968  -8.2e-05  0.964305  0.0  0.09909  2e-05  1.027109  0.0  0.101044  7e-06  1.027646  0.0  0.097655  0.097479  3.9e-05  1.027288  0.0
H  H7  1  0.81623456  0.90219123  0.89261709  1  0.087903  8.4e-05  0.964363  0.0  0.099029  -2e-05  1.02717  0.0  0.100984  -7e-06  1.027705  0.0  0.097635  0.097419  -3.9e-05  1.027348  0.0
H  H8  1  0.14761571  0.93774911  0.84228178  1  0.089226  0.000138  0.974408  0.0  0.101655  4.6e-05  1.034881  0.0  0.10359  4.7e-05  1.03582  0.0  0.096061  0.100183  4.3e-05  1.034548  0.0
H  H9  1  0.85238799  0.06224994  0.15772292  1  0.08925  -0.000139  0.97448  0.0  0.101673  -4.6e-05  1.034946  0.0  0.103605  -4.7e-05  1.035913  0.0  0.096072  0.100201  -4.3e-05  1.034612  0.0
H  H10  1  0.99718555  0.54080794  0.88308445  1  0.08594  5.3e-05  0.964571  0.0  0.098688  -2.8e-05  1.024489  0.0  0.101155  -2.2e-05  1.023797  0.0  0.095616  0.096866  -4.1e-05  1.025172  0.0
H  H11  1  0.00280891  0.45918205  0.11691428  1  0.086009  -5.4e-05  0.964639  0.0  0.098777  2.7e-05  1.024527  0.0  0.101247  2.2e-05  1.023828  0.0  0.095621  0.09695  4.1e-05  1.025214  0.0
H  H12  1  0.03562918  0.70218447  0.15069937  1  0.086914  -9.8e-05  0.955356  0.0  0.09983  1.5e-05  1.014935  0.0  0.102955  1.3e-05  1.012694  0.0  0.097985  0.097427  -2.1e-05  1.016749  0.0
H  H13  1  0.96436633  0.29780214  0.84929985  1  0.0869  0.000101  0.955292  0.0  0.099788  -1.5e-05  1.014912  0.0  0.102915  -1.3e-05  1.012671  0.0  0.097961  0.097384  2.1e-05  1.016728  0.0
H  H14  1  0.01655644  0.51320487  0.64940849  1  0.122286  -0.000271  0.928509  0.0  0.136562  -0.000219  0.98503  0.0  0.139391  -0.000107  0.983277  0.0  0.102415  0.134502  -0.000301  0.986602  0.0
H  H15  1  0.98344511  0.48679424  0.35058464  1  0.1223  0.00027  0.928546  0.0  0.136555  0.00022  0.985078  0.0  0.13938  0.000108  0.983326  0.0  0.102436  0.134498  0.000301  0.986645  0.0
H  H16  1  0.94598341  0.64369289  0.62157772  1  0.10754  0.000291  0.922216  0.0  0.123331  -0.000115  0.978515  0.0  0.125641  -6.6e-05  0.977046  0.0  0.098219  0.121649  -0.000124  0.979909  0.0
H  H17  1  0.05401675  0.35630840  0.37842382  1  0.10755  -0.000293  0.922221  0.0  0.123351  0.000116  0.978494  0.0  0.125663  6.6e-05  0.977019  0.0  0.098213  0.121667  0.000124  0.979887  0.0
H  H18  1  0.22145529  0.03417350  0.61572469  1  0.089477  -0.001039  0.944716  -0.002  0.100721  -0.000908  1.002133  -0.001  0.102517  -0.000666  1.000295  -0.001  0.122459  0.098803  -0.001027  1.004528  -0.001
H  H19  1  0.77854947  0.96583239  0.38427086  1  0.089537  0.001037  0.944727  0.002  0.100771  0.000908  1.002155  0.001  0.102568  0.000665  1.000314  0.001  0.122455  0.098854  0.001027  1.004549  0.001
H  H20  1  0.20565894  0.25737981  0.83268040  1  0.105876  -0.000562  0.956985  0.0  0.117281  -0.000553  1.015601  0.0  0.120109  -0.00039  1.015115  0.0  0.109123  0.115465  -0.000569  1.015548  -0.001
H  H21  1  0.79434724  0.74262722  0.16731486  1  0.105911  0.000563  0.956982  0.0  0.117315  0.000553  1.015588  0.0  0.120141  0.00039  1.015106  0.0  0.109139  0.115499  0.000569  1.015535  0.001
H  H22  1  0.57233109  0.22752100  0.09226998  1  0.133842  -0.000432  0.971693  0.0  0.14041  -0.000398  1.03588  0.0  0.144418  -0.000288  1.034417  0.0  0.110681  0.137504  -0.000463  1.037055  -0.001
H  H23  1  0.42767263  0.77248824  0.90772790  1  0.133953  0.000433  0.971531  0.0  0.140432  0.000398  1.035811  0.0  0.144441  0.000288  1.034347  0.0  0.110685  0.137525  0.000464  1.036986  0.001
H  H24  1  0.57493415  0.00818472  0.86239118  1  0.08013  -0.000726  0.964455  -0.001  0.086007  -0.0006  1.03335  -0.001  0.08729  -0.000433  1.033361  -0.001  0.116477  0.08513  -0.000758  1.032905  -0.001
H  H25  1  0.42507063  0.99182453  0.13760776  1  0.080283  0.000725  0.964485  0.001  0.086168  0.0006  1.033369  0.001  0.087467  0.000433  1.033356  0.001  0.116604  0.085291  0.000757  1.032925  0.001
H  H26  1  0.33642974  0.51512759  0.00163433  1  0.107004  -0.000577  0.947812  0.0  0.119267  -0.000592  1.004537  0.0  0.121957  -0.000422  1.004674  0.0  0.109118  0.117036  -0.000633  1.005181  -0.001
H  H27  1  0.66357079  0.48487821  0.99836831  1  0.106988  0.000574  0.947793  0.0  0.119248  0.000592  1.004528  0.0  0.121944  0.000422  1.004649  0.0  0.109112  0.117016  0.000633  1.005174  0.001
H  H28  1  0.32874194  0.73340529  0.22927203  1  0.092528  -0.001198  0.980807  -0.002  0.098367  -0.001005  1.048706  -0.002  0.099876  -0.000728  1.048364  -0.001  0.116787  0.097311  -0.001111  1.04865  -0.002
H  H29  1  0.67125717  0.26659938  0.77072995  1  0.09254  0.001199  0.980865  0.002  0.098315  0.001005  1.048822  0.002  0.099823  0.000727  1.048483  0.001  0.116763  0.09726  0.001111  1.048765  0.002
H  H30  1  0.39280330  0.52710393  0.47530413  1  0.090759  -0.001155  0.955078  -0.002  0.097182  -0.000927  1.021283  -0.001  0.098975  -0.000666  1.019669  -0.001  0.12165  0.095325  -0.001105  1.023401  -0.001
H  H31  1  0.60718621  0.47289053  0.52469323  1  0.090734  0.001158  0.955054  0.002  0.097171  0.000927  1.021245  0.001  0.098961  0.000666  1.019639  0.001  0.121665  0.095316  0.001105  1.023365  0.001
H  H32  1  0.41581408  0.30426920  0.26334418  1  0.128498  -0.000408  0.95095  0.0  0.135308  -0.000403  1.016223  0.0  0.138911  -0.000294  1.014294  0.0  0.113756  0.132236  -0.000385  1.018689  -0.001
H  H33  1  0.58417614  0.69572755  0.73664954  1  0.128549  0.000408  0.950867  0.0  0.135352  0.000403  1.016158  0.0  0.138953  0.000294  1.014233  0.0  0.113794  0.13228  0.000385  1.018623  0.001
C  C34  1  0.29744704  0.03219787  0.38080134  1  0.688356  -0.004362  3.869984  -0.008  0.656577  -0.000769  4.17136  -0.003  0.694184  -0.001126  4.162547  -0.003  0.203479  0.631865  -0.000242  4.17513  -0.003
C  C35  1  0.70255629  0.96780007  0.61919998  1  0.688457  0.004362  3.869749  0.008  0.656581  0.000765  4.171229  0.003  0.694179  0.001126  4.16242  0.003  0.203551  0.631867  0.000242  4.174996  0.003
C  C36  1  0.13679321  0.01067097  0.30983363  1  -0.299215  0.011462  3.691358  0.012  -0.345653  0.00615  3.934225  0.007  -0.350822  0.004057  3.939246  0.005  -0.161633  -0.341801  0.007919  3.930413  0.008
C  C37  1  0.86320940  0.98932131  0.69016982  1  -0.299209  -0.011468  3.691365  -0.012  -0.3455  -0.00615  3.93411  -0.007  -0.350645  -0.004062  3.939112  -0.005  -0.161622  -0.341632  -0.00792  3.930282  -0.008
C  C38  1  0.10969733  0.91138460  0.14738896  1  0.103424  -0.002635  3.770684  -0.003  0.121626  -0.000566  4.010689  -0.001  0.12112  -0.000537  4.03595  -0.001  -0.015674  0.122081  -0.000654  3.991658  -0.001
C  C39  1  0.89029817  0.08860200  0.85261215  1  0.103499  0.002653  3.770956  0.003  0.121665  0.000565  4.010931  0.001  0.121152  0.000538  4.036185  0.001  -0.015622  0.122113  0.000654  3.991899  0.001
C  C40  1  0.14421324  0.97549931  0.05891844  1  -0.118167  0.003926  3.773406  0.004  -0.135283  0.00103  4.021238  0.001  -0.1375  0.000723  4.043067  0.001  -0.095845  -0.133739  0.001428  4.006384  0.001
C  C41  1  0.85578230  0.02449404  0.94108569  1  -0.11811  -0.003951  3.773429  -0.004  -0.135222  -0.001029  4.021252  -0.001  -0.137438  -0.000724  4.04308  -0.001  -0.095823  -0.133681  -0.001429  4.006404  -0.001
C  C42  1  0.12365277  0.88519965  0.90956135  1  -0.120679  -0.002563  3.745346  -0.003  -0.140426  -0.000335  3.992379  0.0  -0.143414  -0.000318  4.014463  0.0  -0.096758  -0.13835  -0.000594  3.977452  -0.001
C  C43  1  0.87634280  0.11480045  0.09044579  1  -0.120602  0.002588  3.745339  0.003  -0.140376  0.000335  3.992343  0.0  -0.143377  0.000321  4.014417  0.0  -0.096784  -0.138304  0.000594  3.977415  0.001
C  C44  1  0.06854375  0.72771572  0.84334146  1  0.12129  0.00345  3.751014  0.003  0.139181  0.00041  3.989454  0.0  0.140393  0.000337  4.013354  0.0  -0.01162  0.138552  0.000835  3.972898  0.001
C  C45  1  0.93145853  0.27228219  0.15666258  1  0.121196  -0.003474  3.75124  -0.003  0.139188  -0.000411  3.989502  0.0  0.140399  -0.000339  4.013407  0.0  -0.01164  0.138563  -0.000835  3.972939  -0.001
C  C46  1  0.03853981  0.66329169  0.93236663  1  -0.127225  -0.003518  3.766153  -0.003  -0.14819  -0.0009  4.01765  -0.001  -0.151393  -0.000687  4.0409  -0.001  -0.100485  -0.145474  -0.001074  4.000587  -0.001
C  C47  1  0.96145749  0.33670057  0.06763247  1  -0.127378  0.003541  3.766488  0.003  -0.14841  0.000899  4.017953  0.001  -0.151612  0.000689  4.041198  0.001  -0.100524  -0.145691  0.001074  4.000887  0.001
C  C48  1  0.05884931  0.75388262  0.08239279  1  -0.131971  0.003401  3.776638  0.003  -0.152931  0.000713  4.033771  0.001  -0.15564  0.000554  4.056422  0.001  -0.100111  -0.150298  0.001211  4.015946  0.001
C  C49  1  0.94114372  0.24610285  0.91760565  1  -0.131948  -0.003426  3.776849  -0.003  -0.152887  -0.00071  4.034  -0.001  -0.155593  -0.000554  4.05664  -0.001  -0.100103  -0.150255  -0.001211  4.016173  -0.001
C  C50  1  0.04212349  0.63263440  0.68019189  1  -0.303373  -0.009605  3.68633  -0.01  -0.344532  -0.005467  3.923126  -0.006  -0.350625  -0.003645  3.93012  -0.004  -0.163467  -0.340386  -0.00684  3.918581  -0.007
C  C51  1  0.95787740  0.36736913  0.31981357  1  -0.303434  0.009608  3.686533  0.01  -0.344539  0.005465  3.923227  0.006  -0.350626  0.003644  3.930217  0.004  -0.163454  -0.340398  0.00684  3.918686  0.007
C  C52  1  0.18134240  0.68168277  0.63300490  1  0.67383  0.004915  3.873629  0.008  0.637572  0.000614  4.18427  0.003  0.672517  0.000965  4.180141  0.003  0.192013  0.613922  0.000148  4.186404  0.003
C  C53  1  0.81865673  0.31832528  0.36699671  1  0.673996  -0.004916  3.873431  -0.008  0.637609  -0.000612  4.184253  -0.003  0.672558  -0.000966  4.180118  -0.003  0.191989  0.61396  -0.000147  4.186394  -0.003
C  C54  1  0.29840566  0.08298716  0.72276311  1  0.134552  0.006167  3.692592  0.006  0.105655  0.000576  3.945235  0.001  0.114748  0.001501  3.963334  0.002  0.049859  0.098472  -0.000458  3.935713  0.0
C  C55  1  0.70160298  0.91701763  0.27723142  1  0.134528  -0.006159  3.692618  -0.006  0.1056  -0.000575  3.945262  -0.001  0.114697  -0.001501  3.963357  -0.002  0.049901  0.098415  0.000458  3.935744  0.0
C  C56  1  0.29063344  0.20685482  0.84417939  1  -0.158343  -0.007713  3.708553  -0.008  -0.174926  -0.003137  3.953095  -0.004  -0.182302  -0.002884  3.973158  -0.003  -0.079453  -0.170015  -0.003364  3.939907  -0.004
C  C57  1  0.70937202  0.79314996  0.15581385  1  -0.158451  0.007702  3.708623  0.008  -0.17504  0.003138  3.953183  0.004  -0.182419  0.002883  3.973242  0.003  -0.079507  -0.170129  0.003364  3.939997  0.004
C  C58  1  0.38730721  0.26082056  0.98144542  1  0.097012  0.006225  3.757886  0.006  0.108211  0.001927  3.987931  0.002  0.113162  0.002168  4.007812  0.002  0.015698  0.104623  0.001898  3.975154  0.002
C  C59  1  0.61269685  0.73918644  0.01855150  1  0.097048  -0.006216  3.75789  -0.006  0.108277  -0.001927  3.987877  -0.002  0.113231  -0.002168  4.007751  -0.002  0.015699  0.104687  -0.001897  3.975101  -0.002
C  C60  1  0.49154834  0.18777185  0.98877481  1  -0.161115  -0.007911  3.65148  -0.008  -0.175747  -0.00316  3.891503  -0.004  -0.183559  -0.002907  3.910336  -0.003  -0.077268  -0.170656  -0.003356  3.87903  -0.004
C  C61  1  0.50845608  0.81223628  0.01122265  1  -0.161345  0.0079  3.651358  0.008  -0.175892  0.00316  3.891417  0.004  -0.183704  0.002907  3.910248  0.003  -0.077376  -0.170799  0.003356  3.878944  0.004
C  C62  1  0.49402527  0.06600517  0.86097466  1  0.137901  0.005998  3.674887  0.006  0.11009  0.000443  3.930481  0.001  0.119213  0.001439  3.949621  0.002  0.052703  0.104053  0.000125  3.917199  0.001
C  C63  1  0.50597631  0.93400067  0.13902432  1  0.137846  -0.005988  3.674939  -0.006  0.109993  -0.000442  3.93052  -0.001  0.119109  -0.001437  3.949652  -0.002  0.052604  0.103957  -0.000124  3.917245  -0.001
C  C64  1  0.37831269  0.39028971  0.11250309  1  0.093771  0.007344  3.757507  0.007  0.106175  0.002294  3.985531  0.002  0.110258  0.002547  4.006169  0.003  0.015441  0.103281  0.002167  3.97218  0.002
C  C65  1  0.62168464  0.60971271  0.88749486  1  0.093869  -0.007361  3.757342  -0.007  0.106281  -0.002295  3.985334  -0.002  0.110364  -0.002551  4.005969  -0.003  0.015502  0.103388  -0.002168  3.971983  -0.002
C  C66  1  0.35067940  0.51237976  0.10427949  1  -0.164188  -0.00925  3.722534  -0.009  -0.183806  -0.003738  3.972383  -0.004  -0.191765  -0.003439  3.994104  -0.004  -0.083513  -0.178675  -0.003895  3.958727  -0.005
C  C67  1  0.64932289  0.48762494  0.89572189  1  -0.164149  0.00927  3.722465  0.009  -0.183766  0.003735  3.972291  0.004  -0.191723  0.00344  3.994013  0.004  -0.083532  -0.178635  0.003895  3.958634  0.005
C  C68  1  0.34613013  0.63460784  0.22974591  1  0.125816  0.006346  3.685002  0.007  0.096426  0.000115  3.940016  0.001  0.10473  0.001217  3.959552  0.002  0.046081  0.090481  -0.000858  3.928214  0.0
C  C69  1  0.65386757  0.36539568  0.77025731  1  0.125745  -0.006363  3.685072  -0.007  0.096425  -0.000111  3.940099  -0.001  0.10473  -0.001218  3.959636  -0.002  0.046094  0.090482  0.000859  3.928301  0.0
C  C70  1  0.38490905  0.51978460  0.36831400  1  0.13145  0.008103  3.667357  0.008  0.104566  0.001549  3.916372  0.002  0.113621  0.002443  3.934239  0.003  0.05192  0.098471  0.000929  3.905763  0.002
C  C71  1  0.61508330  0.48021215  0.63168278  1  0.131465  -0.008124  3.667327  -0.008  0.104592  -0.001547  3.916373  -0.002  0.113648  -0.002445  3.934238  -0.003  0.051892  0.098495  -0.000929  3.905769  -0.002
C  C72  1  0.39532227  0.39545357  0.24872327  1  -0.138983  -0.008622  3.660367  -0.009  -0.154517  -0.003138  3.900746  -0.004  -0.160777  -0.002979  3.918689  -0.003  -0.072816  -0.150432  -0.003155  3.889697  -0.004
C  C73  1  0.60467185  0.60454545  0.75127282  1  -0.139111  0.00864  3.66027  0.009  -0.15466  0.003137  3.900667  0.004  -0.16092  0.002982  3.918608  0.003  -0.07286  -0.150576  0.003155  3.889618  0.004
N  N74  1  0.39894487  0.01354417  0.73025523  1  -0.291126  -0.070354  3.323006  -0.085  -0.241557  -0.049447  3.610511  -0.064  -0.271379  -0.041421  3.6329  -0.057  -0.339111  -0.223707  -0.054357  3.598171  -0.068
N  N75  1  0.60105954  0.98646057  0.26974262  1  -0.291179  0.070352  3.32309  0.085  -0.241536  0.049449  3.610553  0.064  -0.271357  0.041423  3.632943  0.057  -0.33907  -0.223691  0.054358  3.598227  0.068
N  N76  1  0.36337360  0.63851872  0.35992363  1  -0.272888  -0.075272  3.301806  -0.091  -0.221094  -0.052352  3.584117  -0.068  -0.250278  -0.043795  3.605353  -0.06  -0.337346  -0.203727  -0.057436  3.572418  -0.072
N  N77  1  0.63662125  0.36148254  0.64007638  1  -0.272828  0.07529  3.301858  0.091  -0.221094  0.05235  3.58421  0.068  -0.250276  0.043798  3.605447  0.06  -0.337324  -0.203731  0.057436  3.572525  0.072
O  O78  1  0.31953197  0.93169520  0.40604047  1  -0.646315  0.002257  2.057913  0.003  -0.62468  0.000575  2.337745  0.001  -0.653395  -1.9e-05  2.324055  0.0  -0.325487  -0.604751  0.001407  2.346166  0.002
O  O79  1  0.68048308  0.06830957  0.59396797  1  -0.646399  -0.002258  2.057854  -0.003  -0.624706  -0.000574  2.337673  -0.001  -0.653419  2.4e-05  2.323991  0.0  -0.325516  -0.604779  -0.001407  2.346097  -0.002
O  O80  1  0.39844915  0.14989954  0.39978353  1  -0.614479  0.092654  2.041476  0.119  -0.590498  0.058091  2.32296  0.083  -0.631836  0.044072  2.313174  0.067  -0.332551  -0.562996  0.066731  2.329237  0.091
O  O81  1  0.60154958  0.85010066  0.60021168  1  -0.614521  -0.092656  2.041515  -0.119  -0.590504  -0.058089  2.323024  -0.083  -0.631844  -0.044069  2.313241  -0.067  -0.332574  -0.563005  -0.066728  2.329309  -0.091
O  O82  1  0.30111919  0.66634834  0.67873926  1  -0.646795  0.000481  1.917226  -0.001  -0.61632  0.001088  2.155998  0.0  -0.642181  0.001635  2.146746  0.001  -0.339282  -0.598182  0.000474  2.162208  0.0
O  O83  1  0.69888138  0.33366421  0.32126640  1  -0.646844  -0.000483  1.917155  0.001  -0.616367  -0.001088  2.156016  0.0  -0.642221  -0.001633  2.146748  -0.001  -0.339291  -0.598234  -0.000475  2.162236  0.0
O  O84  1  0.16840719  0.74235226  0.55073307  1  -0.609925  -0.109544  1.967232  -0.139  -0.594315  -0.065335  2.23601  -0.092  -0.638742  -0.048429  2.231809  -0.073  -0.338272  -0.564789  -0.077562  2.239384  -0.105
O  O85  1  0.83159156  0.25765128  0.44926743  1  -0.609965  0.109559  1.967059  0.139  -0.594324  0.06534  2.235903  0.092  -0.638752  0.048435  2.231703  0.073  -0.33825  -0.564791  0.077569  2.239272  0.105
