# generated using pymatgen
data_GdH7C7SO7
_symmetry_space_group_name_H-M   'P 1'
_cell_length_a   8.49399975
_cell_length_b   17.16169244
_cell_length_c   17.16171548
_cell_angle_alpha   90.00011652
_cell_angle_beta   89.99993645
_cell_angle_gamma   90.00006549
_symmetry_Int_Tables_number   1
_chemical_formula_structural   GdH7C7SO7
_chemical_formula_sum   'Gd8 H56 C56 S8 O56'
_cell_volume   2501.68748517
_cell_formula_units_Z   8
loop_
 _symmetry_equiv_pos_site_id
 _symmetry_equiv_pos_as_xyz
  1  'x, y, z'
loop_
 _atom_site_type_symbol
 _atom_site_label
 _atom_site_symmetry_multiplicity
 _atom_site_fract_x
 _atom_site_fract_y
 _atom_site_fract_z
 _atom_site_occupancy
 _atom_site_pbe_bader_charge
 _atom_site_pbe_bader_spin_density
 _atom_site_pbe_cm5_charge
 _atom_site_pbe_ddec_charge
 _atom_site_pbe_ddec_spin_density
 _atom_site_pbe_ddec_sum_bond_order
 _atom_site_pbe_magmom
Gd  Gd0  1  0.15033064  0.96578078  0.11006977  1  2.177289  0  1.461696  2.154934  0  2.172417  0
Gd  Gd1  1  0.15032987  0.03421902  0.88993026  1  2.177282  0  1.46167  2.154875  0  2.172476  0
Gd  Gd2  1  0.84967047  0.11006984  0.03421849  1  2.177315  0  1.46169  2.154906  0  2.172443  0
Gd  Gd3  1  0.84967033  0.88992977  0.96578116  1  2.177294  0  1.461698  2.15496  0  2.172387  0
Gd  Gd4  1  0.34967030  0.53421784  0.61007058  1  2.177307  0  1.461679  2.15489  0  2.172477  0
Gd  Gd5  1  0.34967047  0.46578206  0.38992993  1  2.177305  0  1.461666  2.154897  0  2.172476  0
Gd  Gd6  1  0.65033069  0.38992964  0.53421837  1  2.177273  0  1.461694  2.154924  0  2.172411  0
Gd  Gd7  1  0.65033102  0.61007044  0.46578197  1  2.177274  0  1.461653  2.154868  0  2.172488  0
H  H8  1  0.42938665  0.24070914  0.24064973  1  0.104945  0  0.108818  0.115969  0  1.010049  0
H  H9  1  0.42938784  0.75929081  0.75934957  1  0.104969  0  0.108833  0.11598  0  1.010027  0
H  H10  1  0.57061164  0.24065028  0.75929131  1  0.104964  0  0.10883  0.115983  0  1.010031  0
H  H11  1  0.57061164  0.75934917  0.24070907  1  0.104971  0  0.108834  0.115992  0  1.010022  0
H  H12  1  0.07061049  0.25929105  0.74065056  1  0.104983  0  0.108844  0.116016  0  1.010013  0
H  H13  1  0.07061041  0.74070870  0.25934952  1  0.104984  0  0.108844  0.116009  0  1.010022  0
H  H14  1  0.92939019  0.25934849  0.25929110  1  0.105003  0  0.108826  0.115979  0  1.009962  0
H  H15  1  0.92939139  0.74065174  0.74070967  1  0.104998  0  0.108823  0.115997  0  1.009973  0
H  H16  1  0.67579675  0.17183335  0.44847439  1  0.12283  0  0.114145  0.124957  0  0.99552  0
H  H17  1  0.67579857  0.82816791  0.55152477  1  0.122809  0  0.114155  0.124967  0  0.995474  0
H  H18  1  0.32420374  0.44847418  0.82816816  1  0.122828  0  0.114159  0.124969  0  0.995513  0
H  H19  1  0.32420460  0.55152513  0.17183236  1  0.122814  0  0.11415  0.124956  0  0.995504  0
H  H20  1  0.82420584  0.32816930  0.94847522  1  0.12283  0  0.114142  0.124951  0  0.995532  0
H  H21  1  0.82420489  0.67183146  0.05152386  1  0.122803  0  0.114144  0.124971  0  0.995493  0
H  H22  1  0.17579438  0.05152386  0.32816825  1  0.122782  0  0.114139  0.124967  0  0.995504  0
H  H23  1  0.17579620  0.94847595  0.67183061  1  0.122784  0  0.114124  0.124938  0  0.995524  0
H  H24  1  0.75225653  0.04580727  0.38437692  1  0.073844  0  0.108958  0.108216  0  0.980612  0
H  H25  1  0.75225614  0.95419286  0.61562453  1  0.073841  0  0.108944  0.108218  0  0.980669  0
H  H26  1  0.24774367  0.38437630  0.95419339  1  0.073819  0  0.108948  0.108213  0  0.980677  0
H  H27  1  0.24774378  0.61562355  0.04580717  1  0.073823  0  0.108949  0.108209  0  0.980677  0
H  H28  1  0.74774385  0.45419408  0.88437805  1  0.073798  0  0.108939  0.108197  0  0.980642  0
H  H29  1  0.74774481  0.54580547  0.11562224  1  0.073803  0  0.108938  0.108194  0  0.980646  0
H  H30  1  0.25225652  0.11562141  0.45419241  1  0.073799  0  0.108955  0.108195  0  0.980667  0
H  H31  1  0.25225730  0.88437785  0.54580641  1  0.073798  0  0.108936  0.108171  0  0.980685  0
H  H32  1  0.66264163  0.01758321  0.24885957  1  0.114687  0  0.115226  0.126634  0  0.991515  0
H  H33  1  0.66264335  0.98241688  0.75114134  1  0.114671  0  0.115231  0.12669  0  0.991526  0
H  H34  1  0.33735615  0.24885883  0.98241710  1  0.114668  0  0.11521  0.126656  0  0.991501  0
H  H35  1  0.33735546  0.75114048  0.01758283  1  0.114675  0  0.115221  0.126604  0  0.991552  0
H  H36  1  0.83735670  0.48241845  0.74886013  1  0.114671  0  0.115224  0.126618  0  0.99156  0
H  H37  1  0.83735730  0.51758173  0.25114011  1  0.114658  0  0.115219  0.126605  0  0.991572  0
H  H38  1  0.16264397  0.25113894  0.48241760  1  0.114657  0  0.115233  0.126605  0  0.99154  0
H  H39  1  0.16264333  0.74886028  0.51758242  1  0.114668  0  0.115222  0.126615  0  0.991514  0
H  H40  1  0.19186612  0.11661039  0.03691479  1  0.609029  0  0.313315  0.415153  0  0.898961  0
H  H41  1  0.19186597  0.88339001  0.96308580  1  0.609028  0  0.313257  0.415131  0  0.899014  0
H  H42  1  0.80813423  0.03691474  0.88338994  1  0.609031  0  0.313303  0.415133  0  0.898995  0
H  H43  1  0.80813381  0.96308485  0.11660973  1  0.609032  0  0.313301  0.415141  0  0.898984  0
H  H44  1  0.30813618  0.38338939  0.53691400  1  0.609043  0  0.313262  0.415113  0  0.899039  0
H  H45  1  0.30813536  0.61661049  0.46308653  1  0.609023  0  0.313257  0.415112  0  0.899045  0
H  H46  1  0.69186615  0.46308603  0.38338969  1  0.609028  0  0.313242  0.415088  0  0.899081  0
H  H47  1  0.69186715  0.53691407  0.61661063  1  0.60902  0  0.313293  0.415166  0  0.898952  0
H  H48  1  0.22350086  0.87138640  0.24497226  1  0.621836  0  0.316805  0.403165  0  0.898781  0
H  H49  1  0.22350178  0.12861344  0.75502774  1  0.621839  0  0.316806  0.403158  0  0.8988  0
H  H50  1  0.77649887  0.24497211  0.12861364  1  0.621839  0  0.316805  0.403166  0  0.89878  0
H  H51  1  0.77649745  0.75502746  0.87138605  1  0.621856  0  0.316858  0.403255  0  0.898676  0
H  H52  1  0.27650096  0.62861191  0.74497329  1  0.621854  0  0.316818  0.403184  0  0.89877  0
H  H53  1  0.27650121  0.37138853  0.25502667  1  0.621858  0  0.316821  0.403193  0  0.898761  0
H  H54  1  0.72350091  0.25502639  0.62861204  1  0.621868  0  0.31685  0.403207  0  0.898733  0
H  H55  1  0.72350058  0.74497315  0.37138767  1  0.621856  0  0.316816  0.403193  0  0.898759  0
H  H56  1  0.38376817  0.91537452  0.23194850  1  0.651661  0  0.299295  0.389907  0  0.942082  0
H  H57  1  0.38376897  0.08462599  0.76805199  1  0.651657  0  0.299294  0.38992  0  0.94206  0
H  H58  1  0.61623165  0.23194825  0.08462506  1  0.651662  0  0.29929  0.389908  0  0.942077  0
H  H59  1  0.61623134  0.76805181  0.91537472  1  0.651665  0  0.299299  0.389906  0  0.942067  0
H  H60  1  0.11623249  0.58462494  0.73194895  1  0.651666  0  0.299269  0.389814  0  0.942189  0
H  H61  1  0.11623164  0.41537542  0.26805110  1  0.651665  0  0.299288  0.389876  0  0.942116  0
H  H62  1  0.88376822  0.26805133  0.58462515  1  0.65166  0  0.299253  0.389796  0  0.942217  0
H  H63  1  0.88376895  0.73194830  0.41537506  1  0.651659  0  0.299289  0.389884  0  0.942098  0
C  C64  1  0.54185297  0.12802390  0.23760560  1  -0.233256  0  -0.016491  -0.10435  0  3.99566  0
C  C65  1  0.54185560  0.87197728  0.76239480  1  -0.233271  0  -0.016475  -0.104321  0  3.995673  0
C  C66  1  0.45814388  0.23760579  0.87197763  1  -0.23324  0  -0.016512  -0.10439  0  3.995547  0
C  C67  1  0.45814297  0.76239418  0.12802282  1  -0.233269  0  -0.016497  -0.104331  0  3.995562  0
C  C68  1  0.95814420  0.37197832  0.73760645  1  -0.233219  0  -0.016484  -0.104288  0  3.995555  0
C  C69  1  0.95814503  0.62802193  0.26239431  1  -0.233232  0  -0.016438  -0.104221  0  3.995545  0
C  C70  1  0.04185531  0.26239293  0.37197647  1  -0.233254  0  -0.016505  -0.104412  0  3.995644  0
C  C71  1  0.04185675  0.73760739  0.62802362  1  -0.232886  0  -0.016534  -0.104456  0  3.995636  0
C  C72  1  0.49928532  0.19811258  0.27244311  1  0.070042  0  -0.076704  -0.102764  0  3.967789  0
C  C73  1  0.49928668  0.80188858  0.72755673  1  0.070066  0  -0.076739  -0.102794  0  3.967809  0
C  C74  1  0.50071170  0.27244262  0.80188734  1  0.07006  0  -0.076702  -0.102775  0  3.967673  0
C  C75  1  0.50071172  0.72755737  0.19811192  1  0.070072  0  -0.076696  -0.102795  0  3.967713  0
C  C76  1  0.00071175  0.30188826  0.77244348  1  0.070067  0  -0.076728  -0.102852  0  3.967768  0
C  C77  1  0.00071164  0.69811145  0.22755663  1  0.070076  0  -0.076751  -0.102891  0  3.967803  0
C  C78  1  0.99928886  0.22755507  0.30188819  1  0.070062  0  -0.076698  -0.102743  0  3.967704  0
C  C79  1  0.99929023  0.77244462  0.69811254  1  0.070116  0  -0.076684  -0.102797  0  3.967643  0
C  C80  1  0.54654802  0.21298475  0.34909046  1  -0.072151  0  -0.013626  -0.0359  0  3.954751  0
C  C81  1  0.54654952  0.78701527  0.65090994  1  -0.072131  0  -0.013626  -0.035951  0  3.954819  0
C  C82  1  0.45345138  0.34909004  0.78701421  1  -0.072146  0  -0.013653  -0.035936  0  3.954826  0
C  C83  1  0.45345120  0.65090934  0.21298624  1  -0.072134  0  -0.013666  -0.035946  0  3.954773  0
C  C84  1  0.95345243  0.28701595  0.84909055  1  -0.072106  0  -0.013625  -0.035894  0  3.954723  0
C  C85  1  0.95345253  0.71298488  0.15090904  1  -0.072135  0  -0.013627  -0.035869  0  3.954767  0
C  C86  1  0.04655036  0.15090792  0.28701632  1  -0.07205  0  -0.01356  -0.035834  0  3.95474  0
C  C87  1  0.04655069  0.84909299  0.71298494  1  -0.07203  0  -0.013567  -0.035752  0  3.954612  0
C  C88  1  0.50160340  0.28750132  0.38825680  1  1.608457  0  0.233294  0.640319  0  4.18608  0
C  C89  1  0.50160481  0.71249867  0.61174188  1  1.608288  0  0.233321  0.640393  0  4.186065  0
C  C90  1  0.49839265  0.38825803  0.71249896  1  1.608251  0  0.233247  0.640303  0  4.186174  0
C  C91  1  0.49839338  0.61174196  0.28750088  1  1.608245  0  0.233296  0.640391  0  4.186104  0
C  C92  1  0.99839697  0.21249946  0.88825788  1  1.608435  0  0.233311  0.640339  0  4.185989  0
C  C93  1  0.99839615  0.78750140  0.11174285  1  1.608447  0  0.233308  0.64032  0  4.186204  0
C  C94  1  0.00160338  0.11174153  0.21249868  1  1.60821  0  0.23329  0.64036  0  4.186069  0
C  C95  1  0.00160363  0.88825993  0.78750085  1  1.60817  0  0.233283  0.640376  0  4.18605  0
C  C96  1  0.63762044  0.15804035  0.38938239  1  -0.123134  0  -0.069164  -0.074209  0  3.91758  0
C  C97  1  0.63762098  0.84195914  0.61061738  1  -0.123123  0  -0.069149  -0.074135  0  3.917538  0
C  C98  1  0.36238002  0.38938272  0.84195925  1  -0.123121  0  -0.06914  -0.074141  0  3.91755  0
C  C99  1  0.36237869  0.61061720  0.15804067  1  -0.123116  0  -0.069134  -0.074129  0  3.917514  0
C  C100  1  0.86237993  0.34196101  0.88938439  1  -0.123154  0  -0.069186  -0.074211  0  3.917564  0
C  C101  1  0.86237999  0.65803919  0.11061641  1  -0.123118  0  -0.069186  -0.074235  0  3.917543  0
C  C102  1  0.13761924  0.11061593  0.34196123  1  -0.123149  0  -0.069215  -0.074276  0  3.917609  0
C  C103  1  0.13762214  0.88938444  0.65803881  1  -0.123133  0  -0.069195  -0.07428  0  3.917565  0
C  C104  1  0.67961475  0.08806879  0.35345117  1  0.019636  0  -0.082645  -0.078729  0  3.995053  0
C  C105  1  0.67961537  0.91193247  0.64654741  1  0.019626  0  -0.082712  -0.078862  0  3.995031  0
C  C106  1  0.32038437  0.35345275  0.91193242  1  0.019641  0  -0.082708  -0.07885  0  3.994997  0
C  C107  1  0.32038328  0.64654655  0.08806752  1  0.019615  0  -0.082697  -0.078828  0  3.995039  0
C  C108  1  0.82038570  0.41193308  0.85345217  1  0.019608  0  -0.08266  -0.078768  0  3.995101  0
C  C109  1  0.82038552  0.58806709  0.14654691  1  0.019607  0  -0.082661  -0.078777  0  3.995109  0
C  C110  1  0.17961474  0.14654662  0.41193328  1  0.019611  0  -0.082679  -0.078775  0  3.99504  0
C  C111  1  0.17961535  0.85345319  0.58806616  1  0.019617  0  -0.082646  -0.078716  0  3.995012  0
C  C112  1  0.63111705  0.07213903  0.27741855  1  0.031673  0  -0.06977  -0.061936  0  3.925454  0
C  C113  1  0.63111872  0.92786162  0.72258180  1  0.031666  0  -0.069748  -0.061962  0  3.925374  0
C  C114  1  0.36888086  0.27741774  0.92786197  1  0.031645  0  -0.069732  -0.061893  0  3.925315  0
C  C115  1  0.36887997  0.72258159  0.07213853  1  0.031678  0  -0.069763  -0.061885  0  3.925382  0
C  C116  1  0.86887886  0.42786268  0.77741956  1  0.031609  0  -0.069776  -0.061932  0  3.925475  0
C  C117  1  0.86888200  0.57213693  0.22258007  1  0.031662  0  -0.069761  -0.061901  0  3.92544  0
C  C118  1  0.13111940  0.22258108  0.42786126  1  0.031682  0  -0.069784  -0.061875  0  3.925413  0
C  C119  1  0.13111870  0.77741870  0.57213820  1  0.031651  0  -0.069777  -0.061888  0  3.925365  0
S  S120  1  0.47978571  0.10889746  0.14078777  1  3.192383  0  0.555377  1.25465  0  6.106535  0
S  S121  1  0.47978699  0.89110193  0.85921208  1  3.192371  0  0.555386  1.254712  0  6.106477  0
S  S122  1  0.52021463  0.14078787  0.89110264  1  3.192381  0  0.555408  1.25477  0  6.106393  0
S  S123  1  0.52021398  0.85921155  0.10889777  1  3.192375  0  0.555363  1.254684  0  6.106508  0
S  S124  1  0.02021283  0.39110136  0.64078831  1  3.192376  0  0.555309  1.254646  0  6.106546  0
S  S125  1  0.02021339  0.60889836  0.35921237  1  3.192449  0  0.5553  1.254672  0  6.106496  0
S  S126  1  0.97978691  0.35921117  0.39110202  1  3.192488  0  0.555332  1.25461  0  6.106627  0
S  S127  1  0.97978700  0.64078910  0.60889872  1  3.192191  0  0.555282  1.254609  0  6.106536  0
O  O128  1  0.34890619  0.05368843  0.14755048  1  -1.350528  0  -0.401984  -0.680715  0  2.38345  0
O  O129  1  0.34890643  0.94631090  0.85244945  1  -1.350494  0  -0.401964  -0.680718  0  2.383437  0
O  O130  1  0.65109284  0.14755070  0.94631038  1  -1.35052  0  -0.40195  -0.680718  0  2.383458  0
O  O131  1  0.65109348  0.85244880  0.05368938  1  -1.350511  0  -0.40197  -0.680736  0  2.383466  0
O  O132  1  0.15109468  0.44630983  0.64754990  1  -1.350481  0  -0.401943  -0.680701  0  2.383402  0
O  O133  1  0.15109396  0.55368996  0.35245072  1  -1.35049  0  -0.401943  -0.680706  0  2.383456  0
O  O134  1  0.84890857  0.35244903  0.44630982  1  -1.350497  0  -0.401925  -0.680658  0  2.383495  0
O  O135  1  0.84890762  0.64755057  0.55369099  1  -1.350584  0  -0.401914  -0.680668  0  2.383417  0
O  O136  1  0.61651164  0.07232007  0.10213538  1  -1.342428  0  -0.395215  -0.705607  0  2.346523  0
O  O137  1  0.61651174  0.92767999  0.89786498  1  -1.34244  0  -0.395224  -0.705636  0  2.346497  0
O  O138  1  0.38348861  0.10213492  0.92768057  1  -1.342439  0  -0.395238  -0.705668  0  2.346506  0
O  O139  1  0.38348931  0.89786501  0.07231934  1  -1.342433  0  -0.395231  -0.705647  0  2.346495  0
O  O140  1  0.88348819  0.42768013  0.60213522  1  -1.342426  0  -0.395229  -0.705641  0  2.346525  0
O  O141  1  0.88348859  0.57232008  0.39786441  1  -1.34243  0  -0.39521  -0.705633  0  2.346465  0
O  O142  1  0.11651282  0.39786391  0.42768023  1  -1.342425  0  -0.395222  -0.705595  0  2.346454  0
O  O143  1  0.11651171  0.60213587  0.57232041  1  -1.342408  0  -0.395198  -0.705583  0  2.346417  0
O  O144  1  0.43150587  0.18328984  0.10605007  1  -1.333878  0  -0.323703  -0.593958  0  2.146993  0
O  O145  1  0.43150808  0.81670953  0.89394922  1  -1.333881  0  -0.323688  -0.59394  0  2.146956  0
O  O146  1  0.56849110  0.10604997  0.81670968  1  -1.333872  0  -0.323699  -0.593977  0  2.146974  0
O  O147  1  0.56849154  0.89394948  0.18329012  1  -1.333865  0  -0.323666  -0.593928  0  2.147008  0
O  O148  1  0.06848803  0.31670833  0.60605160  1  -1.333882  0  -0.323619  -0.593887  0  2.147045  0
O  O149  1  0.06848987  0.68329142  0.39394847  1  -1.333967  0  -0.323631  -0.593939  0  2.147021  0
O  O150  1  0.93151178  0.39394833  0.31670974  1  -1.333922  0  -0.323665  -0.593906  0  2.147079  0
O  O151  1  0.93151397  0.60605191  0.68329103  1  -1.33394  0  -0.323627  -0.593882  0  2.147042  0
O  O152  1  0.43781259  0.34132812  0.34749404  1  -1.207989  0  -0.390908  -0.688646  0  2.267268  0
O  O153  1  0.43781379  0.65867300  0.65250525  1  -1.207945  0  -0.390909  -0.688661  0  2.267319  0
O  O154  1  0.56218475  0.34749628  0.65867328  1  -1.207877  0  -0.390849  -0.688607  0  2.267366  0
O  O155  1  0.56218428  0.65250433  0.34132653  1  -1.207892  0  -0.390853  -0.688633  0  2.267364  0
O  O156  1  0.06218666  0.15867346  0.84749409  1  -1.207929  0  -0.390892  -0.688631  0  2.267274  0
O  O157  1  0.06218587  0.84132687  0.15250599  1  -1.207942  0  -0.390892  -0.688626  0  2.267354  0
O  O158  1  0.93781495  0.15250403  0.15867343  1  -1.207896  0  -0.390863  -0.688627  0  2.267383  0
O  O159  1  0.93781146  0.84749795  0.84132559  1  -1.20785  0  -0.390846  -0.688633  0  2.267361  0
O  O160  1  0.53021411  0.29337378  0.46058814  1  -1.209356  0  -0.397634  -0.662793  0  2.299715  0
O  O161  1  0.53021567  0.70662623  0.53941110  1  -1.209243  0  -0.397665  -0.662841  0  2.299741  0
O  O162  1  0.46978313  0.46058887  0.70662725  1  -1.209239  0  -0.39763  -0.662814  0  2.299737  0
O  O163  1  0.46978368  0.53941052  0.29337319  1  -1.209259  0  -0.397654  -0.662866  0  2.299745  0
O  O164  1  0.96978610  0.20662598  0.96058865  1  -1.209388  0  -0.397647  -0.662801  0  2.299728  0
O  O165  1  0.96978663  0.79337370  0.03941152  1  -1.209373  0  -0.397654  -0.662823  0  2.29974  0
O  O166  1  0.03021526  0.03941008  0.20662681  1  -1.209264  0  -0.397661  -0.662847  0  2.299665  0
O  O167  1  0.03021684  0.96059081  0.79337212  1  -1.209304  0  -0.397668  -0.662854  0  2.299696  0
O  O168  1  0.11989057  0.07394789  0.02523353  1  -1.27134  0  -0.779387  -1.136647  0  2.077789  0
O  O169  1  0.11989167  0.92605130  0.97476652  1  -1.270435  0  -0.779316  -1.136624  0  2.077832  0
O  O170  1  0.88010968  0.02523297  0.92605115  1  -1.270452  0  -0.779368  -1.136653  0  2.07784  0
O  O171  1  0.88010938  0.97476666  0.07394849  1  -1.271324  0  -0.779376  -1.136666  0  2.077792  0
O  O172  1  0.38010940  0.42605128  0.52523337  1  -1.270446  0  -0.779329  -1.136629  0  2.077909  0
O  O173  1  0.38010963  0.57394806  0.47476770  1  -1.27131  0  -0.779339  -1.136622  0  2.077899  0
O  O174  1  0.61989178  0.47476730  0.42605154  1  -1.271323  0  -0.779317  -1.136591  0  2.077866  0
O  O175  1  0.61989167  0.52523276  0.57394881  1  -1.270439  0  -0.77935  -1.136661  0  2.077769  0
O  O176  1  0.26923556  0.92326474  0.23937029  1  -1.254741  0  -0.609697  -0.807616  0  2.021176  0
O  O177  1  0.26923518  0.07673512  0.76062968  1  -1.254723  0  -0.60971  -0.807619  0  2.021176  0
O  O178  1  0.73076428  0.23937003  0.07673538  1  -1.25475  0  -0.609692  -0.807609  0  2.021149  0
O  O179  1  0.73076629  0.76062951  0.92326434  1  -1.254761  0  -0.60976  -0.807718  0  2.021137  0
O  O180  1  0.23076627  0.57673356  0.73937066  1  -1.254751  0  -0.60968  -0.807539  0  2.021236  0
O  O181  1  0.23076545  0.42326628  0.26062932  1  -1.254755  0  -0.609705  -0.80762  0  2.021225  0
O  O182  1  0.76923443  0.26062953  0.57673377  1  -1.254789  0  -0.609702  -0.807565  0  2.021259  0
O  O183  1  0.76923516  0.73937062  0.42326592  1  -1.254773  0  -0.609707  -0.80763  0  2.021213  0
