# generated using pymatgen
data_KCu2AgH40C40(N3O4)2
_symmetry_space_group_name_H-M   'P 1'
_cell_length_a   9.74105481
_cell_length_b   10.27982012
_cell_length_c   10.27981353
_cell_angle_alpha   96.34990357
_cell_angle_beta   100.97221024
_cell_angle_gamma   100.97235386
_symmetry_Int_Tables_number   1
_chemical_formula_structural   KCu2AgH40C40(N3O4)2
_chemical_formula_sum   'K1 Cu2 Ag1 H40 C40 N6 O8'
_cell_volume   980.51042206
_cell_formula_units_Z   1
loop_
 _symmetry_equiv_pos_site_id
 _symmetry_equiv_pos_as_xyz
  1  'x, y, z'
loop_
 _atom_site_type_symbol
 _atom_site_label
 _atom_site_symmetry_multiplicity
 _atom_site_fract_x
 _atom_site_fract_y
 _atom_site_fract_z
 _atom_site_occupancy
 _atom_site_hle17_ddec_charge
 _atom_site_hle17_ddec_spin_density
 _atom_site_hle17_ddec_sum_bond_order
 _atom_site_hle17_magmom
 _atom_site_hse06_10hf_ddec_charge
 _atom_site_hse06_10hf_ddec_spin_density
 _atom_site_hse06_10hf_ddec_sum_bond_order
 _atom_site_hse06_10hf_magmom
 _atom_site_hse06_ddec_charge
 _atom_site_hse06_ddec_spin_density
 _atom_site_hse06_ddec_sum_bond_order
 _atom_site_hse06_magmom
 _atom_site_pbe_cm5_charge
 _atom_site_pbe_ddec_charge
 _atom_site_pbe_ddec_spin_density
 _atom_site_pbe_ddec_sum_bond_order
 _atom_site_pbe_magmom
K  K0  1  0.99997148  0.99996723  0.99996750  1  0.932191  -5e-06  0.481124  0.0  0.873196  9e-06  0.667228  0.0  0.890459  -1.1e-05  0.646533  0.0  0.836042  0.860163  4e-06  0.682825  0.0
Cu  Cu1  1  0.67773313  0.10673489  0.10673366  1  0.807143  0.722133  1.893359  0.494  0.775948  0.800614  2.305214  0.606  0.867544  0.882061  2.232645  0.695  0.734809  0.721709  0.74294  2.357799  0.548
Cu  Cu2  1  0.32227530  0.89327455  0.89327618  1  0.807137  -0.722112  1.893241  -0.494  0.775972  -0.800616  2.305112  -0.606  0.867565  -0.882052  2.232561  -0.695  0.734851  0.721759  -0.742944  2.357633  -0.548
Ag  Ag3  1  0.00001107  0.49999337  0.49998948  1  0.306584  2e-06  1.925037  0.0  0.216247  -0.0  2.361784  0.0  0.229776  -1e-06  2.325982  0.0  0.343673  0.206481  -0.0  2.385579  0.0
H  H4  1  0.34348230  0.12705681  0.12705728  1  0.106781  0.000101  0.963106  0.0  0.115577  4.1e-05  1.036486  0.0  0.11953  6.4e-05  1.033586  0.0  0.102346  0.112278  -8e-06  1.039118  0.0
H  H5  1  0.65650568  0.87294558  0.87294327  1  0.106809  -9.4e-05  0.963091  0.0  0.115593  -4.1e-05  1.036485  0.0  0.119532  -6.4e-05  1.033589  0.0  0.102344  0.112301  8e-06  1.039114  0.0
H  H6  1  0.33860002  0.25483680  0.25483620  1  0.084521  -0.000199  0.908565  0.0  0.110491  -8.9e-05  0.954789  0.0  0.111258  -7.9e-05  0.955148  0.0  0.10356  0.110077  -0.000105  0.954435  0.0
H  H7  1  0.66139249  0.74516258  0.74516483  1  0.084575  0.000197  0.908595  0.0  0.110592  8.9e-05  0.954769  0.0  0.11134  7.9e-05  0.955152  0.0  0.103605  0.110179  0.000105  0.954419  0.0
H  H8  1  0.84389088  0.54721842  0.20745133  1  0.104519  0.000556  0.975541  0.001  0.11359  0.000315  1.041305  0.0  0.115864  0.000197  1.040503  0.0  0.098226  0.112008  0.000428  1.042017  0.001
H  H9  1  0.15612020  0.79254802  0.45279231  1  0.104506  -0.000553  0.975541  -0.001  0.113548  -0.000315  1.041341  0.0  0.115838  -0.000197  1.040503  0.0  0.098188  0.111967  -0.000428  1.042061  -0.001
H  H10  1  0.15612043  0.45279001  0.79254919  1  0.1045  -0.000552  0.975601  -0.001  0.113571  -0.000315  1.041364  0.0  0.115852  -0.000197  1.040544  0.0  0.098207  0.111991  -0.000428  1.042073  -0.001
H  H11  1  0.84388837  0.20744839  0.54721516  1  0.10448  0.000554  0.975562  0.001  0.113552  0.000315  1.041323  0.0  0.115828  0.000197  1.040517  0.0  0.098208  0.111967  0.000428  1.042042  0.001
H  H12  1  0.61271301  0.75164161  0.45062272  1  0.087882  0.000276  0.961559  0.0  0.10051  0.000102  1.021836  0.0  0.102728  5.8e-05  1.020985  0.0  0.09677  0.099105  0.000174  1.021845  0.0
H  H13  1  0.38728224  0.54937000  0.24835969  1  0.087876  -0.000275  0.961486  0.0  0.10046  -0.000102  1.021815  0.0  0.102676  -5.7e-05  1.020968  0.0  0.096756  0.099051  -0.000174  1.02183  0.0
H  H14  1  0.38728704  0.24835877  0.54937393  1  0.087859  -0.000277  0.961505  0.0  0.100469  -0.000102  1.021802  0.0  0.102687  -5.7e-05  1.020952  0.0  0.096742  0.099064  -0.000174  1.021814  0.0
H  H15  1  0.61272538  0.45063141  0.75164329  1  0.087866  0.000278  0.961471  0.0  0.100489  0.000102  1.021763  0.0  0.102707  5.7e-05  1.020914  0.0  0.096759  0.099073  0.000174  1.021791  0.0
H  H16  1  0.00969050  0.61239771  0.09090674  1  0.07919  5.6e-05  0.962706  0.0  0.096452  3.1e-05  1.029587  0.0  0.095521  2.1e-05  1.032111  0.0  0.09722  0.097166  3.3e-05  1.027811  0.0
H  H17  1  0.99029868  0.90909464  0.38761682  1  0.079121  -5.2e-05  0.9628  0.0  0.096395  -3e-05  1.02968  0.0  0.095463  -2.1e-05  1.032208  0.0  0.097205  0.09712  -3.3e-05  1.0279  0.0
H  H18  1  0.99030327  0.38761169  0.90909561  1  0.079168  -5.4e-05  0.962761  0.0  0.096454  -3.1e-05  1.029611  0.0  0.095525  -2.1e-05  1.032137  0.0  0.097216  0.097172  -3.3e-05  1.027832  0.0
H  H19  1  0.00968933  0.09090777  0.61239833  1  0.079185  4.9e-05  0.962715  0.0  0.096432  3.1e-05  1.029606  0.0  0.095501  2.1e-05  1.032129  0.0  0.097223  0.097152  3.3e-05  1.027828  0.0
H  H20  1  0.97644072  0.64959236  0.92256216  1  0.106689  9e-06  0.938187  0.0  0.122945  1e-05  0.998794  0.0  0.12347  2e-06  0.999031  0.0  0.108716  0.122499  1.8e-05  0.998702  0.0
H  H21  1  0.02355336  0.07743060  0.35040305  1  0.106705  -1.1e-05  0.938186  0.0  0.122944  -1e-05  0.998801  0.0  0.123471  -1e-06  0.999038  0.0  0.108735  0.122496  -1.8e-05  0.998716  0.0
H  H22  1  0.02355540  0.35040000  0.07743194  1  0.106743  -1.5e-05  0.938177  0.0  0.12297  -1e-05  0.9988  0.0  0.123497  -2e-06  0.999037  0.0  0.108736  0.122521  -1.8e-05  0.998712  0.0
H  H23  1  0.97643776  0.92256276  0.64959221  1  0.106737  1e-05  0.938156  0.0  0.122939  1e-05  0.99882  0.0  0.123464  2e-06  0.999059  0.0  0.108706  0.122496  1.8e-05  0.998726  0.0
H  H24  1  0.84305055  0.53422332  0.97631389  1  0.07171  -6.9e-05  0.973686  0.0  0.087797  -5.7e-05  1.044129  0.0  0.087169  -4.2e-05  1.045414  0.0  0.091069  0.088343  -6.8e-05  1.043187  0.0
H  H25  1  0.15694753  0.02368364  0.46577123  1  0.071734  7.4e-05  0.973645  0.0  0.087778  5.7e-05  1.044144  0.0  0.087151  4.2e-05  1.04543  0.0  0.091082  0.088329  6.8e-05  1.043201  0.0
H  H26  1  0.15694918  0.46577106  0.02368594  1  0.071726  6.6e-05  0.973618  0.0  0.087764  5.7e-05  1.044134  0.0  0.087139  4.2e-05  1.045417  0.0  0.091071  0.088311  6.8e-05  1.043195  0.0
H  H27  1  0.84304915  0.97631574  0.53422471  1  0.071698  -7.7e-05  0.973698  0.0  0.087795  -5.7e-05  1.044112  0.0  0.087169  -4.3e-05  1.045396  0.0  0.09107  0.088342  -6.8e-05  1.043173  0.0
H  H28  1  0.72758886  0.56061323  0.40127000  1  0.073739  -2.8e-05  0.985865  0.0  0.083193  -1.3e-05  1.054403  0.0  0.086453  -8e-06  1.052076  0.0  0.083927  0.081055  -1.3e-05  1.055615  0.0
H  H29  1  0.27242896  0.59873328  0.43939856  1  0.07369  2.5e-05  0.985841  0.0  0.083146  1.3e-05  1.054403  0.0  0.086404  7e-06  1.052072  0.0  0.08391  0.081008  1.3e-05  1.055617  0.0
H  H30  1  0.27243361  0.43939822  0.59873673  1  0.07368  2.5e-05  0.985853  0.0  0.083136  1.3e-05  1.054415  0.0  0.086394  8e-06  1.052083  0.0  0.083913  0.080997  1.3e-05  1.055629  0.0
H  H31  1  0.72759678  0.40127418  0.56061318  1  0.073735  -2.7e-05  0.985842  0.0  0.083194  -1.3e-05  1.054385  0.0  0.086449  -8e-06  1.052062  0.0  0.083894  0.081053  -1.3e-05  1.055605  0.0
H  H32  1  0.57642725  0.22827232  0.38446709  1  0.054899  0.000328  0.937962  0.001  0.077592  0.000101  0.997872  0.0  0.075881  0.000152  1.000341  0.0  0.098997  0.078753  5.3e-05  0.995227  0.0
H  H33  1  0.42356818  0.61552898  0.77173424  1  0.054882  -0.000328  0.938014  -0.001  0.077598  -0.000101  0.9979  0.0  0.075889  -0.000152  1.000374  0.0  0.098987  0.078761  -5.3e-05  0.995248  0.0
H  H34  1  0.42356676  0.77172906  0.61552859  1  0.054895  -0.000331  0.937977  -0.001  0.077575  -0.000101  0.997886  0.0  0.075871  -0.000152  1.000354  0.0  0.098985  0.078715  -5.3e-05  0.995257  0.0
H  H35  1  0.57642516  0.38446941  0.22827072  1  0.054929  0.00033  0.937957  0.001  0.077616  0.0001  0.997858  0.0  0.075905  0.000152  1.000327  0.0  0.098999  0.078778  5.3e-05  0.995215  0.0
H  H36  1  0.43053876  0.08965096  0.36797117  1  0.051526  0.003583  0.941609  0.004  0.068842  0.002586  1.008252  0.002  0.068705  0.001887  1.007955  0.002  0.099611  0.068606  0.003079  1.00887  0.003
H  H37  1  0.56945896  0.63203509  0.91035543  1  0.051526  -0.003583  0.941625  -0.004  0.068863  -0.002585  1.008248  -0.002  0.068727  -0.001886  1.007955  -0.002  0.099611  0.068623  -0.003078  1.008866  -0.003
H  H38  1  0.56945840  0.91035044  0.63203188  1  0.051513  -0.003582  0.941611  -0.004  0.068841  -0.002586  1.008216  -0.002  0.068705  -0.001886  1.007924  -0.002  0.099612  0.068603  -0.003079  1.008835  -0.003
H  H39  1  0.43053727  0.36797132  0.08964898  1  0.051537  0.003585  0.941627  0.004  0.06885  0.002586  1.008252  0.002  0.068713  0.001887  1.007953  0.002  0.099603  0.068613  0.003079  1.008871  0.003
H  H40  1  0.53937192  0.94058487  0.39823011  1  0.051994  0.006907  0.943802  0.008  0.063834  0.00467  1.015646  0.005  0.064772  0.003467  1.012059  0.004  0.109515  0.062746  0.005586  1.01897  0.006
H  H41  1  0.46062300  0.60176532  0.05941095  1  0.052009  -0.006906  0.943767  -0.008  0.063813  -0.00467  1.015644  -0.005  0.064753  -0.003467  1.012056  -0.004  0.109508  0.062723  -0.005587  1.018972  -0.006
H  H42  1  0.46062652  0.05940850  0.60176646  1  0.052034  -0.006907  0.943759  -0.008  0.063834  -0.004671  1.015634  -0.005  0.064773  -0.003467  1.012047  -0.004  0.109525  0.062746  -0.005587  1.018962  -0.006
H  H43  1  0.53937473  0.39823406  0.94058420  1  0.052018  0.006905  0.943854  0.008  0.063853  0.00467  1.015703  0.005  0.06479  0.003467  1.012119  0.004  0.109541  0.062766  0.005587  1.019027  0.006
C  C44  1  0.67185722  0.85155268  0.28845475  1  -0.119468  0.005699  3.866022  0.007  -0.103288  0.002421  4.106915  0.004  -0.118747  0.001511  4.134683  0.003  -0.045136  -0.09295  0.003374  4.087934  0.005
C  C45  1  0.32814335  0.71154443  0.14845318  1  -0.119522  -0.005686  3.86606  -0.007  -0.103234  -0.00243  4.106834  -0.004  -0.118692  -0.001512  4.134605  -0.003  -0.045143  -0.092892  -0.003374  4.08782  -0.005
C  C46  1  0.32814923  0.14845274  0.71154846  1  -0.119638  -0.005697  3.866061  -0.007  -0.103381  -0.002441  4.106913  -0.004  -0.118834  -0.001494  4.134673  -0.003  -0.045226  -0.093039  -0.003374  4.087907  -0.005
C  C47  1  0.67186566  0.28846300  0.85155459  1  -0.119522  0.005708  3.865947  0.007  -0.103241  0.00244  4.106739  0.004  -0.118686  0.001495  4.134482  0.003  -0.045167  -0.092896  0.003375  4.087726  0.005
C  C48  1  0.74416779  0.84966295  0.18049042  1  0.26008  -0.003993  3.85614  -0.008  0.247461  0.000647  4.116575  -0.002  0.267024  -0.000199  4.132511  -0.002  0.08962  0.234467  0.001354  4.105274  -0.002
C  C49  1  0.25583142  0.81950452  0.15034074  1  0.260208  0.003993  3.855942  0.008  0.247452  -0.00064  4.116441  0.002  0.267013  0.000206  4.13238  0.002  0.089672  0.234474  -0.001354  4.10511  0.002
C  C50  1  0.25583865  0.15034246  0.81950986  1  0.260275  0.004006  3.855871  0.008  0.247518  -0.000628  4.116484  0.002  0.267079  0.000187  4.132422  0.002  0.089706  0.234541  -0.001354  4.105157  0.002
C  C51  1  0.74417539  0.18049790  0.84966609  1  0.260081  -0.004  3.856066  -0.008  0.24742  0.000633  4.1165  -0.002  0.266977  -0.000189  4.132446  -0.002  0.089622  0.234433  0.001355  4.10517  -0.002
C  C52  1  0.41126357  0.20625537  0.20625414  1  -0.166521  0.000863  3.683008  0.001  -0.210539  0.000826  3.945681  0.001  -0.213274  0.000672  3.955509  0.001  -0.166465  -0.208193  0.000957  3.937987  0.001
C  C53  1  0.58872789  0.79374400  0.79374476  1  -0.166675  -0.000869  3.683064  -0.001  -0.210783  -0.000827  3.945836  -0.001  -0.213453  -0.000671  3.955623  -0.001  -0.166533  -0.208451  -0.000957  3.938151  -0.001
C  C54  1  0.80403387  0.73470184  0.15125832  1  0.139534  0.01183  3.773787  0.013  0.131793  0.006184  4.030945  0.008  0.136042  0.004519  4.046506  0.006  0.063181  0.128717  0.007326  4.021304  0.009
C  C55  1  0.19596161  0.84873713  0.26530036  1  0.139242  -0.011829  3.773996  -0.013  0.13163  -0.006188  4.030984  -0.008  0.135865  -0.004529  4.046551  -0.006  0.063177  0.12856  -0.007327  4.021325  -0.009
C  C56  1  0.19596770  0.26530056  0.84874174  1  0.139359  -0.011833  3.773839  -0.013  0.131663  -0.00619  4.030987  -0.008  0.135903  -0.004519  4.046555  -0.006  0.063152  0.128571  -0.007326  4.02135  -0.009
C  C57  1  0.80403718  0.15126227  0.73470276  1  0.139495  0.011836  3.773787  0.013  0.131761  0.006188  4.030956  0.008  0.135999  0.004518  4.046526  0.006  0.063218  0.128701  0.007327  4.021293  0.009
C  C58  1  0.79662813  0.63285629  0.22913707  1  -0.181734  -0.004433  3.802295  -0.004  -0.207981  -0.001158  4.065374  -0.001  -0.208436  -0.001308  4.085937  -0.001  -0.115242  -0.208672  -0.001028  4.053251  -0.001
C  C59  1  0.20337789  0.77085876  0.36715365  1  -0.181646  0.004423  3.802224  0.004  -0.207919  0.001158  4.065289  0.001  -0.208372  0.001319  4.085847  0.001  -0.115228  -0.208624  0.001028  4.053168  0.001
C  C60  1  0.20338191  0.36715113  0.77086213  1  -0.181694  0.004427  3.802141  0.004  -0.207966  0.001157  4.06525  0.001  -0.208416  0.001313  4.08581  0.001  -0.115228  -0.208662  0.001028  4.053124  0.001
C  C61  1  0.79663114  0.22913966  0.63285509  1  -0.181758  -0.004433  3.802289  -0.004  -0.208008  -0.001157  4.065388  -0.001  -0.208462  -0.001308  4.085952  -0.001  -0.115298  -0.208702  -0.001028  4.053258  -0.001
C  C62  1  0.92654655  0.34505553  0.34505708  1  -0.099645  -0.001166  3.495342  -0.001  -0.062641  -0.00081  3.834244  -0.001  -0.057414  -0.000764  3.839671  -0.001  -0.048656  -0.065251  -0.000829  3.829981  -0.001
C  C63  1  0.07346013  0.65493282  0.65492777  1  -0.09975  0.001163  3.495031  0.001  -0.062722  0.00081  3.833928  0.001  -0.057501  0.000761  3.839369  0.001  -0.048724  -0.065333  0.000828  3.829656  0.001
C  C64  1  0.66788510  0.74696484  0.36789651  1  -0.108141  -0.004076  3.8243  -0.004  -0.131205  -0.001199  4.078036  -0.001  -0.128257  -0.001229  4.100676  -0.001  -0.106344  -0.132462  -0.001122  4.061173  -0.001
C  C65  1  0.33211903  0.63209934  0.25304187  1  -0.108017  0.004068  3.824195  0.004  -0.131059  0.001193  4.077892  0.001  -0.128113  0.001238  4.10053  0.001  -0.106242  -0.132321  0.001122  4.061028  0.001
C  C66  1  0.33212424  0.25303957  0.63210224  1  -0.10799  0.004073  3.824367  0.004  -0.131032  0.001196  4.078041  0.001  -0.12809  0.001231  4.100683  0.001  -0.106193  -0.1323  0.001122  4.061193  0.001
C  C67  1  0.66789429  0.36790409  0.74696721  1  -0.108078  -0.00409  3.82408  -0.004  -0.131174  -0.001198  4.077797  -0.001  -0.128231  -0.001227  4.100437  -0.001  -0.106303  -0.13243  -0.001122  4.060926  -0.001
C  C68  1  0.92754718  0.62619343  0.00709262  1  -0.0833  -0.000104  3.632707  0.0  -0.174852  -7.6e-05  3.890419  0.0  -0.168312  -6.1e-05  3.895761  0.0  -0.144069  -0.179034  -9.7e-05  3.886623  0.0
C  C69  1  0.07244311  0.99290131  0.37380589  1  -0.083228  9.2e-05  3.632759  0.0  -0.174805  8e-05  3.890567  0.0  -0.168284  5.7e-05  3.895912  0.0  -0.144085  -0.178989  9.7e-05  3.886788  0.0
C  C70  1  0.07244696  0.37380394  0.99290362  1  -0.083322  0.000117  3.632637  0.0  -0.174882  7.8e-05  3.890425  0.0  -0.168354  6.1e-05  3.895767  0.0  -0.144115  -0.179065  9.7e-05  3.886634  0.0
C  C71  1  0.92754616  0.00709306  0.62619402  1  -0.083344  -8.1e-05  3.632648  0.0  -0.174842  -7.9e-05  3.890389  0.0  -0.168312  -5.7e-05  3.895731  0.0  -0.144079  -0.179022  -9.7e-05  3.886603  0.0
C  C72  1  0.72974271  0.64026037  0.33949290  1  -0.112599  0.001016  3.883405  0.001  -0.129616  -0.000426  4.151746  0.0  -0.1364  -0.000279  4.175998  0.0  -0.124938  -0.12498  -0.000466  4.134962  0.0
C  C73  1  0.27026961  0.66050929  0.35974732  1  -0.112617  -0.001008  3.883497  -0.001  -0.129639  0.000434  4.151831  0.0  -0.136421  0.000269  4.176082  0.0  -0.124994  -0.125004  0.000466  4.135049  0.0
C  C74  1  0.27027315  0.35974506  0.66051102  1  -0.112614  -0.001007  3.88361  -0.001  -0.129645  0.000436  4.151948  0.0  -0.136426  0.000272  4.1762  0.0  -0.125015  -0.125005  0.000466  4.135165  0.0
C  C75  1  0.72974986  0.33949815  0.64026039  1  -0.112567  0.001025  3.883298  0.001  -0.12959  -0.000431  4.151643  0.0  -0.136372  -0.000277  4.175902  0.0  -0.124889  -0.124952  -0.000466  4.134864  0.0
C  C76  1  0.50084547  0.14670322  0.31196142  1  0.032087  0.001626  3.683694  0.001  -0.023853  0.001438  3.950299  0.001  -0.018204  0.0005  3.965582  0.0  -0.07012  -0.026646  0.002123  3.939391  0.001
C  C77  1  0.49914960  0.68803914  0.85329984  1  0.032192  -0.001623  3.683627  -0.001  -0.023791  -0.001437  3.950273  -0.001  -0.018153  -0.0005  3.96557  0.0  -0.070054  -0.026575  -0.002122  3.939359  -0.001
C  C78  1  0.49914786  0.85329516  0.68803868  1  0.032142  -0.00162  3.683683  -0.001  -0.023744  -0.001436  3.950177  -0.001  -0.018109  -0.0005  3.965476  0.0  -0.070085  -0.026516  -0.002122  3.939267  -0.001
C  C79  1  0.50084442  0.31196225  0.14670168  1  0.032004  0.001615  3.683762  0.001  -0.023876  0.001438  3.950342  0.001  -0.018217  0.000498  3.965623  0.0  -0.070098  -0.026667  0.002123  3.939435  0.001
C  C80  1  0.59659515  0.95454978  0.31636656  1  0.165616  -0.015623  3.714114  -0.015  0.125469  -0.004276  3.97401  -0.005  0.146519  -0.005181  3.985954  -0.006  0.071516  0.111554  -0.003575  3.966789  -0.004
C  C81  1  0.40340141  0.68363288  0.04545268  1  0.165521  0.015612  3.71429  0.015  0.125395  0.004277  3.974136  0.005  0.146443  0.005183  3.986078  0.006  0.071461  0.111471  0.003576  3.966921  0.004
C  C82  1  0.40340491  0.04545062  0.68363398  1  0.165604  0.015615  3.714239  0.015  0.125489  0.004277  3.974097  0.005  0.146537  0.005186  3.986043  0.006  0.071528  0.111565  0.003576  3.966878  0.004
C  C83  1  0.59659958  0.31637153  0.95455138  1  0.165502  -0.015618  3.71425  -0.015  0.12537  -0.004275  3.974126  -0.005  0.146424  -0.005184  3.986076  -0.006  0.071459  0.111449  -0.003575  3.966906  -0.004
N  N84  1  0.88291936  0.25586339  0.25586743  1  -0.424265  -0.00067  2.956113  0.001  -0.389816  -0.000748  3.210585  0.0  -0.407115  -0.000808  3.22277  0.0  -0.364569  -0.379354  -0.00075  3.203135  0.0
N  N85  1  0.11706663  0.74412594  0.74411869  1  -0.42421  0.000672  2.955704  -0.001  -0.389766  0.000748  3.210176  0.0  -0.407064  0.00081  3.222378  0.0  -0.364513  -0.37932  0.00075  3.20271  0.0
N  N86  1  0.58458836  0.05850043  0.25702119  1  -0.324938  0.085378  3.207057  0.102  -0.275959  0.057604  3.522641  0.074  -0.30993  0.049019  3.539473  0.067  -0.367595  -0.256475  0.061828  3.514213  0.077
N  N87  1  0.41540673  0.74297813  0.94150447  1  -0.324946  -0.085374  3.207064  -0.102  -0.275991  -0.057602  3.522687  -0.074  -0.309961  -0.04902  3.539529  -0.067  -0.367641  -0.256508  -0.061827  3.514254  -0.077
N  N88  1  0.41540670  0.94150096  0.74297760  1  -0.324987  -0.085372  3.207126  -0.102  -0.276055  -0.057603  3.522724  -0.074  -0.310028  -0.049024  3.539569  -0.067  -0.367659  -0.256567  -0.06183  3.514274  -0.077
N  N89  1  0.58459112  0.25702627  0.05849903  1  -0.324805  0.085381  3.207039  0.102  -0.275936  0.057602  3.522709  0.074  -0.309928  0.049022  3.539565  0.067  -0.367598  -0.256455  0.061831  3.514286  0.077
O  O90  1  0.86844153  0.73870748  0.04373777  1  -0.260679  0.000703  2.391935  0.0  -0.184497  0.000395  2.630227  0.0  -0.200631  0.000295  2.63378  0.0  -0.229625  -0.17332  0.000469  2.627611  0.0
O  O91  1  0.13153524  0.95624377  0.26128767  1  -0.260554  -0.000702  2.392094  0.0  -0.184352  -0.0004  2.630272  0.0  -0.200455  -0.000294  2.633809  0.0  -0.229504  -0.173187  -0.000469  2.627666  0.0
O  O92  1  0.13154480  0.26128785  0.95624809  1  -0.260544  -0.000707  2.391901  0.0  -0.184336  -0.0004  2.630122  0.0  -0.200457  -0.000295  2.63367  0.0  -0.229456  -0.173154  -0.000469  2.627505  0.0
O  O93  1  0.86844185  0.04373856  0.73870875  1  -0.260631  0.000704  2.391921  0.0  -0.184471  0.0004  2.630216  0.0  -0.200585  0.000293  2.633756  0.0  -0.229624  -0.173315  0.000469  2.627609  0.0
O  O94  1  0.75899517  0.94452626  0.10756460  1  -0.552315  0.09687  2.19196  0.123  -0.530063  0.062019  2.492152  0.087  -0.571524  0.0475  2.490472  0.071  -0.380775  -0.502742  0.071676  2.494004  0.097
O  O95  1  0.24100253  0.89243223  0.05547833  1  -0.552285  -0.096897  2.191707  -0.123  -0.53006  -0.062021  2.491942  -0.087  -0.571521  -0.047504  2.490274  -0.071  -0.380797  -0.502725  -0.071684  2.493708  -0.097
O  O96  1  0.24101151  0.05548016  0.89243876  1  -0.552377  -0.096887  2.191706  -0.123  -0.530076  -0.062017  2.491947  -0.087  -0.57154  -0.047505  2.49028  -0.071  -0.380807  -0.502751  -0.071682  2.493742  -0.097
O  O97  1  0.75900439  0.10757520  0.94453005  1  -0.552257  0.096871  2.191942  0.123  -0.529988  0.062013  2.492104  0.087  -0.57145  0.047509  2.490431  0.071  -0.38075  -0.502668  0.071683  2.493946  0.097
