# generated using pymatgen
data_Rb2H4C11N4O5
_symmetry_space_group_name_H-M   'P 1'
_cell_length_a   8.73212134
_cell_length_b   9.31942952
_cell_length_c   9.89164132
_cell_angle_alpha   104.07068424
_cell_angle_beta   107.34448337
_cell_angle_gamma   99.82083401
_symmetry_Int_Tables_number   1
_chemical_formula_structural   Rb2H4C11N4O5
_chemical_formula_sum   'Rb4 H8 C22 N8 O10'
_cell_volume   719.17381582
_cell_formula_units_Z   2
loop_
 _symmetry_equiv_pos_site_id
 _symmetry_equiv_pos_as_xyz
  1  'x, y, z'
loop_
 _atom_site_type_symbol
 _atom_site_label
 _atom_site_symmetry_multiplicity
 _atom_site_fract_x
 _atom_site_fract_y
 _atom_site_fract_z
 _atom_site_occupancy
 _atom_site_hle17_bader_spin_density
 _atom_site_hle17_ddec_charge
 _atom_site_hle17_ddec_spin_density
 _atom_site_hle17_ddec_sum_bond_order
 _atom_site_hle17_magmom
 _atom_site_hse06_10hf_bader_spin_density
 _atom_site_hse06_10hf_ddec_charge
 _atom_site_hse06_10hf_ddec_spin_density
 _atom_site_hse06_10hf_ddec_sum_bond_order
 _atom_site_hse06_10hf_magmom
 _atom_site_hse06_bader_spin_density
 _atom_site_hse06_ddec_charge
 _atom_site_hse06_ddec_spin_density
 _atom_site_hse06_ddec_sum_bond_order
 _atom_site_hse06_magmom
 _atom_site_pbe_bader_spin_density
 _atom_site_pbe_cm5_charge
 _atom_site_pbe_ddec_charge
 _atom_site_pbe_ddec_spin_density
 _atom_site_pbe_ddec_sum_bond_order
 _atom_site_pbe_magmom
Rb  Rb0  1  0.91390044  0.92683614  0.27347483  1  0  0.92599  0  0.487626  0  0  0.867739  0  0.706486  0  0  0.883001  0  0.683027  0  0  0.782163  0.856051  0  0.723701  0
Rb  Rb1  1  0.08609968  0.07316226  0.72652411  1  0  0.925987  0  0.487622  0  0  0.86775  0  0.706469  0  0  0.883012  0  0.68301  0  0  0.782158  0.856059  0  0.723684  0
Rb  Rb2  1  0.63183987  0.99325389  0.81749115  1  0  0.941072  0  0.496866  0  0  0.894113  0  0.705375  0  0  0.905774  0  0.685325  0  0  0.829128  0.885176  0  0.720171  0
Rb  Rb3  1  0.36815958  0.00674221  0.18250608  1  0  0.941069  0  0.496868  0  0  0.894094  0  0.705405  0  0  0.905754  0  0.685355  0  0  0.829129  0.885163  0  0.720202  0
H  H4  1  0.66723446  0.95054177  0.47784710  1  0  0.402365  0  0.906032  0  0  0.374229  0  0.967665  0  0  0.383587  0  0.953774  0  0  0.292907  0.367625  0  0.977462  0
H  H5  1  0.33276427  0.04946008  0.52215125  1  0  0.402343  0  0.906068  0  0  0.37421  0  0.9677  0  0  0.38357  0  0.953805  0  0  0.292909  0.367606  0  0.977497  0
H  H6  1  0.69279364  0.12718953  0.53338927  1  0  0.418119  0  0.881701  0  0  0.393113  0  0.936583  0  0  0.40234  0  0.923078  0  0  0.295834  0.386592  0  0.946138  0
H  H7  1  0.30720714  0.87281116  0.46661036  1  0  0.41812  0  0.881695  0  0  0.393118  0  0.936569  0  0  0.402344  0  0.923066  0  0  0.295857  0.386597  0  0.946125  0
H  H8  1  0.98111696  0.29778810  0.93985601  1  0  0.413843  0  0.890768  0  0  0.382917  0  0.956291  0  0  0.392527  0  0.942081  0  0  0.285143  0.376092  0  0.966357  0
H  H9  1  0.01888044  0.70220917  0.06014298  1  0  0.413915  0  0.890665  0  0  0.382975  0  0.956186  0  0  0.392579  0  0.941985  0  0  0.285167  0.376149  0  0.966251  0
H  H10  1  0.03016606  0.21034921  0.05763916  1  0  0.416593  0  0.886823  0  0  0.390866  0  0.942595  0  0  0.399839  0  0.929549  0  0  0.292496  0.384667  0  0.951528  0
H  H11  1  0.96983320  0.78965034  0.94236083  1  0  0.416624  0  0.886784  0  0  0.390855  0  0.942637  0  0  0.399834  0  0.929581  0  0  0.292484  0.384657  0  0.95157  0
C  C12  1  0.21628682  0.50924224  0.57352932  1  0  -0.113364  0  3.761442  0  0  -0.122699  0  4.018882  0  0  -0.123781  0  4.040332  0  0  -0.006035  -0.121703  0  4.004513  0
C  C13  1  0.78371104  0.49076077  0.42647008  1  0  -0.113427  0  3.761359  0  0  -0.12278  0  4.018839  0  0  -0.123873  0  4.040301  0  0  -0.006045  -0.121776  0  4.004473  0
C  C14  1  0.30796342  0.58871968  0.49971261  1  0  0.356602  0  3.876343  0  0  0.331917  0  4.159472  0  0  0.347174  0  4.173574  0  0  0.129509  0.32101  0  4.150716  0
C  C15  1  0.69203724  0.41127642  0.50028898  1  0  0.356577  0  3.876424  0  0  0.33188  0  4.1596  0  0  0.347141  0  4.173702  0  0  0.129446  0.320974  0  4.150837  0
C  C16  1  0.29782568  0.47724000  0.36277928  1  0  -0.11336  0  3.759163  0  0  -0.122714  0  4.019135  0  0  -0.12422  0  4.040873  0  0  -0.006655  -0.121825  0  4.004892  0
C  C17  1  0.70217391  0.52276070  0.63722005  1  0  -0.113371  0  3.759185  0  0  -0.122724  0  4.01921  0  0  -0.124226  0  4.040948  0  0  -0.006666  -0.121834  0  4.004959  0
C  C18  1  0.19612520  0.33038099  0.34859911  1  0  0.280399  0  3.841184  0  0  0.261259  0  4.113551  0  0  0.27716  0  4.121846  0  0  0.120709  0.250538  0  4.108027  0
C  C19  1  0.80387558  0.66961970  0.65139951  1  0  0.28036  0  3.841218  0  0  0.261227  0  4.113581  0  0  0.277127  0  4.121875  0  0  0.120703  0.250513  0  4.108061  0
C  C20  1  0.14896974  0.34859008  0.48445146  1  0  0.276784  0  3.878894  0  0  0.259806  0  4.154821  0  0  0.274613  0  4.164959  0  0  0.119673  0.250013  0  4.147351  0
C  C21  1  0.85102693  0.65141294  0.51554864  1  0  0.276818  0  3.878896  0  0  0.259851  0  4.154798  0  0  0.27466  0  4.164937  0  0  0.119691  0.25003  0  4.147369  0
C  C22  1  0.19533461  0.57819147  0.70637663  1  0  -0.078075  0  3.884917  0  0  -0.056888  0  4.11581  0  0  -0.065683  0  4.135487  0  0  0.002269  -0.051704  0  4.102959  0
C  C23  1  0.80466598  0.42181267  0.29362373  1  0  -0.078025  0  3.884885  0  0  -0.056832  0  4.115785  0  0  -0.065625  0  4.135464  0  0  0.002275  -0.051653  0  4.102935  0
C  C24  1  0.10798702  0.49510530  0.77498377  1  0  0.297945  0  3.774914  0  0  0.276679  0  4.047086  0  0  0.288074  0  4.066546  0  0  0.196044  0.269246  0  4.033534  0
C  C25  1  0.89201278  0.50489196  0.22501786  1  0  0.297961  0  3.774845  0  0  0.2767  0  4.047017  0  0  0.288098  0  4.066476  0  0  0.196049  0.26927  0  4.033463  0
C  C26  1  0.25560874  0.73767260  0.78112313  1  0  0.336086  0  3.800988  0  0  0.313364  0  4.076276  0  0  0.328174  0  4.091806  0  0  0.200472  0.303044  0  4.066711  0
C  C27  1  0.74439074  0.26232352  0.21888018  1  0  0.336179  0  3.801171  0  0  0.313466  0  4.076452  0  0  0.328275  0  4.091983  0  0  0.20054  0.303147  0  4.066883  0
C  C28  1  0.37529129  0.50896066  0.26432596  1  0  -0.079958  0  3.890161  0  0  -0.063083  0  4.128533  0  0  -0.072373  0  4.148936  0  0  -0.002043  -0.057042  0  4.113205  0
C  C29  1  0.62470850  0.49103659  0.73567365  1  0  -0.079947  0  3.889965  0  0  -0.063117  0  4.128417  0  0  -0.07242  0  4.148847  0  0  -0.002061  -0.057074  0  4.113085  0
C  C30  1  0.36794186  0.39432402  0.13686127  1  0  0.288366  0  3.806668  0  0  0.270883  0  4.083588  0  0  0.2828  0  4.102433  0  0  0.18643  0.263683  0  4.068498  0
C  C31  1  0.63205826  0.60568246  0.86315062  1  0  0.288413  0  3.807128  0  0  0.270947  0  4.084031  0  0  0.282865  0  4.10287  0  0  0.18643  0.263746  0  4.068945  0
C  C32  1  0.47004155  0.65749339  0.28744654  1  0  0.33278  0  3.777876  0  0  0.311873  0  4.046394  0  0  0.325499  0  4.064151  0  0  0.208415  0.302766  0  4.03412  0
C  C33  1  0.52995729  0.34251303  0.71254782  1  0  0.332668  0  3.777797  0  0  0.311775  0  4.046342  0  0  0.325404  0  4.064109  0  0  0.208369  0.302665  0  4.034059  0
N  N34  1  0.03630588  0.43544904  0.83788729  1  0  -0.419293  0  2.648817  0  0  -0.388132  0  2.88135  0  0  -0.400347  0  2.892708  0  0  -0.303718  -0.37905  0  2.872106  0
N  N35  1  0.96369663  0.56454934  0.16211227  1  0  -0.419336  0  2.648555  0  0  -0.388186  0  2.881081  0  0  -0.400399  0  2.89244  0  0  -0.303734  -0.379104  0  2.871834  0
N  N36  1  0.29910895  0.86860102  0.84855236  1  0  -0.536244  0  2.673897  0  0  -0.512318  0  2.930909  0  0  -0.524732  0  2.938675  0  0  -0.47456  -0.504273  0  2.926532  0
N  N37  1  0.70089491  0.13140195  0.15145062  1  0  -0.536349  0  2.674258  0  0  -0.512427  0  2.931278  0  0  -0.524842  0  2.939044  0  0  -0.474626  -0.504383  0  2.926899  0
N  N38  1  0.36604196  0.30182974  0.03168557  1  0  -0.459351  0  2.598975  0  0  -0.442518  0  2.83403  0  0  -0.454269  0  2.846366  0  0  -0.352609  -0.433236  0  2.824991  0
N  N39  1  0.63396092  0.69816173  0.96830746  1  0  -0.459318  0  2.599875  0  0  -0.442481  0  2.834906  0  0  -0.454226  0  2.847234  0  0  -0.352577  -0.433203  0  2.825869  0
N  N40  1  0.55011577  0.77790208  0.30023447  1  0  -0.501381  0  2.690603  0  0  -0.468449  0  2.929953  0  0  -0.481808  0  2.938891  0  0  -0.375795  -0.459671  0  2.924547  0
N  N41  1  0.44988314  0.22209632  0.69976315  1  0  -0.501339  0  2.690221  0  0  -0.468414  0  2.929598  0  0  -0.481778  0  2.93854  0  0  -0.375781  -0.459635  0  2.924186  0
O  O42  1  0.38412737  0.72818428  0.54701834  1  0  -0.541659  0  1.996504  0  0  -0.490809  0  2.212991  0  0  -0.511854  0  2.212612  0  0  -0.311895  -0.476153  0  2.213528  0
O  O43  1  0.61587136  0.27181758  0.45298103  1  0  -0.541573  0  1.996629  0  0  -0.49071  0  2.213118  0  0  -0.511754  0  2.21274  0  0  -0.311817  -0.476056  0  2.213654  0
O  O44  1  0.14957737  0.20753112  0.24304708  1  0  -0.532612  0  2.025104  0  0  -0.480711  0  2.241252  0  0  -0.498559  0  2.23793  0  0  -0.337993  -0.46835  0  2.243178  0
O  O45  1  0.85042376  0.79247072  0.75695391  1  0  -0.532607  0  2.025055  0  0  -0.480683  0  2.241206  0  0  -0.498536  0  2.237883  0  0  -0.337967  -0.468317  0  2.243121  0
O  O46  1  0.06517444  0.24348286  0.51050391  1  0  -0.524083  0  2.001665  0  0  -0.485252  0  2.230009  0  0  -0.50266  0  2.229292  0  0  -0.361685  -0.472827  0  2.229918  0
O  O47  1  0.93482037  0.75651787  0.48949417  1  0  -0.524086  0  2.001663  0  0  -0.485253  0  2.230004  0  0  -0.502668  0  2.2293  0  0  -0.361692  -0.472819  0  2.229928  0
O  O48  1  0.72776187  0.04191582  0.56514793  1  0  -0.881006  0  1.766337  0  0  -0.837502  0  1.918189  0  0  -0.854582  0  1.890924  0  0  -0.686047  -0.825394  0  1.937393  0
O  O49  1  0.27223891  0.95808487  0.43485069  1  0  -0.880994  0  1.766354  0  0  -0.837494  0  1.918193  0  0  -0.854575  0  1.890924  0  0  -0.686083  -0.825386  0  1.937396  0
O  O50  1  0.95256484  0.19909880  0.95809162  1  0  -0.906558  0  1.788521  0  0  -0.857689  0  1.943495  0  0  -0.875692  0  1.916966  0  0  -0.72215  -0.845281  0  1.962271  0
O  O51  1  0.04743289  0.80089962  0.04190872  1  0  -0.906663  0  1.788374  0  0  -0.857741  0  1.943445  0  0  -0.875744  0  1.916921  0  0  -0.722164  -0.845331  0  1.962222  0
