# generated using pymatgen
data_GdH3(C5O4)2
_symmetry_space_group_name_H-M   'P 1'
_cell_length_a   7.23969058
_cell_length_b   8.00751187
_cell_length_c   8.71437303
_cell_angle_alpha   65.75477255
_cell_angle_beta   85.53581974
_cell_angle_gamma   83.61124470
_symmetry_Int_Tables_number   1
_chemical_formula_structural   GdH3(C5O4)2
_chemical_formula_sum   'Gd2 H6 C20 O16'
_cell_volume   457.48059369
_cell_formula_units_Z   2
loop_
 _symmetry_equiv_pos_site_id
 _symmetry_equiv_pos_as_xyz
  1  'x, y, z'
loop_
 _atom_site_type_symbol
 _atom_site_label
 _atom_site_symmetry_multiplicity
 _atom_site_fract_x
 _atom_site_fract_y
 _atom_site_fract_z
 _atom_site_occupancy
 _atom_site_pbe_bader_charge
 _atom_site_pbe_bader_spin_density
 _atom_site_pbe_cm5_charge
 _atom_site_pbe_ddec_charge
 _atom_site_pbe_ddec_spin_density
 _atom_site_pbe_ddec_sum_bond_order
 _atom_site_pbe_magmom
Gd  Gd0  1  0.06842567  0.24225323  0.50707226  1  2.179925  0  1.481554  2.029169  0  2.162416  0
Gd  Gd1  1  0.93157255  0.75774856  0.49292504  1  2.179891  0  1.481565  2.02913  0  2.162474  0
H  H2  1  0.25577108  0.72083665  0.02207262  1  0.115833  0  0.122622  0.135268  0  0.99047  0
H  H3  1  0.74422876  0.27916239  0.97792790  1  0.115832  0  0.12263  0.135274  0  0.990491  0
H  H4  1  0.93071597  0.80186256  0.95906035  1  0.159431  0  0.122873  0.143483  0  0.989664  0
H  H5  1  0.06928212  0.19814061  0.04093873  1  0.159408  0  0.122875  0.14351  0  0.989597  0
H  H6  1  0.50242971  0.27988273  0.49916927  1  0.66481  0  0.325052  0.390416  0  0.954401  0
H  H7  1  0.49757025  0.72011493  0.50082946  1  0.664377  0  0.325055  0.390431  0  0.954381  0
C  C8  1  0.76110473  0.04277877  0.70056108  1  1.586685  0  0.227339  0.632019  0  4.151765  0
C  C9  1  0.23889372  0.95722027  0.29943839  1  1.58678  0  0.227375  0.632114  0  4.151597  0
C  C10  1  0.66356322  0.90287814  0.84860119  1  0.022137  0  0.019441  0.000769  0  3.866034  0
C  C11  1  0.33643662  0.09712090  0.15139819  1  0.022115  0  0.019441  0.000668  0  3.866101  0
C  C12  1  0.47092434  0.88270177  0.86711672  1  -0.003356  0  -0.007966  -0.068234  0  3.934987  0
C  C13  1  0.52907411  0.11729727  0.13288389  1  -0.003374  0  -0.007951  -0.06813  0  3.934852  0
C  C14  1  0.33158772  0.00918937  0.74646136  1  1.556072  0  0.212369  0.601855  0  4.178653  0
C  C15  1  0.66841073  0.99080967  0.25353925  1  1.556207  0  0.212357  0.601838  0  4.178642  0
C  C16  1  0.40373688  0.73811606  0.00807136  1  0.052197  0  -0.056125  -0.061579  0  3.916662  0
C  C17  1  0.59626295  0.26188298  0.99192916  1  0.052206  0  -0.056142  -0.061641  0  3.916595  0
C  C18  1  0.52191103  0.61716745  0.13211215  1  0.000838  0  -0.008609  -0.082269  0  3.961493  0
C  C19  1  0.47808731  0.38283297  0.86788910  1  0.000761  0  -0.008613  -0.082253  0  3.961454  0
C  C20  1  0.44142033  0.46994972  0.28100714  1  1.532385  0  0.256565  0.633704  0  4.060681  0
C  C21  1  0.55857951  0.53004932  0.71899338  1  1.532395  0  0.256584  0.633686  0  4.060554  0
C  C22  1  0.71353852  0.64127038  0.11624357  1  -0.009631  0  0.018046  0.00383  0  3.872645  0
C  C23  1  0.28645981  0.35873004  0.88375653  1  -0.009588  0  0.018051  0.003829  0  3.87259  0
C  C24  1  0.84718148  0.51330391  0.24562392  1  1.609532  0  0.227681  0.644857  0  4.151936  0
C  C25  1  0.15281534  0.48669788  0.75437920  1  1.609403  0  0.227599  0.644798  0  4.152117  0
C  C26  1  0.78255047  0.78325514  0.97447253  1  -0.054819  0  -0.062306  -0.108793  0  3.862856  0
C  C27  1  0.21744799  0.21674390  0.02552923  1  -0.05476  0  -0.062282  -0.108744  0  3.862738  0
O  O28  1  0.83700879  0.99310317  0.58541201  1  -1.194877  0  -0.421848  -0.718224  0  2.383705  0
O  O29  1  0.16298816  0.00689724  0.41458703  1  -1.194924  0  -0.421876  -0.718267  0  2.383679  0
O  O30  1  0.78740031  0.19719343  0.69686068  1  -1.154659  0  -0.331609  -0.569338  0  2.21267  0
O  O31  1  0.21259537  0.80280562  0.30313896  1  -1.154762  0  -0.331639  -0.569355  0  2.212541  0
O  O32  1  0.38528378  0.13261181  0.60444940  1  -1.217752  0  -0.374059  -0.647152  0  2.36365  0
O  O33  1  0.61471444  0.86738998  0.39554904  1  -1.217895  0  -0.374062  -0.647197  0  2.363731  0
O  O34  1  0.15911327  0.99738245  0.78021629  1  -1.15681  0  -0.343935  -0.587148  0  2.229312  0
O  O35  1  0.84088657  0.00261659  0.21978424  1  -1.156788  0  -0.343934  -0.587141  0  2.229331  0
O  O36  1  0.27856671  0.42905819  0.28898644  1  -1.172995  0  -0.337544  -0.588934  0  2.303033  0
O  O37  1  0.72143428  0.57094359  0.71101297  1  -1.173007  0  -0.337583  -0.588933  0  2.302961  0
O  O38  1  0.55863061  0.38805869  0.40314206  1  -1.159793  0  -0.294409  -0.468005  0  2.403238  0
O  O39  1  0.44136935  0.61193897  0.59685668  1  -1.159427  0  -0.294389  -0.467963  0  2.403137  0
O  O40  1  0.90837384  0.36186506  0.24149183  1  -1.153981  0  -0.341184  -0.574323  0  2.20525  0
O  O41  1  0.09162714  0.63813673  0.75850873  1  -1.153889  0  -0.341184  -0.574315  0  2.205354  0
O  O42  1  0.89905051  0.56118103  0.35911125  1  -1.20107  0  -0.43396  -0.741361  0  2.397226  0
O  O43  1  0.10094505  0.43881939  0.64089132  1  -1.201067  0  -0.433866  -0.741346  0  2.397253  0
