# generated using pymatgen
data_Nd2Co3H36(C2O3)12
_symmetry_space_group_name_H-M   'P 1'
_cell_length_a   15.11298444
_cell_length_b   15.11298602
_cell_length_c   15.51538896
_cell_angle_alpha   89.99999989
_cell_angle_beta   89.99998108
_cell_angle_gamma   120.00009358
_symmetry_Int_Tables_number   1
_chemical_formula_structural   Nd2Co3H36(C2O3)12
_chemical_formula_sum   'Nd4 Co6 H72 C48 O72'
_cell_volume   3068.97538698
_cell_formula_units_Z   2
loop_
 _symmetry_equiv_pos_site_id
 _symmetry_equiv_pos_as_xyz
  1  'x, y, z'
loop_
 _atom_site_type_symbol
 _atom_site_label
 _atom_site_symmetry_multiplicity
 _atom_site_fract_x
 _atom_site_fract_y
 _atom_site_fract_z
 _atom_site_occupancy
 _atom_site_pbe_bader_charge
 _atom_site_pbe_bader_spin_density
 _atom_site_pbe_cm5_charge
 _atom_site_pbe_ddec_charge
 _atom_site_pbe_ddec_spin_density
 _atom_site_pbe_ddec_sum_bond_order
 _atom_site_pbe_magmom
Nd  Nd0  1  0.66666670  0.33333299  0.25000007  1  2.246512  -0.000688  1.503247  1.999877  -0.000682  2.251201  -0.001
Nd  Nd1  1  0.33333296  0.66666666  0.24999948  1  2.246533  -0.000688  1.503254  1.999872  -0.000682  2.251217  -0.001
Nd  Nd2  1  0.33333323  0.66666622  0.74999984  1  2.246519  -0.000688  1.503249  1.999862  -0.000682  2.251229  -0.001
Nd  Nd3  1  0.66666659  0.33333293  0.74999978  1  2.246527  -0.000688  1.503247  1.999887  -0.000683  2.251182  -0.001
Co  Co4  1  0.49999987  0.99999935  0.99999999  1  1.320904  2.648283  0.640049  1.054696  2.840542  2.269679  2.634
Co  Co5  1  0.00000026  0.50000054  0.00000007  1  1.326565  2.648291  0.640035  1.054682  2.840542  2.269703  2.634
Co  Co6  1  0.50000033  0.50000040  0.99999999  1  1.321789  2.64819  0.640035  1.054681  2.840548  2.269665  2.634
Co  Co7  1  0.99999946  0.50000004  0.49999955  1  1.320888  2.648281  0.640032  1.054671  2.840542  2.269729  2.634
Co  Co8  1  0.49999961  0.99999979  0.50000027  1  1.326587  2.648288  0.640054  1.05472  2.84054  2.269645  2.634
Co  Co9  1  0.49999978  0.49999980  0.49999963  1  1.321797  2.64819  0.640055  1.054704  2.840546  2.269661  2.634
H  H10  1  0.71481199  0.08056606  0.23940993  1  0.086814  -0.000336  0.111236  0.091892  -0.000382  0.992785  0.0
H  H11  1  0.91943404  0.63424659  0.23941054  1  0.071732  -0.000338  0.111221  0.091863  -0.000382  0.992805  0.0
H  H12  1  0.36575399  0.28518775  0.23940999  1  0.066394  -0.000337  0.11123  0.091873  -0.000382  0.99279  0.0
H  H13  1  0.28518768  0.91943360  0.23941000  1  0.086816  -0.000336  0.111229  0.091877  -0.000382  0.992794  0.0
H  H14  1  0.08056658  0.36575477  0.23941003  1  0.072039  -0.000338  0.111239  0.091882  -0.000382  0.992797  0.0
H  H15  1  0.63424634  0.71481257  0.23940994  1  0.065827  -0.000337  0.111236  0.091878  -0.000382  0.992785  0.0
H  H16  1  0.08056665  0.71481259  0.26059030  1  0.087106  -0.000336  0.111239  0.091891  -0.000382  0.992789  0.0
H  H17  1  0.63424620  0.91943436  0.26059021  1  0.072029  -0.000338  0.111228  0.091865  -0.000382  0.992805  0.0
H  H18  1  0.28518773  0.36575398  0.26059026  1  0.066687  -0.000337  0.111238  0.0919  -0.000382  0.99277  0.0
H  H19  1  0.91943301  0.28518707  0.26059016  1  0.08682  -0.000336  0.111244  0.091898  -0.000382  0.992781  0.0
H  H20  1  0.36575412  0.08056595  0.26058961  1  0.072037  -0.000338  0.111223  0.091856  -0.000382  0.992788  0.0
H  H21  1  0.71481193  0.63424567  0.26059019  1  0.066677  -0.000337  0.111227  0.091872  -0.000382  0.992792  0.0
H  H22  1  0.28518756  0.91943354  0.76058997  1  0.086815  -0.000336  0.111229  0.091878  -0.000382  0.992794  0.0
H  H23  1  0.08056646  0.36575471  0.76059001  1  0.072039  -0.000338  0.111239  0.091896  -0.000382  0.992786  0.0
H  H24  1  0.63424623  0.71481251  0.76058992  1  0.066066  -0.000337  0.111229  0.091866  -0.000382  0.9928  0.0
H  H25  1  0.71481292  0.08056628  0.76059055  1  0.087105  -0.000336  0.111238  0.09189  -0.000382  0.992793  0.0
H  H26  1  0.91943326  0.63424587  0.76058987  1  0.072046  -0.000338  0.11124  0.091895  -0.000382  0.99279  0.0
H  H27  1  0.36575387  0.28518769  0.76058996  1  0.066398  -0.000337  0.111234  0.091879  -0.000382  0.992783  0.0
H  H28  1  0.91943356  0.28518767  0.73940961  1  0.086818  -0.000336  0.111239  0.091899  -0.000382  0.992777  0.0
H  H29  1  0.36575363  0.08056628  0.73941034  1  0.072034  -0.000338  0.111231  0.091876  -0.000382  0.992789  0.0
H  H30  1  0.71481183  0.63424561  0.73940964  1  0.066541  -0.000337  0.111235  0.09189  -0.000382  0.992778  0.0
H  H31  1  0.08056654  0.71481253  0.73940974  1  0.086815  -0.000336  0.11124  0.09189  -0.000382  0.992783  0.0
H  H32  1  0.63424610  0.91943430  0.73941030  1  0.071733  -0.000338  0.111224  0.091862  -0.000382  0.992809  0.0
H  H33  1  0.28518762  0.36575393  0.73940971  1  0.066593  -0.000337  0.111237  0.091889  -0.000382  0.992778  0.0
H  H34  1  0.80036009  0.15950592  0.15629180  1  0.08421  -0.000307  0.120242  0.109997  -0.000361  0.9449  0.0
H  H35  1  0.84049488  0.64085449  0.15629243  1  0.081158  -0.000307  0.120232  0.109988  -0.000361  0.944911  0.0
H  H36  1  0.35914510  0.19964002  0.15629251  1  0.08927  -0.000311  0.120235  0.109994  -0.000361  0.94489  0.0
H  H37  1  0.19964028  0.84049442  0.15629189  1  0.084217  -0.000307  0.120239  0.10999  -0.000361  0.94489  0.0
H  H38  1  0.15950483  0.35914519  0.15629254  1  0.081156  -0.000306  0.120235  0.109992  -0.000361  0.944892  0.0
H  H39  1  0.64085527  0.80036031  0.15629247  1  0.089259  -0.000312  0.120233  0.109995  -0.000362  0.944907  0.0
H  H40  1  0.15950648  0.80036065  0.34370776  1  0.08421  -0.000307  0.12024  0.109996  -0.000361  0.944915  0.0
H  H41  1  0.64085512  0.84049547  0.34370768  1  0.081146  -0.000307  0.120234  0.109993  -0.000361  0.944911  0.0
H  H42  1  0.19963958  0.35914545  0.34370775  1  0.089265  -0.000312  0.120235  0.110011  -0.000361  0.944906  0.0
H  H43  1  0.84049380  0.19963965  0.34370765  1  0.084205  -0.000307  0.12023  0.109982  -0.000361  0.944922  0.0
H  H44  1  0.35914478  0.15950521  0.34370773  1  0.08114  -0.000306  0.120229  0.109983  -0.000361  0.94492  0.0
H  H45  1  0.80035966  0.64085457  0.34370766  1  0.089265  -0.000311  0.120238  0.110007  -0.000361  0.944905  0.0
H  H46  1  0.19964013  0.84049434  0.84370811  1  0.084212  -0.000307  0.120234  0.109985  -0.000361  0.944895  0.0
H  H47  1  0.15950505  0.35914472  0.84370747  1  0.081146  -0.000307  0.120234  0.109998  -0.000361  0.944911  0.0
H  H48  1  0.64085577  0.80036090  0.84370739  1  0.089254  -0.000312  0.120238  0.109994  -0.000362  0.944923  0.0
H  H49  1  0.80036059  0.15950650  0.84370801  1  0.084207  -0.000307  0.120239  0.10999  -0.000361  0.944916  0.0
H  H50  1  0.84049473  0.64085441  0.84370801  1  0.081143  -0.000307  0.12023  0.109995  -0.000361  0.944931  0.0
H  H51  1  0.35914495  0.19963995  0.84370744  1  0.089268  -0.000312  0.120231  0.109986  -0.000361  0.944895  0.0
H  H52  1  0.84049373  0.19963961  0.65629214  1  0.084207  -0.000307  0.120237  0.109991  -0.000361  0.944908  0.0
H  H53  1  0.35914509  0.15950479  0.65629222  1  0.081144  -0.000307  0.120238  0.110002  -0.000361  0.944903  0.0
H  H54  1  0.80035997  0.64085415  0.65629215  1  0.089265  -0.000311  0.120244  0.110001  -0.000361  0.944912  0.0
H  H55  1  0.15950641  0.80036061  0.65629225  1  0.084206  -0.000307  0.120239  0.109989  -0.000361  0.944913  0.0
H  H56  1  0.64085467  0.84049581  0.65629218  1  0.081157  -0.000307  0.120232  0.10999  -0.000361  0.944901  0.0
H  H57  1  0.19963951  0.35914541  0.65629225  1  0.089263  -0.000312  0.120234  0.110001  -0.000362  0.944907  0.0
H  H58  1  0.45997895  0.82592597  0.94828617  1  0.650457  0.000195  0.295109  0.383727  3.5e-05  0.950314  0.0
H  H59  1  0.17407267  0.63405302  0.94828622  1  0.641854  0.000186  0.295135  0.383771  3.5e-05  0.950244  0.0
H  H60  1  0.36594784  0.54002104  0.94828619  1  0.643108  0.000195  0.295118  0.383756  3.5e-05  0.950267  0.0
H  H61  1  0.54002079  0.17407314  0.94828616  1  0.650459  0.000196  0.295113  0.383739  3.5e-05  0.9503  0.0
H  H62  1  0.82592838  0.36594741  0.94828612  1  0.641856  0.000186  0.295139  0.383774  3.5e-05  0.950243  0.0
H  H63  1  0.63405284  0.45997978  0.94828615  1  0.643088  0.000195  0.295114  0.383746  3.5e-05  0.950286  0.0
H  H64  1  0.82592642  0.45997871  0.55171404  1  0.650461  0.000195  0.29512  0.383737  3.5e-05  0.950297  0.0
H  H65  1  0.63405280  0.17407180  0.55171407  1  0.641857  0.000185  0.295133  0.383778  3.5e-05  0.950239  0.0
H  H66  1  0.54001975  0.36594665  0.55171344  1  0.643094  0.000195  0.295142  0.383769  3.5e-05  0.950257  0.0
H  H67  1  0.17407311  0.54002088  0.55171415  1  0.650458  0.000195  0.295104  0.38371  3.5e-05  0.95034  0.0
H  H68  1  0.36594673  0.82592778  0.55171411  1  0.641852  0.000185  0.295132  0.383759  3.5e-05  0.950265  0.0
H  H69  1  0.45997978  0.63405293  0.55171345  1  0.643089  0.000195  0.295117  0.383742  3.5e-05  0.950294  0.0
H  H70  1  0.54002099  0.17407324  0.05171373  1  0.650458  0.000195  0.29511  0.383736  3.5e-05  0.950306  0.0
H  H71  1  0.82592859  0.36594752  0.05171433  1  0.641855  0.000185  0.295149  0.383771  3.5e-05  0.950256  0.0
H  H72  1  0.63405238  0.45997922  0.05171372  1  0.643109  0.000195  0.295117  0.38376  3.5e-05  0.950262  0.0
H  H73  1  0.45997915  0.82592608  0.05171374  1  0.650455  0.000195  0.295115  0.383729  3.5e-05  0.950309  0.0
H  H74  1  0.17407183  0.63405284  0.05171379  1  0.641855  0.000185  0.295141  0.383771  3.5e-05  0.950247  0.0
H  H75  1  0.36594738  0.54002048  0.05171376  1  0.64311  0.000195  0.295122  0.383757  3.5e-05  0.950269  0.0
H  H76  1  0.17407379  0.54002155  0.44828586  1  0.650458  0.000195  0.29511  0.383726  3.5e-05  0.950315  0.0
H  H77  1  0.36594714  0.82592741  0.44828583  1  0.641851  0.000186  0.295137  0.383775  3.5e-05  0.95024  0.0
H  H78  1  0.45997981  0.63405294  0.44828646  1  0.643091  0.000195  0.295124  0.383768  3.5e-05  0.950252  0.0
H  H79  1  0.82592644  0.45997872  0.44828576  1  0.650456  0.000195  0.295104  0.383708  3.5e-05  0.95034  0.0
H  H80  1  0.63405244  0.17407219  0.44828579  1  0.641785  0.000186  0.295117  0.383757  3.5e-05  0.950269  0.0
H  H81  1  0.54001977  0.36594666  0.44828645  1  0.643089  0.000195  0.295129  0.383755  3.5e-05  0.950272  0.0
C  C82  1  0.64688110  0.12892967  0.14122871  1  1.628965  -0.00373  0.226052  0.632505  -0.005484  4.158132  -0.003
C  C83  1  0.87107102  0.51795234  0.14122867  1  1.648141  -0.003755  0.226055  0.632478  -0.005484  4.158161  -0.003
C  C84  1  0.48205016  0.35311756  0.14122874  1  1.608591  -0.003745  0.226105  0.632524  -0.005485  4.15804  -0.003
C  C85  1  0.35311900  0.87106963  0.14122876  1  1.628966  -0.00373  0.226057  0.632483  -0.005485  4.158181  -0.003
C  C86  1  0.12893172  0.48204960  0.14122815  1  1.647776  -0.003753  0.226072  0.632476  -0.005484  4.158084  -0.003
C  C87  1  0.51795099  0.64688202  0.14122873  1  1.608588  -0.003745  0.226074  0.632496  -0.005485  4.158069  -0.003
C  C88  1  0.12893062  0.64688129  0.35877087  1  1.628971  -0.003731  0.226084  0.632506  -0.005486  4.15809  -0.003
C  C89  1  0.51795096  0.87106960  0.35877210  1  1.647791  -0.003753  0.226025  0.632484  -0.005484  4.158208  -0.003
C  C90  1  0.35311751  0.48205010  0.35877148  1  1.608594  -0.003745  0.226102  0.632546  -0.005485  4.158039  -0.003
C  C91  1  0.87106900  0.35311834  0.35877076  1  1.628963  -0.003731  0.226096  0.632505  -0.005485  4.158049  -0.003
C  C92  1  0.48204932  0.12893069  0.35877146  1  1.647779  -0.003753  0.226081  0.632509  -0.005484  4.158107  -0.003
C  C93  1  0.64688096  0.51795067  0.35877144  1  1.608603  -0.003744  0.226084  0.632526  -0.005485  4.158092  -0.003
C  C94  1  0.35311884  0.87106954  0.85877184  1  1.629052  -0.00373  0.22612  0.632669  -0.005484  4.158236  -0.003
C  C95  1  0.12893156  0.48204952  0.85877123  1  1.647777  -0.003752  0.226089  0.63253  -0.005484  4.15802  -0.003
C  C96  1  0.51795082  0.64688194  0.85877117  1  1.608603  -0.003745  0.226092  0.632505  -0.005485  4.158077  -0.003
C  C97  1  0.64688121  0.12893063  0.85877115  1  1.628973  -0.00373  0.226074  0.632483  -0.005485  4.158121  -0.003
C  C98  1  0.87106954  0.51795093  0.85877111  1  1.647748  -0.003753  0.226066  0.632533  -0.005485  4.158089  -0.003
C  C99  1  0.48205066  0.35311814  0.85877053  1  1.608587  -0.003745  0.226086  0.632481  -0.005485  4.158095  -0.003
C  C100  1  0.87106893  0.35311831  0.64122903  1  1.628968  -0.003731  0.22611  0.632539  -0.005485  4.158024  -0.003
C  C101  1  0.48204925  0.12893065  0.64122909  1  1.64775  -0.003753  0.226085  0.63249  -0.005485  4.158059  -0.003
C  C102  1  0.64688090  0.51795064  0.64122842  1  1.608602  -0.003744  0.226029  0.632469  -0.005484  4.158206  -0.003
C  C103  1  0.12893056  0.64688125  0.64122915  1  1.628967  -0.00373  0.226081  0.632479  -0.005485  4.158137  -0.003
C  C104  1  0.51795222  0.87107090  0.64122844  1  1.647748  -0.003753  0.226043  0.632433  -0.005484  4.158302  -0.003
C  C105  1  0.35311744  0.48205007  0.64122976  1  1.608575  -0.003745  0.226093  0.632544  -0.005485  4.157981  -0.003
C  C106  1  0.73636669  0.14786489  0.19821663  1  0.387321  0.004919  -0.055221  -0.112367  0.002669  3.910991  0.004
C  C107  1  0.85213618  0.58850244  0.19821726  1  0.406958  0.004909  -0.055219  -0.112326  0.002669  3.910957  0.004
C  C108  1  0.41149784  0.26363375  0.19821733  1  0.407829  0.004906  -0.055218  -0.112332  0.002669  3.910964  0.004
C  C109  1  0.26363366  0.85213544  0.19821671  1  0.387323  0.004919  -0.055225  -0.112353  0.002669  3.91096  0.004
C  C110  1  0.14786417  0.41149788  0.19821673  1  0.406932  0.004909  -0.055215  -0.112312  0.002669  3.910976  0.004
C  C111  1  0.58850251  0.73636658  0.19821666  1  0.408396  0.004906  -0.055221  -0.11234  0.002669  3.910968  0.004
C  C112  1  0.14786443  0.73636699  0.30178294  1  0.387317  0.004919  -0.055229  -0.112359  0.002669  3.910967  0.004
C  C113  1  0.58850280  0.85213573  0.30178286  1  0.406938  0.004909  -0.055205  -0.112318  0.002669  3.910935  0.004
C  C114  1  0.26363333  0.41149819  0.30178292  1  0.407834  0.004906  -0.055239  -0.112398  0.002669  3.911017  0.004
C  C115  1  0.85213521  0.26363265  0.30178347  1  0.387309  0.004919  -0.055226  -0.112358  0.002669  3.911012  0.004
C  C116  1  0.41149750  0.14786457  0.30178354  1  0.406942  0.004909  -0.055201  -0.112296  0.002669  3.910968  0.004
C  C117  1  0.73636660  0.58850249  0.30178284  1  0.407835  0.004906  -0.055227  -0.112365  0.002669  3.910965  0.004
C  C118  1  0.26363352  0.85213537  0.80178327  1  0.387327  0.004919  -0.055219  -0.112358  0.002669  3.910953  0.004
C  C119  1  0.14786442  0.41149743  0.80178329  1  0.406935  0.004909  -0.055227  -0.112363  0.002669  3.910911  0.004
C  C120  1  0.58850304  0.73636717  0.80178258  1  0.408293  0.004906  -0.055221  -0.112336  0.002669  3.911017  0.004
C  C121  1  0.73636694  0.14786444  0.80178320  1  0.387319  0.004919  -0.055217  -0.112342  0.002669  3.91099  0.004
C  C122  1  0.85213500  0.58850209  0.80178318  1  0.406967  0.004908  -0.055238  -0.112387  0.002669  3.910998  0.004
C  C123  1  0.41149770  0.26363368  0.80178325  1  0.407828  0.004906  -0.055217  -0.112324  0.002669  3.910958  0.004
C  C124  1  0.85213512  0.26363260  0.69821697  1  0.387315  0.004919  -0.055228  -0.112375  0.002669  3.911005  0.004
C  C125  1  0.41149741  0.14786453  0.69821704  1  0.406965  0.004909  -0.055211  -0.112328  0.002669  3.91095  0.004
C  C126  1  0.73636689  0.58850207  0.69821699  1  0.407837  0.004906  -0.055226  -0.112361  0.002669  3.910964  0.004
C  C127  1  0.14786434  0.73636695  0.69821644  1  0.387313  0.004919  -0.055223  -0.112329  0.002669  3.910956  0.004
C  C128  1  0.58850233  0.85213607  0.69821701  1  0.406962  0.004909  -0.05521  -0.112309  0.002669  3.910991  0.004
C  C129  1  0.26363362  0.41149776  0.69821642  1  0.407912  0.004906  -0.055222  -0.112361  0.002669  3.910975  0.004
O  O130  1  0.61637557  0.19434693  0.14397051  1  -1.19675  -0.00057  -0.381882  -0.65173  -0.001518  2.270805  0.0
O  O131  1  0.80565394  0.42202847  0.14397177  1  -1.215297  -0.000585  -0.381878  -0.651714  -0.001518  2.27078  0.0
O  O132  1  0.57797116  0.38362179  0.14396923  1  -1.187738  -0.000565  -0.381899  -0.651747  -0.001519  2.27085  0.0
O  O133  1  0.38362480  0.80565341  0.14397055  1  -1.196766  -0.00057  -0.381891  -0.651722  -0.001519  2.270837  0.0
O  O134  1  0.19434825  0.57797138  0.14396993  1  -1.215341  -0.000585  -0.381872  -0.651689  -0.001519  2.270846  0.0
O  O135  1  0.42202932  0.61637712  0.14396990  1  -1.18771  -0.000565  -0.381873  -0.6517  -0.001519  2.270859  0.0
O  O136  1  0.19434647  0.61637587  0.35602843  1  -1.196755  -0.000571  -0.381884  -0.651702  -0.001519  2.270853  0.0
O  O137  1  0.42202889  0.80565204  0.35603032  1  -1.215323  -0.000585  -0.381898  -0.651769  -0.001518  2.270851  0.0
O  O138  1  0.38362174  0.57797110  0.35603097  1  -1.187735  -0.000565  -0.381897  -0.651749  -0.001519  2.270845  0.0
O  O139  1  0.80565381  0.38362442  0.35602833  1  -1.196732  -0.000571  -0.381881  -0.651695  -0.001519  2.270864  0.0
O  O140  1  0.57797072  0.19434759  0.35603030  1  -1.215263  -0.000585  -0.381876  -0.651705  -0.001519  2.270858  0.0
O  O141  1  0.61637645  0.42202863  0.35603029  1  -1.187722  -0.000565  -0.3819  -0.651764  -0.001519  2.270855  0.0
O  O142  1  0.38362436  0.80565228  0.85602811  1  -1.196762  -0.00057  -0.381918  -0.651831  -0.001518  2.270833  0.0
O  O143  1  0.19434809  0.57797130  0.85603072  1  -1.215336  -0.000586  -0.381878  -0.651712  -0.001519  2.270839  0.0
O  O144  1  0.42202916  0.61637704  0.85603003  1  -1.187713  -0.000565  -0.381875  -0.651697  -0.001519  2.27084  0.0
O  O145  1  0.61637579  0.19434647  0.85602871  1  -1.196746  -0.000571  -0.381871  -0.651688  -0.001519  2.270844  0.0
O  O146  1  0.80565339  0.42202877  0.85602868  1  -1.215323  -0.000586  -0.381886  -0.65175  -0.001519  2.270811  0.0
O  O147  1  0.57796996  0.38362143  0.85603130  1  -1.18773  -0.000566  -0.381857  -0.651678  -0.001519  2.270895  0.0
O  O148  1  0.80565374  0.38362438  0.64397148  1  -1.196736  -0.000571  -0.381873  -0.651703  -0.001519  2.270842  0.0
O  O149  1  0.57797076  0.19434613  0.64397087  1  -1.215324  -0.000586  -0.381873  -0.651704  -0.001519  2.270859  0.0
O  O150  1  0.61637638  0.42202860  0.64396958  1  -1.187726  -0.000565  -0.38191  -0.651786  -0.001519  2.270853  0.0
O  O151  1  0.19434641  0.61637584  0.64397158  1  -1.196756  -0.000571  -0.381878  -0.651681  -0.001519  2.270855  0.0
O  O152  1  0.42202835  0.80565381  0.64397154  1  -1.215306  -0.000585  -0.381894  -0.651754  -0.001518  2.270879  0.0
O  O153  1  0.38362168  0.57797107  0.64396897  1  -1.187736  -0.000566  -0.381892  -0.651723  -0.001519  2.270828  0.0
O  O154  1  0.61156952  0.05033112  0.09508550  1  -1.165205  0.053753  -0.303367  -0.548052  0.027634  2.314988  0.047
O  O155  1  0.94966935  0.56123879  0.09508609  1  -1.167357  0.053833  -0.30337  -0.548044  0.027633  2.315003  0.047
O  O156  1  0.43876191  0.38843120  0.09508552  1  -1.159199  0.053803  -0.303384  -0.548051  0.027635  2.31484  0.047
O  O157  1  0.38843088  0.94966923  0.09508553  1  -1.165196  0.053754  -0.303369  -0.548032  0.027634  2.314985  0.047
O  O158  1  0.05033067  0.43876194  0.09508559  1  -1.166951  0.053835  -0.303394  -0.548067  0.027635  2.314875  0.047
O  O159  1  0.56123915  0.61156981  0.09508550  1  -1.159235  0.053802  -0.303395  -0.54808  0.027634  2.314851  0.047
O  O160  1  0.05032996  0.61156913  0.40491540  1  -1.165201  0.053756  -0.303405  -0.548089  0.027635  2.314937  0.047
O  O161  1  0.56123768  0.94966895  0.40491467  1  -1.166977  0.053833  -0.303328  -0.548019  0.027634  2.315047  0.047
O  O162  1  0.38843114  0.43876185  0.40491470  1  -1.159206  0.053806  -0.303392  -0.548079  0.027636  2.314855  0.047
O  O163  1  0.94966964  0.38843049  0.40491525  1  -1.16519  0.053756  -0.303403  -0.548077  0.027635  2.314852  0.047
O  O164  1  0.43876192  0.05033067  0.40491469  1  -1.166968  0.053835  -0.303392  -0.548091  0.027635  2.314896  0.047
O  O165  1  0.61156912  0.56123843  0.40491402  1  -1.159242  0.053801  -0.303381  -0.548057  0.027634  2.31494  0.047
O  O166  1  0.38842948  0.94966639  0.90491505  1  -1.165267  0.053752  -0.303402  -0.548117  0.027634  2.315173  0.047
O  O167  1  0.05033087  0.43876147  0.90491446  1  -1.166919  0.053836  -0.30339  -0.548085  0.027635  2.314846  0.047
O  O168  1  0.56123935  0.61156934  0.90491438  1  -1.159237  0.053804  -0.303409  -0.54808  0.027635  2.314866  0.047
O  O169  1  0.61156905  0.05032999  0.90491502  1  -1.1652  0.053756  -0.3034  -0.548073  0.027635  2.314934  0.047
O  O170  1  0.94966917  0.56123870  0.90491496  1  -1.166936  0.053835  -0.303366  -0.548053  0.027635  2.314963  0.047
O  O171  1  0.43876163  0.38843253  0.90491440  1  -1.159206  0.053807  -0.303418  -0.548084  0.027636  2.3148  0.047
O  O172  1  0.94967025  0.38843113  0.59508451  1  -1.165189  0.053756  -0.303414  -0.54809  0.027635  2.314844  0.047
O  O173  1  0.43876121  0.05032998  0.59508524  1  -1.166937  0.053837  -0.303409  -0.548084  0.027636  2.314868  0.047
O  O174  1  0.61156946  0.56123802  0.59508585  1  -1.159234  0.053799  -0.303323  -0.547976  0.027632  2.315017  0.047
O  O175  1  0.05033030  0.61156873  0.59508465  1  -1.165195  0.053756  -0.303391  -0.548061  0.027635  2.314933  0.047
O  O176  1  0.56123830  0.94966959  0.59508586  1  -1.166965  0.053833  -0.303361  -0.547997  0.027633  2.315046  0.047
O  O177  1  0.38843110  0.43876183  0.59508524  1  -1.159187  0.053806  -0.303399  -0.548097  0.027636  2.314764  0.047
O  O178  1  0.76444766  0.23555206  0.25000005  1  -1.099125  0.002695  -0.269175  -0.256624  0.001242  2.745387  0.002
O  O179  1  0.76444728  0.52889526  0.25000005  1  -1.09907  0.002704  -0.269145  -0.256611  0.001242  2.745303  0.002
O  O180  1  0.47110441  0.23555242  0.25000010  1  -1.099073  0.002704  -0.26918  -0.256655  0.001242  2.745363  0.002
O  O181  1  0.23555239  0.76444721  0.25000014  1  -1.099128  0.002695  -0.269158  -0.256614  0.001242  2.7453  0.002
O  O182  1  0.23555239  0.47110439  0.24999950  1  -1.099082  0.002704  -0.269155  -0.256646  0.001242  2.745408  0.002
O  O183  1  0.52889592  0.76444790  0.25000009  1  -1.099064  0.002704  -0.269169  -0.256635  0.001242  2.74535  0.002
O  O184  1  0.23555228  0.76444716  0.74999985  1  -1.099119  0.002695  -0.269175  -0.256663  0.001242  2.745349  0.002
O  O185  1  0.23555294  0.47110500  0.74999985  1  -1.099073  0.002704  -0.269152  -0.256618  0.001242  2.745278  0.002
O  O186  1  0.52889580  0.76444784  0.74999980  1  -1.099064  0.002704  -0.269174  -0.256638  0.001242  2.745359  0.002
O  O187  1  0.76444755  0.23555200  0.74999977  1  -1.099127  0.002695  -0.269181  -0.256634  0.001242  2.745375  0.002
O  O188  1  0.76444717  0.52889521  0.75000041  1  -1.0991  0.002704  -0.269157  -0.256627  0.001242  2.74535  0.002
O  O189  1  0.47110430  0.23555236  0.74999981  1  -1.099072  0.002704  -0.269179  -0.256651  0.001242  2.745356  0.002
O  O190  1  0.50192909  0.86035792  0.99999999  1  -1.262121  0.065544  -0.576275  -0.749288  0.033531  2.065149  0.051
O  O191  1  0.13964067  0.64157168  0.00000004  1  -1.247217  0.065483  -0.576326  -0.749378  0.033531  2.065059  0.051
O  O192  1  0.35842900  0.49806975  0.00000001  1  -1.247926  0.065543  -0.576279  -0.749344  0.033529  2.06507  0.051
O  O193  1  0.49807062  0.13964118  0.99999999  1  -1.262113  0.065543  -0.57628  -0.749323  0.03353  2.06511  0.051
O  O194  1  0.86035931  0.35842846  0.99999993  1  -1.247208  0.065481  -0.576332  -0.749379  0.03353  2.065047  0.051
O  O195  1  0.64157137  0.50193001  0.99999996  1  -1.24791  0.065543  -0.576284  -0.749343  0.033529  2.065078  0.051
O  O196  1  0.86035839  0.50192887  0.49999957  1  -1.262115  0.065543  -0.576262  -0.749267  0.03353  2.065163  0.051
O  O197  1  0.64157110  0.13964021  0.49999961  1  -1.247205  0.065482  -0.576297  -0.749374  0.033531  2.06505  0.051
O  O198  1  0.49806914  0.35842849  0.49999963  1  -1.247904  0.065544  -0.576317  -0.749353  0.03353  2.065081  0.051
O  O199  1  0.13964183  0.49807139  0.50000033  1  -1.262113  0.065542  -0.576262  -0.749273  0.03353  2.065151  0.051
O  O200  1  0.35842845  0.86035939  0.50000030  1  -1.247209  0.065483  -0.576321  -0.749369  0.033531  2.065053  0.051
O  O201  1  0.50193004  0.64157149  0.50000027  1  -1.247895  0.065543  -0.576285  -0.749338  0.033529  2.065084  0.051
