# generated using pymatgen
data_MgH6C3(NO)4
_symmetry_space_group_name_H-M   'P 1'
_cell_length_a   8.35600400
_cell_length_b   8.10128432
_cell_length_c   9.55216016
_cell_angle_alpha   89.99991051
_cell_angle_beta   89.99999887
_cell_angle_gamma   89.99986385
_symmetry_Int_Tables_number   1
_chemical_formula_structural   MgH6C3(NO)4
_chemical_formula_sum   'Mg4 H24 C12 N16 O16'
_cell_volume   646.62740862
_cell_formula_units_Z   4
loop_
 _symmetry_equiv_pos_site_id
 _symmetry_equiv_pos_as_xyz
  1  'x, y, z'
loop_
 _atom_site_type_symbol
 _atom_site_label
 _atom_site_symmetry_multiplicity
 _atom_site_fract_x
 _atom_site_fract_y
 _atom_site_fract_z
 _atom_site_occupancy
 _atom_site_pbe_bader_spin_density
 _atom_site_pbe_cm5_charge
 _atom_site_pbe_ddec_charge
 _atom_site_pbe_ddec_spin_density
 _atom_site_pbe_ddec_sum_bond_order
 _atom_site_pbe_magmom
Mg  Mg0  1  0.75686858  0.31892747  0.06466577  1  0  0.839045  1.301574  0  1.503955  0
Mg  Mg1  1  0.24313200  0.81892586  0.93533444  1  0  0.839062  1.301539  0  1.503868  0
Mg  Mg2  1  0.24313737  0.31892150  0.56466472  1  0  0.839127  1.30174  0  1.503616  0
Mg  Mg3  1  0.75686201  0.81892565  0.43533340  1  0  0.83909  1.301684  0  1.503766  0
H  H4  1  0.10077886  0.14487679  0.14110620  1  0  0.117163  0.150982  0  1.006958  0
H  H5  1  0.89922810  0.64488728  0.85889531  1  0  0.117188  0.150951  0  1.007028  0
H  H6  1  0.89922151  0.14487416  0.64110933  1  0  0.117172  0.151042  0  1.006875  0
H  H7  1  0.10077589  0.64487510  0.35889218  1  0  0.1172  0.151086  0  1.00703  0
H  H8  1  0.13198646  0.05648445  0.30942735  1  0  0.120828  0.159684  0  0.973428  0
H  H9  1  0.86801472  0.55648667  0.69057638  1  0  0.120824  0.159723  0  0.973412  0
H  H10  1  0.86800812  0.05648313  0.80943467  1  0  0.120763  0.159642  0  0.973421  0
H  H11  1  0.13198349  0.55648181  0.19056906  1  0  0.120789  0.15966  0  0.973407  0
H  H12  1  0.66780292  0.63304696  0.00064547  1  0  0.292735  0.353335  0  1.010656  0
H  H13  1  0.33219929  0.13304185  0.99935396  1  0  0.292758  0.353378  0  1.010614  0
H  H14  1  0.33219513  0.63304201  0.50064442  1  0  0.292764  0.353373  0  1.010616  0
H  H15  1  0.66780110  0.13304557  0.49935711  1  0  0.292742  0.353358  0  1.010634  0
H  H16  1  0.75396131  0.64418447  0.14957722  1  0  0.310575  0.395342  0  0.935277  0
H  H17  1  0.24603249  0.14418970  0.85042743  1  0  0.310549  0.395312  0  0.935296  0
H  H18  1  0.24603431  0.64418590  0.64957512  1  0  0.310566  0.395318  0  0.93528  0
H  H19  1  0.75395949  0.14418950  0.35042534  1  0  0.310592  0.395388  0  0.935201  0
H  H20  1  0.66613065  0.99083954  0.09204339  1  0  0.295456  0.350619  0  1.007288  0
H  H21  1  0.33386235  0.49083705  0.90795553  1  0  0.295457  0.350599  0  1.007318  0
H  H22  1  0.33387255  0.99083458  0.59204234  1  0  0.29543  0.350592  0  1.007322  0
H  H23  1  0.66613003  0.49083707  0.40796077  1  0  0.29546  0.350634  0  1.007263  0
H  H24  1  0.84948385  0.98884336  0.05703560  1  0  0.301447  0.393515  0  0.934788  0
H  H25  1  0.15051155  0.48884497  0.94296960  1  0  0.301455  0.393525  0  0.934841  0
H  H26  1  0.15052175  0.98884503  0.55703036  1  0  0.301455  0.393537  0  0.934813  0
H  H27  1  0.84948442  0.48884577  0.44296647  1  0  0.30147  0.393561  0  0.934773  0
C  C28  1  0.29900029  0.24006259  0.25307766  1  0  0.22592  0.336512  0  3.997442  0
C  C29  1  0.70100406  0.74006882  0.74692162  1  0  0.225918  0.336668  0  3.99743  0
C  C30  1  0.70100344  0.24006662  0.75307974  1  0  0.225915  0.336672  0  3.997352  0
C  C31  1  0.29899493  0.74006233  0.24692058  1  0  0.225948  0.336611  0  3.997292  0
C  C32  1  0.13371802  0.17261917  0.24935394  1  0  -0.15081  -0.409777  0  3.906295  0
C  C33  1  0.86628290  0.67262376  0.75064438  1  0  -0.150848  -0.409877  0  3.906276  0
C  C34  1  0.86628348  0.17261662  0.74935603  1  0  -0.150813  -0.409852  0  3.905975  0
C  C35  1  0.13371026  0.67261643  0.25064753  1  0  -0.150848  -0.409934  0  3.906327  0
C  C36  1  0.00897764  0.28377078  0.31682447  1  0  0.237465  0.690203  0  4.10175  0
C  C37  1  0.99104217  0.78376777  0.68318626  1  0  0.237452  0.690123  0  4.101738  0
C  C38  1  0.99104274  0.28376298  0.81681608  1  0  0.23747  0.690182  0  4.101653  0
C  C39  1  0.00897228  0.78376692  0.18316952  1  0  0.237581  0.690325  0  4.101664  0
N  N40  1  0.53567076  0.30352513  0.19024157  1  0  -0.135272  -0.150497  0  3.43592  0
N  N41  1  0.46433105  0.80352566  0.80975762  1  0  -0.135265  -0.150506  0  3.435881  0
N  N42  1  0.46433283  0.30352850  0.69024470  1  0  -0.135265  -0.150631  0  3.435832  0
N  N43  1  0.53566659  0.80352353  0.30975763  1  0  -0.135234  -0.150507  0  3.435776  0
N  N44  1  0.40088513  0.23123556  0.14525912  1  0  -0.205509  -0.245556  0  3.295711  0
N  N45  1  0.59911924  0.73123816  0.85474017  1  0  -0.205499  -0.24556  0  3.295721  0
N  N46  1  0.59911863  0.23123860  0.64526330  1  0  -0.205511  -0.245546  0  3.295767  0
N  N47  1  0.40087976  0.73123389  0.35473808  1  0  -0.20554  -0.245552  0  3.295684  0
N  N48  1  0.51683634  0.35567851  0.32005719  1  0  -0.074223  -0.023895  0  3.322746  0
N  N49  1  0.48316416  0.85568044  0.67994192  1  0  -0.074212  -0.023866  0  3.322679  0
N  N50  1  0.48316593  0.35568430  0.82006032  1  0  -0.074221  -0.023764  0  3.322501  0
N  N51  1  0.51683337  0.85567836  0.17994088  1  0  -0.074238  -0.023853  0  3.322652  0
N  N52  1  0.36872611  0.31612073  0.36263921  1  0  -0.261992  -0.357659  0  3.357294  0
N  N53  1  0.63127686  0.81612484  0.63735891  1  0  -0.262009  -0.357765  0  3.357351  0
N  N54  1  0.63127864  0.31612739  0.86264444  1  0  -0.261999  -0.357796  0  3.357383  0
N  N55  1  0.36872195  0.81612065  0.13735683  1  0  -0.262003  -0.357762  0  3.357434  0
O  O56  1  0.03413434  0.33947045  0.43951291  1  0  -0.332143  -0.614354  0  2.208658  0
O  O57  1  0.96586859  0.83947142  0.56047262  1  0  -0.332117  -0.61436  0  2.208133  0
O  O58  1  0.96587395  0.33947383  0.93951813  1  0  -0.332093  -0.614347  0  2.208313  0
O  O59  1  0.03412658  0.83946927  0.06049043  1  0  -0.332146  -0.614283  0  2.208647  0
O  O60  1  0.88084531  0.31315770  0.24977888  1  0  -0.352935  -0.644539  0  2.287798  0
O  O61  1  0.11915050  0.81315547  0.75021087  1  0  -0.352923  -0.644419  0  2.288344  0
O  O62  1  0.11915945  0.31314093  0.74978515  1  0  -0.352938  -0.644534  0  2.288146  0
O  O63  1  0.88083396  0.81315003  0.25022135  1  0  -0.353022  -0.64468  0  2.287667  0
O  O64  1  0.73246548  0.56941123  0.07164830  1  0  -0.620849  -0.850632  0  2.169505  0
O  O65  1  0.26753927  0.06940887  0.92835436  1  0  -0.620835  -0.850677  0  2.169537  0
O  O66  1  0.26753750  0.56940644  0.57164411  1  0  -0.620853  -0.850678  0  2.169463  0
O  O67  1  0.73246126  0.06941243  0.42835332  1  0  -0.620852  -0.850729  0  2.169485  0
O  O68  1  0.75347372  0.05925631  0.05045870  1  0  -0.606929  -0.834872  0  2.157353  0
O  O69  1  0.24651789  0.55925343  0.94954084  1  0  -0.606951  -0.834848  0  2.157163  0
O  O70  1  0.24652924  0.05925157  0.55045241  1  0  -0.606957  -0.834922  0  2.157152  0
O  O71  1  0.75347194  0.55925447  0.44954608  1  0  -0.60698  -0.834962  0  2.157116  0
