# generated using pymatgen
data_AgH12C14N7O3
_symmetry_space_group_name_H-M   'P 1'
_cell_length_a   7.77971674
_cell_length_b   8.43756322
_cell_length_c   13.68565500
_cell_angle_alpha   89.24470804
_cell_angle_beta   90.87525340
_cell_angle_gamma   64.84290242
_symmetry_Int_Tables_number   1
_chemical_formula_structural   AgH12C14N7O3
_chemical_formula_sum   'Ag2 H24 C28 N14 O6'
_cell_volume   812.85210779
_cell_formula_units_Z   2
loop_
 _symmetry_equiv_pos_site_id
 _symmetry_equiv_pos_as_xyz
  1  'x, y, z'
loop_
 _atom_site_type_symbol
 _atom_site_label
 _atom_site_symmetry_multiplicity
 _atom_site_fract_x
 _atom_site_fract_y
 _atom_site_fract_z
 _atom_site_occupancy
 _atom_site_hle17_bader_spin_density
 _atom_site_hle17_ddec_charge
 _atom_site_hle17_ddec_spin_density
 _atom_site_hle17_ddec_sum_bond_order
 _atom_site_hle17_magmom
 _atom_site_hse06_10hf_bader_spin_density
 _atom_site_hse06_10hf_ddec_charge
 _atom_site_hse06_10hf_ddec_spin_density
 _atom_site_hse06_10hf_ddec_sum_bond_order
 _atom_site_hse06_10hf_magmom
 _atom_site_hse06_bader_spin_density
 _atom_site_hse06_ddec_charge
 _atom_site_hse06_ddec_spin_density
 _atom_site_hse06_ddec_sum_bond_order
 _atom_site_hse06_magmom
 _atom_site_pbe_bader_spin_density
 _atom_site_pbe_cm5_charge
 _atom_site_pbe_ddec_charge
 _atom_site_pbe_ddec_spin_density
 _atom_site_pbe_ddec_sum_bond_order
 _atom_site_pbe_magmom
Ag  Ag0  1  0.02208748  0.49927420  0.24539416  1  0  0.506537  0  1.424812  0  0  0.358679  0  1.858229  0  0  0.38432  0  1.818471  0  0  0.473966  0.340769  0  1.885715  0
Ag  Ag1  1  0.97791678  0.50071699  0.75460452  1  0  0.506542  0  1.424846  0  0  0.358652  0  1.858297  0  0  0.384296  0  1.818539  0  0  0.473951  0.340743  0  1.885783  0
H  H2  1  0.47836094  0.36516185  0.83380911  1  0  0.112706  0  0.933601  0  0  0.12722  0  0.984011  0  0  0.129834  0  0.983207  0  0  0.11107  0.125251  0  0.984886  0
H  H3  1  0.52163387  0.63483320  0.16619175  1  0  0.112706  0  0.933607  0  0  0.127219  0  0.984011  0  0  0.129833  0  0.983205  0  0  0.11108  0.125251  0  0.984887  0
H  H4  1  0.30674609  0.68642422  0.79285968  1  0  0.101305  0  0.971061  0  0  0.108703  0  1.03775  0  0  0.11106  0  1.036856  0  0  0.101405  0.106948  0  1.038558  0
H  H5  1  0.69325457  0.31356958  0.20714410  1  0  0.101222  0  0.971034  0  0  0.108645  0  1.037701  0  0  0.111003  0  1.036807  0  0  0.101398  0.10689  0  1.03851  0
H  H6  1  0.07511704  0.88903409  0.90258223  1  0  0.093927  0  0.940326  0  0  0.10927  0  0.991102  0  0  0.111261  0  0.991514  0  0  0.103753  0.107759  0  0.991088  0
H  H7  1  0.92488806  0.11096108  0.09742005  1  0  0.093908  0  0.940241  0  0  0.109247  0  0.991025  0  0  0.111239  0  0.991436  0  0  0.103742  0.107737  0  0.991012  0
H  H8  1  0.00653911  0.78474834  0.06527811  1  0  0.114886  0  0.971044  0  0  0.121259  0  1.037868  0  0  0.124733  0  1.035328  0  0  0.103873  0.118654  0  1.039941  0
H  H9  1  0.99346407  0.21524812  0.93472342  1  0  0.114864  0  0.971067  0  0  0.121234  0  1.037886  0  0  0.124709  0  1.035347  0  0  0.103868  0.118629  0  1.039956  0
H  H10  1  0.66949453  0.03643637  0.03210156  1  0  0.087578  0  0.941376  0  0  0.097329  0  1.015138  0  0  0.098011  0  1.013895  0  0  0.112495  0.096849  0  1.015002  0
H  H11  1  0.33051313  0.96355883  0.96790071  1  0  0.087503  0  0.941421  0  0  0.097352  0  1.01507  0  0  0.098028  0  1.013819  0  0  0.112488  0.096871  0  1.014937  0
H  H12  1  0.55776083  0.07988763  0.91234174  1  0  0.098274  0  0.922799  0  0  0.110532  0  0.988821  0  0  0.112301  0  0.985474  0  0  0.123019  0.109255  0  0.99037  0
H  H13  1  0.44223911  0.92011011  0.08765833  1  0  0.098239  0  0.922833  0  0  0.110497  0  0.988851  0  0  0.112249  0  0.985499  0  0  0.123  0.109219  0  0.990402  0
H  H14  1  0.66808023  0.34289945  0.64946639  1  0  0.112409  0  0.935374  0  0  0.126332  0  0.986991  0  0  0.129149  0  0.985574  0  0  0.111069  0.124245  0  0.988224  0
H  H15  1  0.33191649  0.65711933  0.35054068  1  0  0.112461  0  0.935278  0  0  0.126362  0  0.986922  0  0  0.129179  0  0.985502  0  0  0.111078  0.124236  0  0.988202  0
H  H16  1  0.52590380  0.66220440  0.68896637  1  0  0.105771  0  0.961648  0  0  0.116837  0  1.021872  0  0  0.119148  0  1.020648  0  0  0.104781  0.115085  0  1.02294  0
H  H17  1  0.47409383  0.33781963  0.31102893  1  0  0.105716  0  0.961619  0  0  0.116816  0  1.021823  0  0  0.119136  0  1.020581  0  0  0.104785  0.115064  0  1.022892  0
H  H18  1  0.55389512  0.87912653  0.57918892  1  0  0.094905  0  0.950368  0  0  0.10776  0  1.006745  0  0  0.11012  0  1.006627  0  0  0.102083  0.106005  0  1.007036  0
H  H19  1  0.44609310  0.12089210  0.42079627  1  0  0.094887  0  0.950265  0  0  0.107767  0  1.006609  0  0  0.11013  0  1.006486  0  0  0.102106  0.106012  0  1.006902  0
H  H20  1  0.72751964  0.79198790  0.42066702  1  0  0.112075  0  0.971795  0  0  0.11909  0  1.037804  0  0  0.121841  0  1.036293  0  0  0.105019  0.116994  0  1.039115  0
H  H21  1  0.27248114  0.20800981  0.57932135  1  0  0.112029  0  0.971834  0  0  0.119017  0  1.037856  0  0  0.121769  0  1.036345  0  0  0.105002  0.116922  0  1.039166  0
H  H22  1  0.82514918  0.01597045  0.43904021  1  0  0.091745  0  0.963117  0  0  0.097232  0  1.04342  0  0  0.099179  0  1.041482  0  0  0.11333  0.095662  0  1.045005  0
H  H23  1  0.17484517  0.98403381  0.56096124  1  0  0.091766  0  0.963085  0  0  0.097267  0  1.043384  0  0  0.099208  0  1.041447  0  0  0.113326  0.095698  0  1.044968  0
H  H24  1  0.82629931  0.07188090  0.56575200  1  0  0.096785  0  0.91287  0  0  0.111207  0  0.975033  0  0  0.112463  0  0.973956  0  0  0.122828  0.110242  0  0.97586  0
H  H25  1  0.17369379  0.92811809  0.43425246  1  0  0.096765  0  0.912952  0  0  0.111191  0  0.975121  0  0  0.11244  0  0.974043  0  0  0.122831  0.11023  0  0.975941  0
C  C26  1  0.33651642  0.39975919  0.97350592  1  0  0.102671  0  3.775525  0  0  0.078252  0  4.016552  0  0  0.092195  0  4.042218  0  0  0.108801  0.076176  0  4.000937  0
C  C27  1  0.66348234  0.60023591  0.02649785  1  0  0.102754  0  3.775377  0  0  0.078249  0  4.016468  0  0  0.092183  0  4.042138  0  0  0.108815  0.076166  0  4.000865  0
C  C28  1  0.37760886  0.45585844  0.88358604  1  0  -0.135758  0  3.751598  0  0  -0.153512  0  4.012737  0  0  -0.156422  0  4.029443  0  0  -0.08892  -0.151626  0  4.000269  0
C  C29  1  0.62239250  0.54413932  0.11641768  1  0  -0.135806  0  3.751497  0  0  -0.153544  0  4.012675  0  0  -0.156453  0  4.029383  0  0  -0.088955  -0.151662  0  4.000218  0
C  C30  1  0.28172944  0.63363244  0.86141148  1  0  -0.060687  0  3.751665  0  0  -0.085317  0  4.02209  0  0  -0.085671  0  4.042582  0  0  -0.090827  -0.085027  0  4.008564  0
C  C31  1  0.71827954  0.36636541  0.13859075  1  0  -0.060596  0  3.751459  0  0  -0.085241  0  4.021881  0  0  -0.085595  0  4.042375  0  0  -0.090813  -0.084947  0  4.008352  0
C  C32  1  0.14932351  0.75199710  0.92578746  1  0  -0.067544  0  3.757428  0  0  -0.084893  0  4.018514  0  0  -0.088316  0  4.04116  0  0  -0.092527  -0.082712  0  4.00352  0
C  C33  1  0.85067832  0.24800197  0.07421112  1  0  -0.067451  0  3.75745  0  0  -0.08479  0  4.01851  0  0  -0.088213  0  4.04116  0  0  -0.092476  -0.082609  0  4.003509  0
C  C34  1  0.10997366  0.69725728  0.01514989  1  0  -0.124611  0  3.720711  0  0  -0.145764  0  3.974108  0  0  -0.147307  0  3.99445  0  0  -0.089904  -0.144663  0  3.960637  0
C  C35  1  0.89003075  0.30273656  0.98485168  1  0  -0.124575  0  3.72089  0  0  -0.145762  0  3.97427  0  0  -0.147301  0  3.994603  0  0  -0.089918  -0.144665  0  3.960815  0
C  C36  1  0.20696786  0.51792965  0.03840164  1  0  0.110453  0  3.837442  0  0  0.105768  0  4.090705  0  0  0.106683  0  4.112085  0  0  0.090405  0.105494  0  4.073816  0
C  C37  1  0.79303150  0.48206677  0.96160064  1  0  0.110316  0  3.837534  0  0  0.105741  0  4.090678  0  0  0.106657  0  4.112059  0  0  0.090354  0.105462  0  4.073796  0
C  C38  1  0.53630247  0.06983321  0.99061018  1  0  -0.02642  0  3.611722  0  0  -0.107505  0  3.879129  0  0  -0.093329  0  3.889136  0  0  -0.041932  -0.109387  0  3.872289  0
C  C39  1  0.46370139  0.93016457  0.00939207  1  0  -0.02631  0  3.61172  0  0  -0.107384  0  3.878998  0  0  -0.09313  0  3.888941  0  0  -0.04187  -0.109268  0  3.872162  0
C  C40  1  0.77487319  0.39307520  0.51163770  1  0  0.09893  0  3.778794  0  0  0.075696  0  4.019445  0  0  0.078627  0  4.042994  0  0  0.108545  0.073806  0  4.003646  0
C  C41  1  0.22511609  0.60693163  0.48836373  1  0  0.098999  0  3.778657  0  0  0.075725  0  4.019352  0  0  0.078653  0  4.042899  0  0  0.108551  0.073841  0  4.003536  0
C  C42  1  0.67884957  0.43998264  0.59992710  1  0  -0.12967  0  3.754561  0  0  -0.146974  0  4.012791  0  0  -0.149402  0  4.030974  0  0  -0.088461  -0.145418  0  4.000636  0
C  C43  1  0.32116298  0.56002711  0.40008005  1  0  -0.129938  0  3.754262  0  0  -0.147228  0  4.012549  0  0  -0.149674  0  4.030767  0  0  -0.088597  -0.145637  0  4.000406  0
C  C44  1  0.60130497  0.61671637  0.62129572  1  0  -0.067056  0  3.755302  0  0  -0.087939  0  4.019622  0  0  -0.087981  0  4.038664  0  0  -0.092374  -0.087838  0  4.006905  0
C  C45  1  0.39868873  0.38329971  0.37870044  1  0  -0.066936  0  3.755112  0  0  -0.087839  0  4.019435  0  0  -0.087884  0  4.038484  0  0  -0.092336  -0.087739  0  4.00671  0
C  C46  1  0.61660041  0.74302595  0.55698111  1  0  -0.063653  0  3.754399  0  0  -0.081764  0  4.014152  0  0  -0.085293  0  4.03676  0  0  -0.092528  -0.079468  0  3.998924  0
C  C47  1  0.38338155  0.25699262  0.44300776  1  0  -0.06349  0  3.754342  0  0  -0.081614  0  4.014073  0  0  -0.085147  0  4.036688  0  0  -0.092528  -0.079321  0  3.998854  0
C  C48  1  0.71106829  0.69678660  0.46954157  1  0  -0.126831  0  3.720769  0  0  -0.148046  0  3.9758  0  0  -0.149482  0  3.996542  0  0  -0.090814  -0.146911  0  3.961826  0
C  C49  1  0.28893781  0.30321382  0.53045112  1  0  -0.126869  0  3.72085  0  0  -0.148062  0  3.975905  0  0  -0.149498  0  3.996652  0  0  -0.090767  -0.146926  0  3.961921  0
C  C50  1  0.79128936  0.51811118  0.44733481  1  0  0.114016  0  3.82577  0  0  0.107639  0  4.081456  0  0  0.107866  0  4.106265  0  0  0.09127  0.107261  0  4.064739  0
C  C51  1  0.20870478  0.48189043  0.55266230  1  0  0.114074  0  3.825896  0  0  0.107705  0  4.081589  0  0  0.107933  0  4.106399  0  0  0.091278  0.10733  0  4.064868  0
C  C52  1  0.89426446  0.06205244  0.49523346  1  0  -0.030093  0  3.606615  0  0  -0.108971  0  3.871315  0  0  -0.106137  0  3.881096  0  0  -0.043368  -0.110517  0  3.864406  0
C  C53  1  0.10573242  0.93794658  0.50476953  1  0  -0.03019  0  3.606744  0  0  -0.109144  0  3.871504  0  0  -0.106298  0  3.881304  0  0  -0.043451  -0.110688  0  3.864596  0
N  N54  1  0.39662101  0.24021608  0.02060647  1  0  0.018469  0  3.491311  0  0  0.137899  0  3.669364  0  0  0.093384  0  3.736332  0  0  -0.117485  0.144878  0  3.653724  0
N  N55  1  0.60338226  0.75978302  0.97939649  1  0  0.018317  0  3.491249  0  0  0.137712  0  3.66942  0  0  0.093198  0  3.736331  0  0  -0.117566  0.144731  0  3.653709  0
N  N56  1  0.31352476  0.25615145  0.10786094  1  0  -0.052085  0  2.849612  0  0  -0.069983  0  3.119231  0  0  -0.051973  0  3.134533  0  0  -0.070708  -0.074811  0  3.113114  0
N  N57  1  0.68647976  0.74384766  0.89214128  1  0  -0.052011  0  2.849567  0  0  -0.069891  0  3.119181  0  0  -0.051886  0  3.134479  0  0  -0.070694  -0.074728  0  3.113063  0
N  N58  1  0.19954885  0.42204405  0.11915516  1  0  -0.235857  0  3.282287  0  0  -0.176293  0  3.60559  0  0  -0.187761  0  3.612514  0  0  -0.230869  -0.167717  0  3.597778  0
N  N59  1  0.80045567  0.57795506  0.88084707  1  0  -0.235794  0  3.282186  0  0  -0.176247  0  3.605443  0  0  -0.187717  0  3.612369  0  0  -0.230776  -0.167672  0  3.597636  0
N  N60  1  0.86937801  0.23691713  0.46615729  1  0  0.021732  0  3.502397  0  0  0.13854  0  3.683068  0  0  0.127213  0  3.707579  0  0  -0.118611  0.145549  0  3.667268  0
N  N61  1  0.13061700  0.76308319  0.53384641  1  0  0.02182  0  3.502149  0  0  0.138685  0  3.682793  0  0  0.127353  0  3.707293  0  0  -0.118504  0.145665  0  3.667044  0
N  N62  1  0.93913717  0.26062687  0.38057862  1  0  -0.060745  0  2.85017  0  0  -0.078238  0  3.120839  0  0  -0.070847  0  3.129967  0  0  -0.075121  -0.082991  0  3.11469  0
N  N63  1  0.06086352  0.73936694  0.61942589  1  0  -0.060772  0  2.849868  0  0  -0.07827  0  3.120528  0  0  -0.07088  0  3.129658  0  0  -0.075179  -0.083016  0  3.114377  0
N  N64  1  0.89385460  0.42862128  0.36867020  1  0  -0.235796  0  3.256446  0  0  -0.175551  0  3.574337  0  0  -0.187754  0  3.585899  0  0  -0.22872  -0.166978  0  3.566189  0
N  N65  1  0.10614644  0.57136856  0.63132853  1  0  -0.235872  0  3.256484  0  0  -0.17563  0  3.574392  0  0  -0.187834  0  3.585954  0  0  -0.228736  -0.167056  0  3.566239  0
N  N66  1  0.80364305  0.89728967  0.25195566  1  0  0.678672  0  4.172252  0  0  0.718508  0  4.452198  0  0  0.74479  0  4.458567  0  0  0.086444  0.699568  0  4.447727  0
N  N67  1  0.19636561  0.10270025  0.74804157  1  0  0.67849  0  4.172799  0  0  0.718397  0  4.452688  0  0  0.7447  0  4.459059  0  0  0.086503  0.699454  0  4.448214  0
O  O68  1  0.94981576  0.80791402  0.30606501  1  0  -0.502162  0  1.79613  0  0  -0.484173  0  2.033126  0  0  -0.500262  0  2.024381  0  0  -0.218283  -0.472155  0  2.038813  0
O  O69  1  0.05019227  0.19207985  0.69393070  1  0  -0.502109  0  1.796256  0  0  -0.48416  0  2.033244  0  0  -0.500262  0  2.024498  0  0  -0.218355  -0.472151  0  2.038948  0
O  O70  1  0.77342496  0.82826623  0.17526154  1  0  -0.498202  0  1.792979  0  0  -0.484136  0  2.024492  0  0  -0.498735  0  2.016241  0  0  -0.209052  -0.473212  0  2.029738  0
O  O71  1  0.22658497  0.17172371  0.82473568  1  0  -0.498165  0  1.793108  0  0  -0.484093  0  2.024587  0  0  -0.498704  0  2.016339  0  0  -0.209044  -0.473166  0  2.029831  0
O  O72  1  0.69116814  0.04921918  0.27568276  1  0  -0.456616  0  1.760031  0  0  -0.454678  0  1.978815  0  0  -0.4675  0  1.971989  0  0  -0.193629  -0.445001  0  1.983384  0
O  O73  1  0.30883485  0.95076937  0.72431743  1  0  -0.456553  0  1.760376  0  0  -0.454598  0  1.979088  0  0  -0.467425  0  1.97226  0  0  -0.193615  -0.444923  0  1.983657  0
