# generated using pymatgen
data_SmH19C32N4O5
_symmetry_space_group_name_H-M   'P 1'
_cell_length_a   8.72125418
_cell_length_b   8.72124641
_cell_length_c   17.31749934
_cell_angle_alpha   92.26517625
_cell_angle_beta   92.26513999
_cell_angle_gamma   105.94741064
_symmetry_Int_Tables_number   1
_chemical_formula_structural   SmH19C32N4O5
_chemical_formula_sum   'Sm2 H38 C64 N8 O10'
_cell_volume   1263.74934149
_cell_formula_units_Z   2
loop_
 _symmetry_equiv_pos_site_id
 _symmetry_equiv_pos_as_xyz
  1  'x, y, z'
loop_
 _atom_site_type_symbol
 _atom_site_label
 _atom_site_symmetry_multiplicity
 _atom_site_fract_x
 _atom_site_fract_y
 _atom_site_fract_z
 _atom_site_occupancy
 _atom_site_hle17_bader_spin_density
 _atom_site_hle17_ddec_charge
 _atom_site_hle17_ddec_spin_density
 _atom_site_hle17_ddec_sum_bond_order
 _atom_site_hle17_magmom
 _atom_site_hse06_10hf_bader_spin_density
 _atom_site_hse06_10hf_ddec_charge
 _atom_site_hse06_10hf_ddec_spin_density
 _atom_site_hse06_10hf_ddec_sum_bond_order
 _atom_site_hse06_10hf_magmom
 _atom_site_hse06_bader_spin_density
 _atom_site_hse06_ddec_charge
 _atom_site_hse06_ddec_spin_density
 _atom_site_hse06_ddec_sum_bond_order
 _atom_site_hse06_magmom
 _atom_site_pbe_bader_spin_density
 _atom_site_pbe_cm5_charge
 _atom_site_pbe_ddec_charge
 _atom_site_pbe_ddec_spin_density
 _atom_site_pbe_ddec_sum_bond_order
 _atom_site_pbe_magmom
Sm  Sm0  1  0.70789761  0.29210237  0.75000140  1  0  2.080032  0  1.790099  0  0  1.860494  0  2.328515  0  0  1.914139  0  2.28178  0  0  1.486099  1.820175  0  2.364638  0
Sm  Sm1  1  0.29210200  0.70789973  0.24999860  1  0  2.079997  0  1.790103  0  0  1.860433  0  2.32855  0  0  1.914073  0  2.281824  0  0  1.486045  1.820112  0  2.364672  0
H  H2  1  0.24417193  0.75583030  0.74999978  1  0  0.101016  0  0.95342  0  0  0.109413  0  1.020685  0  0  0.11318  0  1.018248  0  0  0.099865  0.106709  0  1.022484  0
H  H3  1  0.75582736  0.24417062  0.24999903  1  0  0.101017  0  0.953409  0  0  0.109399  0  1.020701  0  0  0.113167  0  1.018263  0  0  0.099849  0.106696  0  1.022504  0
H  H4  1  0.17469035  0.22464894  0.78444224  1  0  0.113098  0  0.968792  0  0  0.124118  0  1.031308  0  0  0.127977  0  1.028599  0  0  0.105893  0.121315  0  1.033445  0
H  H5  1  0.77535309  0.82530952  0.71555836  1  0  0.113092  0  0.968822  0  0  0.124145  0  1.031306  0  0  0.127976  0  1.028636  0  0  0.105895  0.121341  0  1.03344  0
H  H6  1  0.82530779  0.77535197  0.21555713  1  0  0.113068  0  0.968825  0  0  0.124116  0  1.031316  0  0  0.127952  0  1.028638  0  0  0.105879  0.121312  0  1.033452  0
H  H7  1  0.22464651  0.17469257  0.28444279  1  0  0.113031  0  0.9688  0  0  0.124047  0  1.031331  0  0  0.12791  0  1.028619  0  0  0.105863  0.121242  0  1.033465  0
H  H8  1  0.35867706  0.41700552  0.74435996  1  0  0.073151  0  0.955104  0  0  0.080838  0  1.022022  0  0  0.08338  0  1.019448  0  0  0.121057  0.078998  0  1.023848  0
H  H9  1  0.58299195  0.64132093  0.75563761  1  0  0.073123  0  0.955057  0  0  0.080762  0  1.022066  0  0  0.083304  0  1.019489  0  0  0.12105  0.078923  0  1.02389  0
H  H10  1  0.64132304  0.58299420  0.25563999  1  0  0.073144  0  0.955121  0  0  0.080826  0  1.022051  0  0  0.083369  0  1.019474  0  0  0.121049  0.078986  0  1.023875  0
H  H11  1  0.41700275  0.35867999  0.24436110  1  0  0.073131  0  0.955097  0  0  0.080806  0  1.022045  0  0  0.083347  0  1.019471  0  0  0.12106  0.078964  0  1.023872  0
H  H12  1  0.14517246  0.47128239  0.65974542  1  0  0.118283  0  0.961223  0  0  0.128999  0  1.016859  0  0  0.132028  0  1.016307  0  0  0.111685  0.126701  0  1.017554  0
H  H13  1  0.52871304  0.85482861  0.84025163  1  0  0.118184  0  0.96141  0  0  0.128992  0  1.016928  0  0  0.132024  0  1.016374  0  0  0.111682  0.126694  0  1.01762  0
H  H14  1  0.85483094  0.52872093  0.34025295  1  0  0.118239  0  0.961319  0  0  0.128956  0  1.016954  0  0  0.132003  0  1.016382  0  0  0.111656  0.126658  0  1.017649  0
H  H15  1  0.47128509  0.14517230  0.15974831  1  0  0.1182  0  0.961328  0  0  0.128975  0  1.016893  0  0  0.132008  0  1.016338  0  0  0.111698  0.126676  0  1.017594  0
H  H16  1  0.14529657  0.41345498  0.51503435  1  0  0.100558  0  0.924868  0  0  0.115312  0  0.97725  0  0  0.118121  0  0.975753  0  0  0.111  0.113265  0  0.978384  0
H  H17  1  0.58654186  0.85470659  0.98496277  1  0  0.100568  0  0.924883  0  0  0.115293  0  0.977292  0  0  0.1181  0  0.975797  0  0  0.111001  0.113243  0  0.978421  0
H  H18  1  0.85470633  0.58654237  0.48496388  1  0  0.100557  0  0.92491  0  0  0.115285  0  0.977311  0  0  0.118092  0  0.975816  0  0  0.110992  0.113236  0  0.978447  0
H  H19  1  0.41345891  0.14529553  0.01503609  1  0  0.10057  0  0.924899  0  0  0.115297  0  0.977299  0  0  0.118106  0  0.975803  0  0  0.110993  0.113245  0  0.978435  0
H  H20  1  0.26860125  0.31086252  0.40520634  1  0  0.117576  0  0.979316  0  0  0.125  0  1.044122  0  0  0.128809  0  1.041777  0  0  0.103778  0.122192  0  1.045902  0
H  H21  1  0.68913369  0.73140627  0.09479254  1  0  0.117569  0  0.979323  0  0  0.124986  0  1.044149  0  0  0.128793  0  1.041802  0  0  0.103819  0.122179  0  1.045924  0
H  H22  1  0.73140064  0.68913123  0.59479352  1  0  0.117592  0  0.979335  0  0  0.125054  0  1.044089  0  0  0.12886  0  1.041739  0  0  0.103812  0.122245  0  1.045866  0
H  H23  1  0.31086396  0.26859703  0.90520687  1  0  0.117578  0  0.979305  0  0  0.124991  0  1.044136  0  0  0.128798  0  1.041789  0  0  0.103793  0.122182  0  1.045912  0
H  H24  1  0.47299885  0.18254459  0.35748821  1  0  0.115602  0  0.950498  0  0  0.126664  0  1.010984  0  0  0.12992  0  1.008951  0  0  0.109202  0.124231  0  1.012623  0
H  H25  1  0.81745545  0.52701213  0.14251251  1  0  0.115612  0  0.950454  0  0  0.126649  0  1.010974  0  0  0.129908  0  1.008936  0  0  0.109197  0.124217  0  1.012615  0
H  H26  1  0.52700698  0.81745513  0.64251244  1  0  0.115567  0  0.950495  0  0  0.126637  0  1.010978  0  0  0.129898  0  1.008932  0  0  0.109169  0.124203  0  1.012618  0
H  H27  1  0.18254039  0.47298878  0.85748680  1  0  0.115572  0  0.950511  0  0  0.126624  0  1.011021  0  0  0.129882  0  1.008983  0  0  0.109186  0.124188  0  1.012663  0
H  H28  1  0.71855011  0.10294201  0.38168129  1  0  0.107689  0  0.964121  0  0  0.116932  0  1.027162  0  0  0.119229  0  1.026302  0  0  0.108747  0.115187  0  1.027869  0
H  H29  1  0.89705922  0.28146410  0.11832237  1  0  0.107755  0  0.964005  0  0  0.116981  0  1.027053  0  0  0.119257  0  1.026214  0  0  0.108728  0.115235  0  1.027756  0
H  H30  1  0.28145834  0.89705889  0.61832003  1  0  0.107711  0  0.964122  0  0  0.116951  0  1.027158  0  0  0.119229  0  1.026318  0  0  0.108748  0.11521  0  1.027854  0
H  H31  1  0.10293679  0.71854159  0.88167705  1  0  0.107736  0  0.964088  0  0  0.116993  0  1.027091  0  0  0.119271  0  1.026251  0  0  0.108748  0.115249  0  1.027794  0
H  H32  1  0.93575690  0.07820438  0.47601778  1  0  0.098952  0  0.955866  0  0  0.112607  0  1.010233  0  0  0.115373  0  1.010007  0  0  0.106608  0.110605  0  1.010594  0
H  H33  1  0.92179532  0.06425241  0.02398571  1  0  0.098944  0  0.955802  0  0  0.112599  0  1.010187  0  0  0.115365  0  1.00996  0  0  0.106626  0.110598  0  1.010543  0
H  H34  1  0.06425401  0.92180129  0.52398428  1  0  0.098962  0  0.95578  0  0  0.112609  0  1.01017  0  0  0.115373  0  1.009945  0  0  0.106641  0.11061  0  1.01053  0
H  H35  1  0.07820280  0.93574849  0.97601481  1  0  0.099011  0  0.955804  0  0  0.112662  0  1.010177  0  0  0.115428  0  1.00995  0  0  0.106647  0.110659  0  1.010537  0
H  H36  1  0.91702269  0.14730774  0.61700702  1  0  0.07832  0  0.96354  0  0  0.085825  0  1.028339  0  0  0.087924  0  1.027253  0  0  0.119577  0.084251  0  1.029145  0
H  H37  1  0.85269150  0.08297867  0.88299747  1  0  0.078341  0  0.96356  0  0  0.085862  0  1.028334  0  0  0.087948  0  1.027282  0  0  0.119603  0.084286  0  1.029141  0
H  H38  1  0.08297919  0.85269433  0.38299591  1  0  0.078315  0  0.963539  0  0  0.08581  0  1.028352  0  0  0.087904  0  1.027275  0  0  0.119578  0.084238  0  1.029155  0
H  H39  1  0.14730662  0.91702223  0.11700305  1  0  0.078346  0  0.963504  0  0  0.085835  0  1.028319  0  0  0.087924  0  1.027257  0  0  0.119592  0.08426  0  1.029128  0
C  C40  1  0.22805146  0.99889984  0.76608529  1  0  -0.040585  0  3.810516  0  0  -0.018511  0  4.047637  0  0  -0.023143  0  4.069096  0  0  -0.027059  -0.015535  0  4.033032  0
C  C41  1  0.00110124  0.77194828  0.73391424  1  0  -0.040701  0  3.810653  0  0  -0.018543  0  4.047659  0  0  -0.023174  0  4.06911  0  0  -0.027058  -0.015576  0  4.033065  0
C  C42  1  0.77194931  0.00110228  0.23391358  1  0  -0.040626  0  3.810555  0  0  -0.018539  0  4.047669  0  0  -0.023172  0  4.069125  0  0  -0.027048  -0.015558  0  4.033061  0
C  C43  1  0.99889804  0.22805263  0.26608515  1  0  -0.040584  0  3.810557  0  0  -0.018474  0  4.047625  0  0  -0.023106  0  4.069083  0  0  -0.02701  -0.01551  0  4.033031  0
C  C44  1  0.16592480  0.83407570  0.74999976  1  0  -0.146975  0  3.768315  0  0  -0.180259  0  4.024468  0  0  -0.181222  0  4.042869  0  0  -0.107786  -0.179345  0  4.011916  0
C  C45  1  0.83407565  0.16592522  0.24999850  1  0  -0.146989  0  3.768338  0  0  -0.180248  0  4.024496  0  0  -0.181214  0  4.042901  0  0  -0.107776  -0.179334  0  4.011946  0
C  C46  1  0.12646939  0.09794811  0.76936674  1  0  -0.209994  0  3.670361  0  0  -0.24048  0  3.91711  0  0  -0.244529  0  3.935185  0  0  -0.104622  -0.237529  0  3.904953  0
C  C47  1  0.90205120  0.87352992  0.73063378  1  0  -0.209923  0  3.670341  0  0  -0.24046  0  3.917047  0  0  -0.244492  0  3.935141  0  0  -0.104616  -0.237503  0  3.904884  0
C  C48  1  0.87353070  0.90205161  0.23063322  1  0  -0.209945  0  3.670292  0  0  -0.240455  0  3.91703  0  0  -0.244491  0  3.935121  0  0  -0.104612  -0.237501  0  3.904866  0
C  C49  1  0.09794659  0.12646978  0.26936729  1  0  -0.209926  0  3.670227  0  0  -0.240415  0  3.916972  0  0  -0.24447  0  3.935046  0  0  -0.104627  -0.23745  0  3.904804  0
C  C50  1  0.96113142  0.03886932  0.75000080  1  0  0.386816  0  3.940736  0  0  0.383791  0  4.195534  0  0  0.39773  0  4.209475  0  0  0.081358  0.374024  0  4.185836  0
C  C51  1  0.03886899  0.96113158  0.25000034  1  0  0.3868  0  3.940764  0  0  0.383771  0  4.195561  0  0  0.39771  0  4.209506  0  0  0.081358  0.374009  0  4.185853  0
C  C52  1  0.40380755  0.07599677  0.77475115  1  0  0.620504  0  3.959077  0  0  0.578326  0  4.246227  0  0  0.611727  0  4.237329  0  0  0.183758  0.555779  0  4.251212  0
C  C53  1  0.92400491  0.59619217  0.72524823  1  0  0.620525  0  3.959122  0  0  0.578334  0  4.246245  0  0  0.611735  0  4.237346  0  0  0.183763  0.555787  0  4.251234  0
C  C54  1  0.59619240  0.92400654  0.22524772  1  0  0.620615  0  3.958975  0  0  0.578436  0  4.246113  0  0  0.611839  0  4.237212  0  0  0.183817  0.555881  0  4.251105  0
C  C55  1  0.07599437  0.40380874  0.27475174  1  0  0.6205  0  3.959168  0  0  0.578322  0  4.246306  0  0  0.611724  0  4.23741  0  0  0.183753  0.555774  0  4.251295  0
C  C56  1  0.35639441  0.39387745  0.68196827  1  0  0.143588  0  3.720952  0  0  0.113868  0  3.98145  0  0  0.120961  0  3.998299  0  0  0.059116  0.109295  0  3.969846  0
C  C57  1  0.60611728  0.64360423  0.81803041  1  0  0.143822  0  3.720894  0  0  0.114102  0  3.981433  0  0  0.121199  0  3.998277  0  0  0.059211  0.109523  0  3.969835  0
C  C58  1  0.64360617  0.60611988  0.31803165  1  0  0.143649  0  3.720957  0  0  0.113911  0  3.981489  0  0  0.121006  0  3.99834  0  0  0.05916  0.109338  0  3.969882  0
C  C59  1  0.39388053  0.35639550  0.18196834  1  0  0.143637  0  3.720949  0  0  0.113911  0  3.981476  0  0  0.121004  0  3.998325  0  0  0.059125  0.109329  0  3.969879  0
C  C60  1  0.23615763  0.42498256  0.63366298  1  0  -0.11721  0  3.724818  0  0  -0.129804  0  3.978558  0  0  -0.136573  0  3.999817  0  0  -0.082387  -0.125383  0  3.964295  0
C  C61  1  0.57500966  0.76384317  0.86633398  1  0  -0.117345  0  3.72491  0  0  -0.130012  0  3.97867  0  0  -0.13678  0  3.999917  0  0  -0.08247  -0.125594  0  3.964408  0
C  C62  1  0.76384559  0.57501597  0.36633644  1  0  -0.117205  0  3.724824  0  0  -0.129809  0  3.978574  0  0  -0.136591  0  3.999818  0  0  -0.082362  -0.125394  0  3.964318  0
C  C63  1  0.42498652  0.23615894  0.13366479  1  0  -0.117165  0  3.724763  0  0  -0.129807  0  3.978511  0  0  -0.136576  0  3.999761  0  0  -0.082428  -0.125388  0  3.964258  0
C  C64  1  0.23585610  0.39145039  0.55508669  1  0  -0.048752  0  3.702216  0  0  -0.073928  0  3.952376  0  0  -0.071669  0  3.970405  0  0  -0.063555  -0.075137  0  3.939955  0
C  C65  1  0.60854421  0.76414564  0.94491092  1  0  -0.04861  0  3.701995  0  0  -0.073786  0  3.952158  0  0  -0.071523  0  3.970181  0  0  -0.063543  -0.074988  0  3.939725  0
C  C66  1  0.76414580  0.60854336  0.44491318  1  0  -0.048701  0  3.701968  0  0  -0.073866  0  3.952134  0  0  -0.071604  0  3.970165  0  0  -0.06354  -0.075069  0  3.939709  0
C  C67  1  0.39145328  0.23585289  0.05508722  1  0  -0.048696  0  3.701978  0  0  -0.073869  0  3.95213  0  0  -0.071608  0  3.970155  0  0  -0.063545  -0.075072  0  3.939703  0
C  C68  1  0.35453340  0.32638199  0.52565150  1  0  0.023523  0  3.793954  0  0  0.03968  0  4.02624  0  0  0.037517  0  4.050772  0  0  -0.001118  0.040978  0  4.009673  0
C  C69  1  0.67361375  0.64546827  0.97434783  1  0  0.023289  0  3.794047  0  0  0.039508  0  4.026162  0  0  0.037342  0  4.050692  0  0  -0.00113  0.040801  0  4.009602  0
C  C70  1  0.64546208  0.67360934  0.47434990  1  0  0.023407  0  3.793934  0  0  0.039551  0  4.026136  0  0  0.03738  0  4.050672  0  0  -0.001184  0.040847  0  4.009576  0
C  C71  1  0.32638472  0.35453383  0.02565156  1  0  0.023353  0  3.794085  0  0  0.03957  0  4.026234  0  0  0.037404  0  4.050766  0  0  -0.001122  0.040863  0  4.00967  0
C  C72  1  0.35754928  0.28542046  0.44505188  1  0  -0.105014  0  3.729834  0  0  -0.129927  0  3.990189  0  0  -0.133586  0  4.01265  0  0  -0.088023  -0.127348  0  3.975019  0
C  C73  1  0.71457572  0.64245864  0.05494699  1  0  -0.104874  0  3.729872  0  0  -0.12984  0  3.990255  0  0  -0.133493  0  4.012713  0  0  -0.08806  -0.127258  0  3.975082  0
C  C74  1  0.64245309  0.71457089  0.55494852  1  0  -0.105058  0  3.729768  0  0  -0.130046  0  3.990179  0  0  -0.133699  0  4.012634  0  0  -0.088077  -0.12746  0  3.975002  0
C  C75  1  0.28542160  0.35754347  0.94505180  1  0  -0.104986  0  3.729769  0  0  -0.129937  0  3.990153  0  0  -0.13359  0  4.01261  0  0  -0.088076  -0.127354  0  3.97498  0
C  C76  1  0.47155607  0.21942555  0.41837249  1  0  -0.094511  0  3.721582  0  0  -0.118848  0  3.979966  0  0  -0.122196  0  4.003349  0  0  -0.082698  -0.116483  0  3.964201  0
C  C77  1  0.78057742  0.52845393  0.08162828  1  0  -0.094632  0  3.721431  0  0  -0.118968  0  3.979783  0  0  -0.122323  0  4.003168  0  0  -0.08272  -0.116604  0  3.964023  0
C  C78  1  0.52844532  0.78057057  0.58162915  1  0  -0.094446  0  3.721343  0  0  -0.118815  0  3.979671  0  0  -0.122167  0  4.003051  0  0  -0.082637  -0.116449  0  3.963903  0
C  C79  1  0.21942170  0.47155056  0.91837118  1  0  -0.094534  0  3.721485  0  0  -0.118888  0  3.979861  0  0  -0.12224  0  4.003241  0  0  -0.082679  -0.116522  0  3.964099  0
C  C80  1  0.59400053  0.19540639  0.47000508  1  0  0.027554  0  3.784434  0  0  0.043393  0  4.017238  0  0  0.040716  0  4.042139  0  0  0.000369  0.044978  0  4.000509  0
C  C81  1  0.80459341  0.40600858  0.02999616  1  0  0.027603  0  3.784246  0  0  0.043559  0  4.016938  0  0  0.040894  0  4.041817  0  0  0.000391  0.045139  0  4.000213  0
C  C82  1  0.40600168  0.80458853  0.52999655  1  0  0.027552  0  3.784359  0  0  0.043515  0  4.016982  0  0  0.040855  0  4.041853  0  0  0.000329  0.045098  0  4.000256  0
C  C83  1  0.19540425  0.59399473  0.97000209  1  0  0.02762  0  3.784205  0  0  0.043544  0  4.016917  0  0  0.040883  0  4.041786  0  0  0.000353  0.045127  0  4.000188  0
C  C84  1  0.71795679  0.13518956  0.44312600  1  0  -0.04171  0  3.675366  0  0  -0.06617  0  3.921966  0  0  -0.063633  0  3.940369  0  0  -0.063477  -0.067548  0  3.909454  0
C  C85  1  0.86481624  0.28205851  0.05687779  1  0  -0.041755  0  3.674994  0  0  -0.066226  0  3.921591  0  0  -0.063674  0  3.94  0  0  -0.063498  -0.067599  0  3.909077  0
C  C86  1  0.28205576  0.86481373  0.55687604  1  0  -0.041754  0  3.675255  0  0  -0.066258  0  3.921838  0  0  -0.063711  0  3.940244  0  0  -0.063516  -0.067632  0  3.90933  0
C  C87  1  0.13518403  0.71794599  0.94312228  1  0  -0.041827  0  3.675192  0  0  -0.066298  0  3.921759  0  0  -0.063751  0  3.940166  0  0  -0.063519  -0.067675  0  3.909248  0
C  C88  1  0.83644551  0.12058062  0.49520057  1  0  -0.128366  0  3.755982  0  0  -0.141319  0  4.010308  0  0  -0.148292  0  4.031351  0  0  -0.087765  -0.136817  0  3.996058  0
C  C89  1  0.87941821  0.16356255  0.00480404  1  0  -0.128481  0  3.755669  0  0  -0.141454  0  4.010024  0  0  -0.148423  0  4.031055  0  0  -0.087857  -0.136956  0  3.995772  0
C  C90  1  0.16356064  0.87942027  0.50480128  1  0  -0.12844  0  3.755726  0  0  -0.141392  0  4.010065  0  0  -0.148363  0  4.031101  0  0  -0.087813  -0.136901  0  3.995826  0
C  C91  1  0.12057796  0.83643955  0.99519588  1  0  -0.128487  0  3.755679  0  0  -0.141455  0  4.010017  0  0  -0.148426  0  4.031051  0  0  -0.087825  -0.136955  0  3.995768  0
C  C92  1  0.82768420  0.16103852  0.57403645  1  0  0.145477  0  3.723432  0  0  0.115535  0  3.981237  0  0  0.123506  0  3.997314  0  0  0.059188  0.110436  0  3.970066  0
C  C93  1  0.83895997  0.17231803  0.92596748  1  0  0.145542  0  3.723443  0  0  0.115608  0  3.981212  0  0  0.123576  0  3.997282  0  0  0.05921  0.110517  0  3.970038  0
C  C94  1  0.17232012  0.83895997  0.42596704  1  0  0.145555  0  3.723502  0  0  0.115621  0  3.981309  0  0  0.123592  0  3.997386  0  0  0.059202  0.110525  0  3.970138  0
C  C95  1  0.16103930  0.82768287  0.07403306  1  0  0.14561  0  3.723339  0  0  0.115698  0  3.981111  0  0  0.123666  0  3.997182  0  0  0.05924  0.1106  0  3.969945  0
C  C96  1  0.59606361  0.23602334  0.55055519  1  0  0.141093  0  3.732853  0  0  0.135589  0  3.972308  0  0  0.139906  0  3.992723  0  0  0.123166  0.132719  0  3.958472  0
C  C97  1  0.76397181  0.40393685  0.94944579  1  0  0.141114  0  3.73276  0  0  0.135436  0  3.97233  0  0  0.139745  0  3.992748  0  0  0.123167  0.132569  0  3.958495  0
C  C98  1  0.40393533  0.76396802  0.44944398  1  0  0.141034  0  3.732921  0  0  0.135441  0  3.972302  0  0  0.139747  0  3.992719  0  0  0.123198  0.132568  0  3.958473  0
C  C99  1  0.23602781  0.59606526  0.05055363  1  0  0.141206  0  3.732668  0  0  0.135574  0  3.972217  0  0  0.139885  0  3.992631  0  0  0.123201  0.132704  0  3.958379  0
C  C100  1  0.47194515  0.30018302  0.57923442  1  0  0.14573  0  3.730384  0  0  0.142498  0  3.96692  0  0  0.146753  0  3.987514  0  0  0.126041  0.139641  0  3.952973  0
C  C101  1  0.69981297  0.52805768  0.92076492  1  0  0.145907  0  3.730322  0  0  0.142808  0  3.96667  0  0  0.14707  0  3.987265  0  0  0.126113  0.139952  0  3.952724  0
C  C102  1  0.52805230  0.69980713  0.42076642  1  0  0.145895  0  3.730456  0  0  0.142843  0  3.966685  0  0  0.147108  0  3.987279  0  0  0.126141  0.139977  0  3.952753  0
C  C103  1  0.30018518  0.47194324  0.07923329  1  0  0.145857  0  3.730346  0  0  0.142707  0  3.966768  0  0  0.146963  0  3.987363  0  0  0.126114  0.139854  0  3.952812  0
N  N104  1  0.47116279  0.33390385  0.65651968  1  0  -0.403843  0  3.2142  0  0  -0.349514  0  3.474588  0  0  -0.364224  0  3.493649  0  0  -0.356974  -0.339352  0  3.461546  0
N  N105  1  0.66609310  0.52883832  0.84347965  1  0  -0.40396  0  3.214342  0  0  -0.349662  0  3.474684  0  0  -0.36438  0  3.49375  0  0  -0.357004  -0.339501  0  3.461647  0
N  N106  1  0.52883597  0.66609107  0.34348188  1  0  -0.403909  0  3.214277  0  0  -0.349629  0  3.474615  0  0  -0.364348  0  3.493683  0  0  -0.357018  -0.33946  0  3.461567  0
N  N107  1  0.33390390  0.47116260  0.15651911  1  0  -0.403908  0  3.214229  0  0  -0.349607  0  3.474618  0  0  -0.36432  0  3.493683  0  0  -0.356986  -0.339438  0  3.461568  0
N  N108  1  0.71139248  0.21638409  0.60142668  1  0  -0.410527  0  3.22107  0  0  -0.355478  0  3.484328  0  0  -0.369668  0  3.501074  0  0  -0.365667  -0.345683  0  3.472824  0
N  N109  1  0.78361291  0.28860770  0.89857547  1  0  -0.410589  0  3.221147  0  0  -0.35551  0  3.484441  0  0  -0.3697  0  3.501194  0  0  -0.365662  -0.34572  0  3.472939  0
N  N110  1  0.28860727  0.78361441  0.39857497  1  0  -0.410546  0  3.221179  0  0  -0.355492  0  3.484443  0  0  -0.369683  0  3.501198  0  0  -0.365665  -0.345695  0  3.472939  0
N  N111  1  0.21638704  0.71139560  0.10142399  1  0  -0.410707  0  3.22124  0  0  -0.355633  0  3.484523  0  0  -0.369824  0  3.501275  0  0  -0.36571  -0.345843  0  3.473027  0
O  O112  1  0.45519282  0.20750999  0.81560183  1  0  -0.705283  0  2.046193  0  0  -0.652861  0  2.288337  0  0  -0.677843  0  2.281417  0  0  -0.388162  -0.634979  0  2.292277  0
O  O113  1  0.79249129  0.54480577  0.68439694  1  0  -0.705275  0  2.046178  0  0  -0.652863  0  2.288336  0  0  -0.677846  0  2.281417  0  0  -0.388154  -0.634979  0  2.292272  0
O  O114  1  0.54480809  0.79248852  0.18439869  1  0  -0.705345  0  2.046197  0  0  -0.65291  0  2.288323  0  0  -0.677888  0  2.281391  0  0  -0.388178  -0.635031  0  2.29228  0
O  O115  1  0.20750682  0.45519512  0.31560473  1  0  -0.70529  0  2.046171  0  0  -0.652866  0  2.288307  0  0  -0.677844  0  2.281379  0  0  -0.388138  -0.63498  0  2.292246  0
O  O116  1  0.49933759  0.01657002  0.73749763  1  0  -0.682776  0  1.945199  0  0  -0.635086  0  2.185758  0  0  -0.657621  0  2.175561  0  0  -0.365064  -0.619024  0  2.192153  0
O  O117  1  0.98343191  0.50066357  0.76250176  1  0  -0.682774  0  1.94518  0  0  -0.635095  0  2.185765  0  0  -0.65763  0  2.175571  0  0  -0.36506  -0.619033  0  2.192162  0
O  O118  1  0.50066385  0.98343450  0.26250015  1  0  -0.682816  0  1.945098  0  0  -0.635144  0  2.185704  0  0  -0.657679  0  2.175511  0  0  -0.36511  -0.61908  0  2.192103  0
O  O119  1  0.01656870  0.49933378  0.23749585  1  0  -0.682773  0  1.945213  0  0  -0.635062  0  2.185743  0  0  -0.6576  0  2.175554  0  0  -0.365066  -0.619  0  2.192139  0
O  O120  1  0.86693980  0.13306086  0.75000081  1  0  -0.78505  0  2.15625  0  0  -0.719871  0  2.429603  0  0  -0.745466  0  2.422059  0  0  -0.504755  -0.700975  0  2.434067  0
O  O121  1  0.13305947  0.86694003  0.25000031  1  0  -0.785014  0  2.156254  0  0  -0.719837  0  2.429628  0  0  -0.745423  0  2.422068  0  0  -0.504741  -0.700948  0  2.434094  0
