# generated using pymatgen
data_GdH10C11NO7
_symmetry_space_group_name_H-M   'P 1'
_cell_length_a   8.33995742
_cell_length_b   8.99650806
_cell_length_c   10.50728948
_cell_angle_alpha   105.13657110
_cell_angle_beta   101.16023734
_cell_angle_gamma   95.43599155
_symmetry_Int_Tables_number   1
_chemical_formula_structural   GdH10C11NO7
_chemical_formula_sum   'Gd2 H20 C22 N2 O14'
_cell_volume   737.78809618
_cell_formula_units_Z   2
loop_
 _symmetry_equiv_pos_site_id
 _symmetry_equiv_pos_as_xyz
  1  'x, y, z'
loop_
 _atom_site_type_symbol
 _atom_site_label
 _atom_site_symmetry_multiplicity
 _atom_site_fract_x
 _atom_site_fract_y
 _atom_site_fract_z
 _atom_site_occupancy
 _atom_site_hle17_bader_spin_density
 _atom_site_hle17_ddec_charge
 _atom_site_hle17_ddec_spin_density
 _atom_site_hle17_ddec_sum_bond_order
 _atom_site_hle17_magmom
 _atom_site_hse06_10hf_bader_spin_density
 _atom_site_hse06_10hf_ddec_charge
 _atom_site_hse06_10hf_ddec_spin_density
 _atom_site_hse06_10hf_ddec_sum_bond_order
 _atom_site_hse06_10hf_magmom
 _atom_site_hse06_bader_spin_density
 _atom_site_hse06_ddec_charge
 _atom_site_hse06_ddec_spin_density
 _atom_site_hse06_ddec_sum_bond_order
 _atom_site_hse06_magmom
 _atom_site_pbe_bader_spin_density
 _atom_site_pbe_cm5_charge
 _atom_site_pbe_ddec_charge
 _atom_site_pbe_ddec_spin_density
 _atom_site_pbe_ddec_sum_bond_order
 _atom_site_pbe_magmom
Gd  Gd0  1  0.41729339  0.29371926  0.03008809  1  0  2.190167  0  1.815798  0  0  2.099623  0  2.190592  0  0  2.157845  0  2.127167  0  0  1.496069  2.053516  0  2.243327  0
Gd  Gd1  1  0.58271045  0.70627070  0.96991405  1  0  2.190135  0  1.81586  0  0  2.099669  0  2.190552  0  0  2.157947  0  2.127043  0  0  1.496051  2.053547  0  2.243298  0
H  H2  1  0.74980715  0.18723430  0.37879288  1  0  0.098917  0  0.959842  0  0  0.112076  0  1.014958  0  0  0.115334  0  1.013817  0  0  0.103996  0.109812  0  1.015834  0
H  H3  1  0.25018465  0.81277197  0.62121283  1  0  0.098961  0  0.959651  0  0  0.112108  0  1.014793  0  0  0.115369  0  1.013649  0  0  0.104009  0.109844  0  1.01567  0
H  H4  1  0.65409198  0.29032738  0.58555618  1  0  0.087823  0  0.946234  0  0  0.101529  0  1.00187  0  0  0.104971  0  0.998566  0  0  0.102018  0.098948  0  1.004349  0
H  H5  1  0.34590093  0.70969287  0.41444899  1  0  0.08783  0  0.946211  0  0  0.101532  0  1.001849  0  0  0.104979  0  0.99854  0  0  0.102014  0.098946  0  1.004334  0
H  H6  1  0.75936443  0.75674455  0.55973336  1  0  0.095626  0  0.93199  0  0  0.10835  0  0.987288  0  0  0.111993  0  0.983869  0  0  0.104754  0.105708  0  0.989905  0
H  H7  1  0.24063560  0.24326521  0.44025161  1  0  0.095646  0  0.931969  0  0  0.108407  0  0.987225  0  0  0.112052  0  0.983805  0  0  0.104777  0.105765  0  0.989845  0
H  H8  1  0.85770411  0.65861037  0.35276991  1  0  0.101019  0  0.96121  0  0  0.115098  0  1.01534  0  0  0.118104  0  1.014542  0  0  0.106292  0.112935  0  1.016319  0
H  H9  1  0.14229273  0.34138773  0.64721767  1  0  0.101019  0  0.961178  0  0  0.115106  0  1.015317  0  0  0.118097  0  1.014536  0  0  0.106274  0.112964  0  1.016264  0
H  H10  1  0.94509960  0.15240862  0.28004276  1  0  0.10452  0  0.918812  0  0  0.116512  0  0.980701  0  0  0.118394  0  0.978998  0  0  0.11821  0.11531  0  0.981832  0
H  H11  1  0.05490526  0.84758833  0.71996871  1  0  0.104572  0  0.918744  0  0  0.116552  0  0.980664  0  0  0.118433  0  0.978964  0  0  0.118234  0.115349  0  0.981801  0
H  H12  1  0.99719883  0.18555311  0.13535245  1  0  0.129771  0  0.902564  0  0  0.145704  0  0.955406  0  0  0.147926  0  0.954137  0  0  0.133287  0.144052  0  0.95656  0
H  H13  1  0.00280812  0.81444151  0.86465789  1  0  0.129767  0  0.902534  0  0  0.14575  0  0.955349  0  0  0.147968  0  0.954084  0  0  0.133321  0.144099  0  0.956506  0
H  H14  1  0.99840288  0.40002961  0.09067185  1  0  0.131976  0  0.944763  0  0  0.146395  0  1.000781  0  0  0.149164  0  0.999341  0  0  0.12906  0.144348  0  1.001948  0
H  H15  1  0.00160143  0.59995569  0.90932838  1  0  0.131943  0  0.944859  0  0  0.146375  0  1.000862  0  0  0.149131  0  0.999438  0  0  0.129055  0.144324  0  1.002029  0
H  H16  1  0.03513205  0.55930846  0.23665446  1  0  0.102057  0  0.928482  0  0  0.11165  0  0.995257  0  0  0.113204  0  0.994307  0  0  0.113596  0.110227  0  0.995943  0
H  H17  1  0.96486633  0.44068499  0.76334186  1  0  0.102028  0  0.928403  0  0  0.11164  0  0.995167  0  0  0.113192  0  0.994214  0  0  0.113594  0.110211  0  0.995862  0
H  H18  1  0.55134612  0.14975676  0.78961514  1  0  0.44032  0  0.808039  0  0  0.430077  0  0.845682  0  0  0.437592  0  0.835051  0  0  0.339501  0.424633  0  0.853442  0
H  H19  1  0.44865393  0.85024601  0.21037304  1  0  0.440279  0  0.808081  0  0  0.43003  0  0.845745  0  0  0.437546  0  0.835114  0  0  0.339488  0.424589  0  0.853501  0
H  H20  1  0.53443736  0.32303036  0.78194518  1  0  0.456663  0  0.837886  0  0  0.423308  0  0.905074  0  0  0.435165  0  0.88764  0  0  0.302716  0.414912  0  0.917402  0
H  H21  1  0.46556289  0.67697474  0.21805592  1  0  0.456701  0  0.837847  0  0  0.423336  0  0.90505  0  0  0.435194  0  0.887614  0  0  0.30274  0.414938  0  0.917383  0
C  C22  1  0.81919965  0.41464348  0.35096812  1  0  0.225  0  3.78219  0  0  0.209837  0  4.037789  0  0  0.223426  0  4.057256  0  0  0.115793  0.201079  0  4.024076  0
C  C23  1  0.18079719  0.58535579  0.64903209  1  0  0.225072  0  3.78232  0  0  0.209908  0  4.037909  0  0  0.223498  0  4.057371  0  0  0.115844  0.201139  0  4.024204  0
C  C24  1  0.75624228  0.31261932  0.41832965  1  0  -0.189866  0  3.751195  0  0  -0.210118  0  4.013915  0  0  -0.218908  0  4.034668  0  0  -0.104129  -0.2043  0  3.999376  0
C  C25  1  0.24374831  0.68738695  0.58167490  1  0  -0.189812  0  3.750949  0  0  -0.210049  0  4.013653  0  0  -0.218843  0  4.03441  0  0  -0.104093  -0.204226  0  3.999114  0
C  C26  1  0.70164749  0.37070362  0.53519393  1  0  -0.03923  0  3.773244  0  0  -0.065262  0  4.027521  0  0  -0.059855  0  4.045251  0  0  -0.084771  -0.068081  0  4.014878  0
C  C27  1  0.29834853  0.62931314  0.46481003  1  0  -0.039506  0  3.773265  0  0  -0.06549  0  4.027571  0  0  -0.060086  0  4.045301  0  0  -0.084905  -0.06831  0  4.01493  0
C  C28  1  0.70458735  0.53134656  0.58980834  1  0  -0.115936  0  3.809054  0  0  -0.096208  0  4.050606  0  0  -0.108979  0  4.075847  0  0  -0.041016  -0.087629  0  4.033598  0
C  C29  1  0.29540916  0.46867252  0.41018859  1  0  -0.11549  0  3.80882  0  0  -0.095872  0  4.050498  0  0  -0.108643  0  4.075744  0  0  -0.040876  -0.087298  0  4.03349  0
C  C30  1  0.75990500  0.63218261  0.51988334  1  0  -0.024168  0  3.738339  0  0  -0.050949  0  3.99305  0  0  -0.045305  0  4.010165  0  0  -0.077908  -0.054919  0  3.981784  0
C  C31  1  0.24009285  0.36782948  0.48010941  1  0  -0.024376  0  3.738441  0  0  -0.051147  0  3.993198  0  0  -0.045506  0  4.010311  0  0  -0.07797  -0.055118  0  3.981935  0
C  C32  1  0.81508265  0.57616998  0.40305075  1  0  -0.179813  0  3.723957  0  0  -0.199708  0  3.98468  0  0  -0.208158  0  4.00535  0  0  -0.102052  -0.19418  0  3.971216  0
C  C33  1  0.18491576  0.42383046  0.59693951  1  0  -0.179856  0  3.72411  0  0  -0.199786  0  3.984891  0  0  -0.208225  0  4.005569  0  0  -0.102106  -0.19427  0  3.971418  0
C  C34  1  0.65598690  0.59244540  0.71791698  1  0  0.648565  0  3.909083  0  0  0.601812  0  4.210462  0  0  0.636243  0  4.20429  0  0  0.192131  0.577883  0  4.214095  0
C  C35  1  0.34400987  0.40756786  0.28207966  1  0  0.64829  0  3.909349  0  0  0.601549  0  4.210772  0  0  0.635981  0  4.204598  0  0  0.192034  0.577627  0  4.214402  0
C  C36  1  0.90077888  0.19721142  0.19381216  1  0  -0.17144  0  3.660241  0  0  -0.233012  0  3.910067  0  0  -0.232975  0  3.917088  0  0  -0.050721  -0.233126  0  3.905237  0
C  C37  1  0.09922667  0.80278204  0.80619675  1  0  -0.171431  0  3.66025  0  0  -0.233124  0  3.910295  0  0  -0.233088  0  3.917309  0  0  -0.050803  -0.233244  0  3.905468  0
C  C38  1  0.74381729  0.08925095  0.10440910  1  0  0.765411  0  3.809866  0  0  0.72661  0  4.103282  0  0  0.760551  0  4.093177  0  0  0.244443  0.703272  0  4.109642  0
C  C39  1  0.25618789  0.91074017  0.89559827  1  0  0.765406  0  3.809799  0  0  0.726625  0  4.103203  0  0  0.760578  0  4.093077  0  0  0.2444  0.703287  0  4.109571  0
C  C40  1  0.93926748  0.46384279  0.16876406  1  0  -0.169974  0  3.669293  0  0  -0.22725  0  3.914482  0  0  -0.228311  0  3.923154  0  0  -0.054126  -0.226384  0  3.908748  0
C  C41  1  0.06073275  0.53614716  0.83123368  1  0  -0.169886  0  3.669301  0  0  -0.227138  0  3.914452  0  0  -0.22819  0  3.923121  0  0  -0.054091  -0.226272  0  3.908716  0
C  C42  1  0.80885752  0.53868774  0.09585869  1  0  0.715716  0  3.818142  0  0  0.671658  0  4.122429  0  0  0.705078  0  4.11404  0  0  0.218642  0.648556  0  4.128359  0
C  C43  1  0.19113757  0.46129289  0.90413329  1  0  0.716036  0  3.817894  0  0  0.671899  0  4.122293  0  0  0.705335  0  4.113867  0  0  0.218781  0.648791  0  4.128233  0
N  N44  1  0.88291365  0.35939404  0.23956679  1  0  -0.129932  0  3.495537  0  0  -0.048883  0  3.72884  0  0  -0.067933  0  3.754934  0  0  -0.282087  -0.035315  0  3.710157  0
N  N45  1  0.11708832  0.64059941  0.76043582  1  0  -0.130154  0  3.495758  0  0  -0.049063  0  3.729085  0  0  -0.068114  0  3.755182  0  0  -0.282177  -0.035467  0  3.710334  0
O  O46  1  0.61932507  0.14997359  0.06557037  1  0  -0.762958  0  2.09651  0  0  -0.723606  0  2.35483  0  0  -0.750229  0  2.341495  0  0  -0.423973  -0.704059  0  2.363789  0
O  O47  1  0.38067290  0.85001171  0.93444501  1  0  -0.762971  0  2.096401  0  0  -0.723638  0  2.354723  0  0  -0.750276  0  2.341377  0  0  -0.423975  -0.704087  0  2.363682  0
O  O48  1  0.75161164  0.94505395  0.07445640  1  0  -0.711633  0  2.003728  0  0  -0.671609  0  2.244048  0  0  -0.698139  0  2.231422  0  0  -0.398733  -0.652391  0  2.252786  0
O  O49  1  0.24840362  0.05493834  0.92554526  1  0  -0.711556  0  2.003703  0  0  -0.671497  0  2.243993  0  0  -0.69802  0  2.231364  0  0  -0.398639  -0.652286  0  2.252734  0
O  O50  1  0.65345692  0.48836026  0.07202770  1  0  -0.799975  0  2.14707  0  0  -0.756906  0  2.411591  0  0  -0.785618  0  2.402527  0  0  -0.426278  -0.735865  0  2.418626  0
O  O51  1  0.34654085  0.51162270  0.92797476  1  0  -0.800137  0  2.147098  0  0  -0.757025  0  2.411587  0  0  -0.785751  0  2.402526  0  0  -0.426323  -0.735981  0  2.418625  0
O  O52  1  0.85864365  0.65432023  0.05845188  1  0  -0.664482  0  1.950974  0  0  -0.627012  0  2.182726  0  0  -0.650974  0  2.17231  0  0  -0.366595  -0.609867  0  2.190371  0
O  O53  1  0.14135356  0.34565807  0.94153613  1  0  -0.664624  0  1.950904  0  0  -0.62712  0  2.182702  0  0  -0.651079  0  2.172276  0  0  -0.366639  -0.60998  0  2.190353  0
O  O54  1  0.60892810  0.49814769  0.78329421  1  0  -0.745092  0  2.063551  0  0  -0.692193  0  2.304971  0  0  -0.719714  0  2.296214  0  0  -0.393398  -0.672349  0  2.311374  0
O  O55  1  0.39106605  0.50186440  0.21670079  1  0  -0.744999  0  2.063775  0  0  -0.692063  0  2.305166  0  0  -0.719577  0  2.29641  0  0  -0.393313  -0.672211  0  2.311543  0
O  O56  1  0.66430563  0.73930039  0.77166944  1  0  -0.700723  0  1.907867  0  0  -0.665263  0  2.138745  0  0  -0.689222  0  2.12882  0  0  -0.397513  -0.648091  0  2.145751  0
O  O57  1  0.33568950  0.26071054  0.22832928  1  0  -0.700648  0  1.907887  0  0  -0.665169  0  2.138773  0  0  -0.68912  0  2.128852  0  0  -0.397489  -0.647999  0  2.145772  0
O  O58  1  0.48254894  0.23104620  0.80549490  1  0  -0.888296  0  1.794481  0  0  -0.852294  0  1.958256  0  0  -0.870732  0  1.927756  0  0  -0.617206  -0.838665  0  1.980084  0
O  O59  1  0.51745741  0.76895891  0.19450815  1  0  -0.888271  0  1.794455  0  0  -0.85227  0  1.958248  0  0  -0.870717  0  1.92774  0  0  -0.617216  -0.838642  0  1.980077  0
