# generated using pymatgen
data_PrH12C20NO6
_symmetry_space_group_name_H-M   'P 1'
_cell_length_a   8.05105486
_cell_length_b   9.41679417
_cell_length_c   12.04564123
_cell_angle_alpha   92.64548113
_cell_angle_beta   93.13799577
_cell_angle_gamma   108.43043299
_symmetry_Int_Tables_number   1
_chemical_formula_structural   PrH12C20NO6
_chemical_formula_sum   'Pr2 H24 C40 N2 O12'
_cell_volume   863.15736796
_cell_formula_units_Z   2
loop_
 _symmetry_equiv_pos_site_id
 _symmetry_equiv_pos_as_xyz
  1  'x, y, z'
loop_
 _atom_site_type_symbol
 _atom_site_label
 _atom_site_symmetry_multiplicity
 _atom_site_fract_x
 _atom_site_fract_y
 _atom_site_fract_z
 _atom_site_occupancy
 _atom_site_pbe_bader_spin_density
 _atom_site_pbe_cm5_charge
 _atom_site_pbe_ddec_charge
 _atom_site_pbe_ddec_spin_density
 _atom_site_pbe_ddec_sum_bond_order
 _atom_site_pbe_magmom
Pr  Pr0  1  0.26485491  0.56187447  0.44072127  1  0  1.514122  2.088348  0  2.154021  0
Pr  Pr1  1  0.73514568  0.43812416  0.55927813  1  0  1.514125  2.088394  0  2.15396  0
H  H2  1  0.83030148  0.07475850  0.39310430  1  0  0.107601  0.107952  0  1.00493  0
H  H3  1  0.16969206  0.92524122  0.60689739  1  0  0.107614  0.107905  0  1.004943  0
H  H4  1  0.60290726  0.85012627  0.29818116  1  0  0.107674  0.11266  0  1.027931  0
H  H5  1  0.39708463  0.14987570  0.70181974  1  0  0.107678  0.112678  0  1.027861  0
H  H6  1  0.42700509  0.88203116  0.12970390  1  0  0.099392  0.091973  0  1.024531  0
H  H7  1  0.57299011  0.11796971  0.87029457  1  0  0.099402  0.091973  0  1.024586  0
H  H8  1  0.47678804  0.13455872  0.05996325  1  0  0.097349  0.096597  0  1.034275  0
H  H9  1  0.52321505  0.86544330  0.94003389  1  0  0.097339  0.096589  0  1.034275  0
H  H10  1  0.81394938  0.30655267  0.99264029  1  0  0.096498  0.092111  0  1.021185  0
H  H11  1  0.18605038  0.69344710  0.00735746  1  0  0.096532  0.092149  0  1.021157  0
H  H12  1  0.83898268  0.52368138  0.87802324  1  0  0.106229  0.113081  0  1.036949  0
H  H13  1  0.16101708  0.47631839  0.12197451  1  0  0.106228  0.113087  0  1.036917  0
H  H14  1  0.73284061  0.73076869  0.94827820  1  0  0.096515  0.09041  0  1.014931  0
H  H15  1  0.26716372  0.26923331  0.05172230  1  0  0.096539  0.090449  0  1.014887  0
H  H16  1  0.61498769  0.72086672  0.13569318  1  0  0.099423  0.093484  0  1.055334  0
H  H17  1  0.38501623  0.27913415  0.86430726  1  0  0.099411  0.093449  0  1.055351  0
H  H18  1  0.37661727  0.93616856  0.46451737  1  0  0.121921  0.086024  0  1.064594  0
H  H19  1  0.62338125  0.06383117  0.53548449  1  0  0.121923  0.086021  0  1.064596  0
H  H20  1  0.03058593  0.67327087  0.21252826  1  0  0.122805  0.094497  0  1.019661  0
H  H21  1  0.96941384  0.32672886  0.78747281  1  0  0.122804  0.094493  0  1.019667  0
H  H22  1  0.96601729  0.89591681  0.13983210  1  0  0.105457  0.110189  0  1.012515  0
H  H23  1  0.03398081  0.10408180  0.86016970  1  0  0.105459  0.110224  0  1.012495  0
H  H24  1  0.11431270  0.15142350  0.23982478  1  0  0.116051  0.117469  0  0.99041  0
H  H25  1  0.88568707  0.84857624  0.76017630  1  0  0.116046  0.117466  0  0.990422  0
C  C26  1  0.92693523  0.35369873  0.33829614  1  0  0.208104  0.606201  0  4.227086  0
C  C27  1  0.07306827  0.64630103  0.66170340  1  0  0.20803  0.60606  0  4.227126  0
C  C28  1  0.78242393  0.22861815  0.27937996  1  0  -0.009199  -0.075309  0  3.942389  0
C  C29  1  0.21757459  0.77138160  0.72061941  1  0  -0.00921  -0.075299  0  3.942375  0
C  C30  1  0.75139386  0.08588532  0.31964234  1  0  -0.078942  -0.08868  0  3.972375  0
C  C31  1  0.24860092  0.91411441  0.68035857  1  0  -0.078963  -0.088642  0  3.972283  0
C  C32  1  0.62592671  0.96051565  0.26600557  1  0  -0.090489  -0.089575  0  3.998026  0
C  C33  1  0.37406725  0.03948521  0.73399452  1  0  -0.090488  -0.089565  0  3.997912  0
C  C34  1  0.52785617  0.97871420  0.17176620  1  0  -0.091678  -0.074927  0  4.022081  0
C  C35  1  0.47214069  0.02128779  0.82823321  1  0  -0.091678  -0.074967  0  4.022116  0
C  C36  1  0.55580409  0.12090493  0.13260561  1  0  -0.094033  -0.146541  0  3.987106  0
C  C37  1  0.44419733  0.87909596  0.86739308  1  0  -0.094024  -0.146499  0  3.986942  0
C  C38  1  0.68372302  0.24847485  0.18467970  1  0  0.005704  0.067857  0  3.932769  0
C  C39  1  0.31627716  0.75152602  0.81531977  1  0  0.00571  0.067842  0  3.93272  0
C  C40  1  0.70989554  0.39311524  0.13121860  1  0  0.003639  0.06354  0  3.937212  0
C  C41  1  0.29010755  0.60688676  0.86878102  1  0  0.00366  0.063666  0  3.937119  0
C  C42  1  0.77250425  0.39944780  0.02437147  1  0  -0.090526  -0.134501  0  3.981432  0
C  C43  1  0.22749758  0.60055084  0.97562714  1  0  -0.090546  -0.134586  0  3.981512  0
C  C44  1  0.78606788  0.52077221  0.95952017  1  0  -0.083989  -0.06336  0  3.989184  0
C  C45  1  0.21393520  0.47922979  0.04047862  1  0  -0.084012  -0.063371  0  3.989101  0
C  C46  1  0.72890764  0.63737216  0.99959069  1  0  -0.095287  -0.090978  0  4.025029  0
C  C47  1  0.27109628  0.36262871  0.00040975  1  0  -0.095296  -0.091005  0  4.024842  0
C  C48  1  0.66348034  0.63231413  0.10436357  1  0  -0.086674  -0.097197  0  4.001756  0
C  C49  1  0.33652440  0.36768562  0.89563684  1  0  -0.086713  -0.097237  0  4.001736  0
C  C50  1  0.65790486  0.51436889  0.17284530  1  0  -0.011968  -0.084112  0  3.895915  0
C  C51  1  0.34209822  0.48563312  0.82715349  1  0  -0.011968  -0.084132  0  3.895808  0
C  C52  1  0.59507901  0.52722567  0.28695543  1  0  0.239631  0.662364  0  4.133897  0
C  C53  1  0.40492200  0.47277409  0.71304320  1  0  0.239612  0.662364  0  4.133873  0
C  C54  1  0.35016083  0.21042845  0.42221483  1  0  0.241223  0.659106  0  4.156849  0
C  C55  1  0.64984101  0.78957017  0.57778544  1  0  0.24127  0.659219  0  4.15683  0
C  C56  1  0.25608239  0.06231455  0.36013325  1  0  -0.007803  -0.078308  0  3.924867  0
C  C57  1  0.74391571  0.93768406  0.63986772  1  0  -0.00783  -0.078378  0  3.924853  0
C  C58  1  0.28527023  0.93166063  0.39346869  1  0  0.060063  0.088547  0  3.946205  0
C  C59  1  0.71472829  0.06833910  0.60653234  1  0  0.060065  0.088578  0  3.946217  0
C  C60  1  0.09387698  0.78551444  0.25208829  1  0  0.060968  0.112237  0  3.929899  0
C  C61  1  0.90612237  0.21448418  0.74791272  1  0  0.060962  0.112269  0  3.929905  0
C  C62  1  0.05851222  0.91047251  0.21215612  1  0  -0.084415  -0.133608  0  3.975507  0
C  C63  1  0.94148588  0.08952608  0.78784650  1  0  -0.084445  -0.133711  0  3.975578  0
C  C64  1  0.13945869  0.05091144  0.26729921  1  0  -0.055501  -0.034164  0  3.924554  0
C  C65  1  0.86053941  0.94908717  0.73270259  1  0  -0.055465  -0.034133  0  3.924551  0
N  N66  1  0.20546686  0.79532122  0.34197062  1  0  -0.371952  -0.342985  0  3.456341  0
N  N67  1  0.79453166  0.20467851  0.65803124  1  0  -0.371933  -0.342975  0  3.456352  0
O  O68  1  0.94612847  0.35616666  0.44571772  1  0  -0.4241  -0.733854  0  2.321111  0
O  O69  1  0.05387130  0.64383310  0.55428086  1  0  -0.424085  -0.73378  0  2.320976  0
O  O70  1  0.03395573  0.44972089  0.28413683  1  0  -0.359275  -0.605893  0  2.246179  0
O  O71  1  0.96604609  0.55027438  0.71586164  1  0  -0.359211  -0.605832  0  2.246217  0
O  O72  1  0.67156907  0.48640174  0.36913635  1  0  -0.395954  -0.689471  0  2.336237  0
O  O73  1  0.32843235  0.51359914  0.63086317  1  0  -0.39595  -0.689429  0  2.33625  0
O  O74  1  0.47172595  0.58391979  0.29593238  1  0  -0.393304  -0.660652  0  2.259551  0
O  O75  1  0.52827380  0.41607661  0.70406523  1  0  -0.393288  -0.660679  0  2.259539  0
O  O76  1  0.28946425  0.31701256  0.40547313  1  0  -0.40181  -0.673111  0  2.343374  0
O  O77  1  0.71053800  0.68298719  0.59452720  1  0  -0.401817  -0.67315  0  2.343391  0
O  O78  1  0.48415858  0.21978989  0.48682021  1  0  -0.383458  -0.657428  0  2.296039  0
O  O79  1  0.51584698  0.78020876  0.51317770  1  0  -0.383499  -0.657497  0  2.296072  0
