# generated using pymatgen
data_CuH10C5(NO)3
_symmetry_space_group_name_H-M   'P 1'
_cell_length_a   7.85098531
_cell_length_b   8.84337416
_cell_length_c   12.21045477
_cell_angle_alpha   90.00194559
_cell_angle_beta   102.25926908
_cell_angle_gamma   90.00087750
_symmetry_Int_Tables_number   1
_chemical_formula_structural   CuH10C5(NO)3
_chemical_formula_sum   'Cu4 H40 C20 N12 O12'
_cell_volume   828.43039786
_cell_formula_units_Z   4
loop_
 _symmetry_equiv_pos_site_id
 _symmetry_equiv_pos_as_xyz
  1  'x, y, z'
loop_
 _atom_site_type_symbol
 _atom_site_label
 _atom_site_symmetry_multiplicity
 _atom_site_fract_x
 _atom_site_fract_y
 _atom_site_fract_z
 _atom_site_occupancy
 _atom_site_hle17_ddec_charge
 _atom_site_hle17_ddec_spin_density
 _atom_site_hle17_ddec_sum_bond_order
 _atom_site_hle17_magmom
 _atom_site_hse06_10hf_ddec_charge
 _atom_site_hse06_10hf_ddec_spin_density
 _atom_site_hse06_10hf_ddec_sum_bond_order
 _atom_site_hse06_10hf_magmom
 _atom_site_hse06_ddec_charge
 _atom_site_hse06_ddec_spin_density
 _atom_site_hse06_ddec_sum_bond_order
 _atom_site_hse06_magmom
 _atom_site_pbe_cm5_charge
 _atom_site_pbe_ddec_charge
 _atom_site_pbe_ddec_spin_density
 _atom_site_pbe_ddec_sum_bond_order
 _atom_site_pbe_magmom
Cu  Cu0  1  0.21292324  0.55283103  0.57341455  1  0.791844  -0.583825  1.813913  -0.41  0.757263  -0.736162  2.229356  -0.563  0.856696  -0.839677  2.148183  -0.663  0.70289  0.689704  -0.551302  2.286807  -0.416
Cu  Cu1  1  0.21290419  0.94716314  0.07341376  1  0.791883  -0.583794  1.813788  -0.41  0.757335  -0.736148  2.229235  -0.563  0.856819  -0.839684  2.148041  -0.663  0.702942  0.689821  -0.551281  2.286615  -0.416
Cu  Cu2  1  0.78709376  0.44716144  0.42658472  1  0.79177  0.583815  1.813998  0.41  0.757187  0.736149  2.229478  0.563  0.856715  0.839693  2.148325  0.663  0.702916  0.689726  0.551312  2.286845  0.416
Cu  Cu3  1  0.78708159  0.05283498  0.92658710  1  0.791818  0.583803  1.813976  0.41  0.757241  0.736144  2.229365  0.563  0.856756  0.839684  2.148211  0.663  0.702913  0.689773  0.551278  2.286791  0.416
H  H4  1  0.34352051  0.87408670  0.45848874  1  0.080533  -0.000362  0.91714  -0.001  0.097766  -0.000134  0.974796  0.0  0.09738  -0.000192  0.975069  0.0  0.107665  0.098384  -0.000103  0.974727  0.0
H  H5  1  0.34352990  0.62590242  0.95850234  1  0.080354  -0.000361  0.917161  -0.001  0.097688  -0.000134  0.974748  0.0  0.097303  -0.000192  0.975011  0.0  0.107594  0.098302  -0.000103  0.974692  0.0
H  H6  1  0.65646770  0.12591821  0.54149606  1  0.080284  0.000364  0.917219  0.001  0.097606  0.000134  0.974841  0.0  0.097227  0.000192  0.975097  0.0  0.107579  0.098219  0.000103  0.974787  0.0
H  H7  1  0.65647028  0.37409345  0.04150616  1  0.080525  0.000364  0.917165  0.001  0.097808  0.000134  0.974758  0.0  0.097423  0.000192  0.975028  0.0  0.107636  0.098426  0.000103  0.974691  0.0
H  H8  1  0.52843813  0.87619503  0.57252229  1  0.094467  -0.002268  0.924499  -0.003  0.108967  -0.001456  0.983659  -0.002  0.108966  -0.001218  0.983553  -0.002  0.111519  0.109051  -0.001254  0.984247  -0.002
H  H9  1  0.52843155  0.62382264  0.07253236  1  0.094571  -0.002266  0.924409  -0.003  0.109032  -0.001455  0.983615  -0.002  0.109028  -0.001217  0.983508  -0.002  0.111527  0.109114  -0.001253  0.9842  -0.002
H  H10  1  0.47156316  0.12381553  0.42746752  1  0.094538  0.00227  0.924397  0.003  0.109011  0.001456  0.983601  0.002  0.109009  0.001217  0.983493  0.002  0.11155  0.109091  0.001253  0.984187  0.002
H  H11  1  0.47155688  0.37618680  0.92747295  1  0.094505  0.00227  0.924468  0.003  0.10899  0.001456  0.983649  0.002  0.108985  0.001217  0.983549  0.002  0.111528  0.109075  0.001253  0.984236  0.002
H  H12  1  0.16102207  0.05477967  0.51836623  1  0.102558  0.000227  0.969486  0.0  0.120372  0.000207  1.038197  0.0  0.122893  0.000164  1.036266  0.0  0.086766  0.118519  0.000254  1.039712  0.0
H  H13  1  0.16102773  0.44521169  0.01836949  1  0.102557  0.000229  0.969464  0.0  0.12037  0.000207  1.038169  0.0  0.122883  0.000164  1.036252  0.0  0.086776  0.118513  0.000254  1.039693  0.0
H  H14  1  0.83897673  0.94521507  0.48163472  1  0.102514  -0.000231  0.969481  0.0  0.120376  -0.000207  1.038147  0.0  0.122901  -0.000164  1.036213  0.0  0.086774  0.118518  -0.000254  1.039672  0.0
H  H15  1  0.83897114  0.55478983  0.98163884  1  0.10253  -0.000232  0.969516  0.0  0.120376  -0.000207  1.0382  0.0  0.122899  -0.000164  1.036271  0.0  0.08678  0.118522  -0.000254  1.039718  0.0
H  H16  1  0.33386893  0.10951253  0.62830102  1  0.125705  -0.001023  0.947181  -0.001  0.148871  -0.001077  1.002691  -0.001  0.150085  -0.000799  1.003535  -0.001  0.094395  0.147759  -0.000924  1.002741  -0.001
H  H17  1  0.33387705  0.39050330  0.12830243  1  0.125669  -0.00102  0.947255  -0.001  0.148855  -0.001077  1.002747  -0.001  0.15007  -0.000799  1.003588  -0.001  0.094387  0.147741  -0.000924  1.002792  -0.001
H  H18  1  0.66612597  0.89048785  0.37170106  1  0.125657  0.001017  0.947203  0.001  0.148825  0.001078  1.002724  0.001  0.150041  0.000799  1.003566  0.001  0.094381  0.147712  0.000924  1.002766  0.001
H  H19  1  0.66612296  0.60950387  0.87169049  1  0.125651  0.001016  0.947304  0.001  0.148837  0.001077  1.0028  0.001  0.150052  0.000798  1.003645  0.001  0.094363  0.147727  0.000924  1.002847  0.001
H  H20  1  0.12959574  0.06326821  0.65966967  1  0.111323  0.000188  0.949945  0.0  0.126918  4.2e-05  1.017165  0.0  0.128323  3.6e-05  1.01648  0.0  0.087259  0.126309  -4.6e-05  1.017156  0.0
H  H21  1  0.12960767  0.43672594  0.15967109  1  0.111366  0.000191  0.949971  0.0  0.126942  4.3e-05  1.017201  0.0  0.128341  3.6e-05  1.016524  0.0  0.087306  0.126329  -4.6e-05  1.017186  0.0
H  H22  1  0.87039391  0.93671522  0.34032843  1  0.111348  -0.000194  0.949885  0.0  0.126878  -4.3e-05  1.01719  0.0  0.12828  -3.6e-05  1.016509  0.0  0.087256  0.126265  4.6e-05  1.017176  0.0
H  H23  1  0.87040418  0.56326653  0.84033405  1  0.11134  -0.000194  0.949919  0.0  0.126915  -4.3e-05  1.017163  0.0  0.128321  -3.6e-05  1.016478  0.0  0.087276  0.126306  4.6e-05  1.017153  0.0
H  H24  1  0.41092242  0.71950947  0.75608365  1  0.105618  0.000177  0.960377  0.0  0.120465  0.000156  1.032533  0.0  0.12187  0.000178  1.031664  0.0  0.087666  0.119383  8.1e-05  1.033204  0.0
H  H25  1  0.41089123  0.78053102  0.25608697  1  0.105446  0.000179  0.96012  0.0  0.120187  0.000157  1.03243  0.0  0.121575  0.000178  1.031576  0.0  0.087526  0.119096  8.1e-05  1.033102  0.0
H  H26  1  0.58910495  0.28049997  0.24391125  1  0.105547  -0.000179  0.960421  0.0  0.120398  -0.000156  1.032581  0.0  0.121795  -0.000178  1.031723  0.0  0.087671  0.119306  -8.1e-05  1.03325  0.0
H  H27  1  0.58909070  0.21947841  0.74391912  1  0.10548  -0.000179  0.960153  0.0  0.120242  -0.000156  1.032438  0.0  0.121635  -0.000178  1.031579  0.0  0.087537  0.119158  -8.1e-05  1.033114  0.0
H  H28  1  0.28553131  0.86474158  0.80187314  1  0.112166  5.3e-05  0.955879  0.0  0.129638  4.6e-05  1.020275  0.0  0.131099  4.6e-05  1.02017  0.0  0.088753  0.12853  4.6e-05  1.020426  0.0
H  H29  1  0.28552758  0.63527446  0.30187813  1  0.111962  5.5e-05  0.956041  0.0  0.129496  4.6e-05  1.020353  0.0  0.130955  4.6e-05  1.020247  0.0  0.088662  0.128381  4.6e-05  1.020502  0.0
H  H30  1  0.71447396  0.13524976  0.19812376  1  0.1121  -5.6e-05  0.955865  0.0  0.129576  -4.6e-05  1.020268  0.0  0.131038  -4.6e-05  1.020161  0.0  0.08871  0.128461  -4.6e-05  1.020416  0.0
H  H31  1  0.71447909  0.36471122  0.69812877  1  0.112017  -5.5e-05  0.956042  0.0  0.129537  -4.6e-05  1.020365  0.0  0.130995  -4.6e-05  1.02026  0.0  0.088707  0.12843  -4.6e-05  1.020517  0.0
H  H32  1  0.48884739  0.90859190  0.76555313  1  0.110319  -4.6e-05  0.972936  0.0  0.123829  -5e-05  1.046437  0.0  0.124912  -0.0001  1.046367  0.0  0.087464  0.122653  -4e-06  1.047024  0.0
H  H33  1  0.48883733  0.59145576  0.26555948  1  0.110162  -4.4e-05  0.973225  0.0  0.123704  -5e-05  1.046629  0.0  0.124795  -0.0001  1.046551  0.0  0.087414  0.122522  -4e-06  1.047207  0.0
H  H34  1  0.51116431  0.09141754  0.23443724  1  0.110238  4.3e-05  0.973208  0.0  0.123749  5e-05  1.04668  0.0  0.124829  0.0001  1.046611  0.0  0.087415  0.122566  4e-06  1.047257  0.0
H  H35  1  0.51116277  0.40856046  0.73444164  1  0.11016  4.4e-05  0.973193  0.0  0.123714  5e-05  1.046602  0.0  0.124813  0.0001  1.046514  0.0  0.08742  0.12254  4e-06  1.047184  0.0
H  H36  1  0.04449608  0.78838581  0.52178809  1  0.302519  0.000673  0.887627  0.001  0.297862  -0.000265  0.937411  0.0  0.303955  -9e-06  0.935186  0.0  0.298842  0.293486  -0.000401  0.939492  0.0
H  H37  1  0.04448905  0.71159346  0.02178389  1  0.302699  0.000674  0.887677  0.001  0.298019  -0.000263  0.937459  0.0  0.304113  -8e-06  0.935228  0.0  0.298856  0.293635  -0.0004  0.939551  0.0
H  H38  1  0.95551055  0.21160100  0.47821553  1  0.302673  -0.000673  0.88765  -0.001  0.297987  0.000264  0.937426  0.0  0.304084  8e-06  0.935193  0.0  0.298827  0.293604  0.000401  0.939519  0.0
H  H39  1  0.95549938  0.28839675  0.97822142  1  0.30262  -0.000674  0.887775  -0.001  0.297924  0.000264  0.937581  0.0  0.304018  9e-06  0.935356  0.0  0.298862  0.293546  0.000401  0.939667  0.0
H  H40  1  0.05240115  0.77475173  0.65807281  1  0.295588  0.000845  0.923788  0.001  0.275188  -0.000146  1.003635  0.0  0.282443  -0.000108  0.99918  0.0  0.291232  0.27011  -5.7e-05  1.007055  0.0
H  H41  1  0.05238541  0.72524534  0.15807353  1  0.295542  0.000845  0.923828  0.001  0.275166  -0.000146  1.003651  0.0  0.28243  -0.000108  0.999176  0.0  0.291176  0.270083  -5.7e-05  1.007065  0.0
H  H42  1  0.94761715  0.22524074  0.34192580  1  0.295516  -0.000844  0.923827  -0.001  0.275119  0.000146  1.003669  0.0  0.282384  0.000108  0.999197  0.0  0.29116  0.270037  5.7e-05  1.007086  0.0
H  H43  1  0.94760827  0.27475052  0.84193657  1  0.295707  -0.000845  0.923731  -0.001  0.275257  0.000147  1.003587  0.0  0.28251  0.000108  0.999142  0.0  0.291275  0.270177  5.7e-05  1.007011  0.0
C  C44  1  0.47756095  0.41661494  0.49700340  1  0.398915  -0.002717  3.950332  -0.002  0.370332  -0.000584  4.230826  0.0  0.399197  -0.001676  4.23882  -0.002  0.214114  0.348112  0.00015  4.22738  0.001
C  C45  1  0.47755346  0.08338733  0.99700306  1  0.399069  -0.002709  3.950331  -0.002  0.370374  -0.000585  4.230934  0.0  0.399284  -0.001677  4.238858  -0.002  0.214171  0.348162  0.000149  4.227495  0.001
C  C46  1  0.52245610  0.58338318  0.50300079  1  0.39904  0.002717  3.950193  0.002  0.370344  0.000586  4.230798  0.0  0.399267  0.00168  4.238724  0.002  0.214304  0.348134  -0.000148  4.227353  -0.001
C  C47  1  0.52243354  0.91661984  0.00299060  1  0.398972  0.00271  3.950576  0.002  0.370332  0.000585  4.23112  0.0  0.399237  0.001679  4.239046  0.002  0.214205  0.348118  -0.000149  4.227678  -0.001
C  C48  1  0.39801060  0.82740776  0.54258831  1  -0.036032  -4e-05  3.62202  0.002  -0.082219  -0.00089  3.86236  0.001  -0.075974  -0.00044  3.876835  0.002  -0.061522  -0.086739  -0.001022  3.852846  0.0
C  C49  1  0.39800399  0.67260107  0.04259794  1  -0.036065  -4.5e-05  3.62172  0.002  -0.082351  -0.00089  3.862091  0.001  -0.076097  -0.00044  3.876566  0.002  -0.061581  -0.086871  -0.001022  3.852586  0.0
C  C50  1  0.60199585  0.17259375  0.45739810  1  -0.035811  3.5e-05  3.621649  -0.002  -0.082136  0.000889  3.862074  -0.001  -0.075883  0.00044  3.876545  -0.002  -0.061563  -0.086661  0.001022  3.852569  0.0
C  C51  1  0.60198833  0.32741176  0.95740625  1  -0.036134  3.1e-05  3.621846  -0.002  -0.082411  0.000889  3.862243  -0.001  -0.076159  0.000439  3.876724  -0.002  -0.061535  -0.086929  0.001021  3.85273  0.0
C  C52  1  0.27831364  0.86844294  0.62323846  1  0.346619  -9.7e-05  3.543084  0.002  0.365108  -0.001609  3.777452  0.0  0.369996  -0.000944  3.796765  0.0  0.068293  0.362161  -0.001724  3.764221  -0.001
C  C53  1  0.27830852  0.63156237  0.12324400  1  0.346571  -8e-05  3.543181  0.002  0.365276  -0.001608  3.777152  0.0  0.370173  -0.000943  3.796426  0.0  0.068254  0.362323  -0.001722  3.763918  -0.001
C  C54  1  0.72169291  0.13155179  0.37675696  1  0.346497  8.3e-05  3.54322  -0.002  0.365189  0.001608  3.777204  0.0  0.370072  0.000943  3.796538  0.0  0.06825  0.362236  0.001722  3.763972  0.001
C  C55  1  0.72169163  0.36843688  0.87676204  1  0.346737  8.3e-05  3.54266  -0.002  0.365301  0.001608  3.776887  0.0  0.37021  0.000943  3.796131  0.0  0.068301  0.362354  0.001722  3.763662  0.001
C  C56  1  0.22141574  0.03341700  0.60669285  1  -0.374704  -0.003588  3.639768  -0.003  -0.454397  -0.002783  3.876973  -0.002  -0.45774  -0.002152  3.886143  -0.002  -0.246635  -0.451439  -0.002862  3.870455  -0.002
C  C57  1  0.22142067  0.46658723  0.10669654  1  -0.374682  -0.003605  3.639904  -0.003  -0.45443  -0.002784  3.87705  -0.002  -0.457767  -0.002152  3.886242  -0.002  -0.246689  -0.451468  -0.002862  3.870531  -0.002
C  C58  1  0.77858304  0.96657886  0.39330728  1  -0.374597  0.003616  3.639841  0.003  -0.454334  0.002784  3.877047  0.002  -0.457682  0.002152  3.886223  0.002  -0.246635  -0.451372  0.002862  3.870527  0.002
C  C59  1  0.77858207  0.53341768  0.89330820  1  -0.374707  0.003616  3.639785  0.003  -0.454448  0.002783  3.87697  0.002  -0.457798  0.002151  3.886144  0.002  -0.246636  -0.451488  0.002861  3.870452  0.002
C  C60  1  0.37130214  0.83857772  0.74416060  1  -0.369545  -0.000193  3.635463  0.0  -0.445818  -6.5e-05  3.870078  0.0  -0.449179  -1.1e-05  3.88118  0.0  -0.251106  -0.442892  -0.000125  3.862223  0.0
C  C61  1  0.37128735  0.66145149  0.24416314  1  -0.369046  -0.000205  3.635279  0.0  -0.445288  -6.5e-05  3.869765  0.0  -0.448668  -1.1e-05  3.880925  0.0  -0.250835  -0.44238  -0.000125  3.861942  0.0
C  C62  1  0.62870834  0.16142719  0.25583698  1  -0.36932  0.000208  3.635677  0.0  -0.445623  6.5e-05  3.870165  0.0  -0.448976  1e-05  3.881272  0.0  -0.251034  -0.44271  0.000125  3.862341  0.0
C  C63  1  0.62870625  0.33855229  0.75583958  1  -0.369161  0.000206  3.635222  0.0  -0.445384  6.6e-05  3.869764  0.0  -0.448773  1e-05  3.880903  0.0  -0.250915  -0.442469  0.000125  3.86192  0.0
N  N64  1  0.07463413  0.39213712  0.72786927  1  0.225637  -0.007696  3.215237  -0.005  0.237446  -0.005905  3.53114  -0.004  0.26174  -0.002926  3.53092  -0.002  -0.045028  0.221459  -0.007225  3.531673  -0.006
N  N65  1  0.07462436  0.10789001  0.22786296  1  0.225597  -0.007695  3.2152  -0.005  0.237411  -0.005899  3.531112  -0.004  0.261723  -0.002922  3.53087  -0.002  -0.044981  0.221394  -0.007221  3.531684  -0.006
N  N66  1  0.92538692  0.60788476  0.27214364  1  0.225587  0.0077  3.215016  0.005  0.237351  0.005899  3.531006  0.004  0.261664  0.002919  3.530759  0.002  -0.045045  0.221336  0.00722  3.531572  0.006
N  N67  1  0.92536140  0.89212395  0.77213545  1  0.225693  0.007705  3.215151  0.005  0.237491  0.005903  3.531071  0.004  0.261797  0.002925  3.530839  0.002  -0.044997  0.221471  0.007223  3.53167  0.006
N  N68  1  0.40389691  0.66443252  0.53583630  1  -0.4338  -0.085694  3.333147  -0.105  -0.397794  -0.064442  3.648984  -0.083  -0.441937  -0.059988  3.669645  -0.081  -0.411394  -0.365942  -0.050949  3.63512  -0.064
N  N69  1  0.40388800  0.83558060  0.03584066  1  -0.433608  -0.085691  3.333046  -0.105  -0.397601  -0.064443  3.648867  -0.083  -0.441756  -0.059986  3.669556  -0.081  -0.411189  -0.365753  -0.050944  3.635005  -0.064
N  N70  1  0.59610823  0.33557352  0.46414910  1  -0.433641  0.085713  3.332731  0.105  -0.39764  0.064452  3.648535  0.083  -0.441803  0.059986  3.669277  0.081  -0.411156  -0.365791  0.050951  3.634678  0.064
N  N71  1  0.59609382  0.16443223  0.96415477  1  -0.433771  0.085691  3.3332  0.105  -0.3977  0.064446  3.648944  0.083  -0.441877  0.059984  3.669661  0.081  -0.411298  -0.365868  0.050947  3.635113  0.064
N  N72  1  0.12474187  0.76310367  0.59736696  1  -0.6416  -0.085138  3.057758  -0.102  -0.618474  -0.067661  3.322067  -0.085  -0.652274  -0.05884  3.322985  -0.078  -0.628507  -0.59768  -0.058099  3.323333  -0.071
N  N73  1  0.12472643  0.73688137  0.09736719  1  -0.641746  -0.085148  3.057798  -0.103  -0.618702  -0.067665  3.322049  -0.085  -0.652522  -0.058842  3.322978  -0.078  -0.628468  -0.597906  -0.058102  3.323319  -0.071
N  N74  1  0.87527514  0.23688428  0.40263312  1  -0.641683  0.08515  3.057681  0.103  -0.618607  0.067671  3.321966  0.085  -0.65244  0.058843  3.322923  0.078  -0.628415  -0.597828  0.058107  3.323248  0.071
N  N75  1  0.87526592  0.26309866  0.90263946  1  -0.641794  0.085124  3.057601  0.102  -0.618667  0.067655  3.322137  0.085  -0.652487  0.058834  3.323071  0.078  -0.628568  -0.597897  0.058089  3.323444  0.071
O  O76  1  0.03863481  0.41988847  0.62073447  1  -0.452761  -0.056977  2.056474  -0.074  -0.435135  -0.042191  2.370888  -0.059  -0.476832  -0.035676  2.359401  -0.052  -0.216332  -0.408621  -0.037476  2.380382  -0.051
O  O77  1  0.03861263  0.08010713  0.12073156  1  -0.452757  -0.056962  2.056622  -0.074  -0.435127  -0.042181  2.371009  -0.059  -0.476825  -0.035672  2.359522  -0.052  -0.216376  -0.408625  -0.037467  2.380512  -0.051
O  O78  1  0.96138750  0.58010287  0.37927369  1  -0.452747  0.056964  2.05669  0.074  -0.43505  0.042183  2.371118  0.059  -0.476743  0.035675  2.359633  0.052  -0.216336  -0.408552  0.037469  2.380622  0.051
O  O79  1  0.96135883  0.91988873  0.87926904  1  -0.452761  0.05697  2.056679  0.074  -0.435131  0.042196  2.371085  0.059  -0.476836  0.035677  2.359605  0.052  -0.21631  -0.408625  0.037475  2.380605  0.051
O  O80  1  0.20672214  0.45564560  0.78244132  1  -0.380013  -0.000512  1.918638  -0.002  -0.356557  -0.00017  2.161099  -0.001  -0.373596  0.001763  2.153246  0.002  -0.15619  -0.345804  -0.001719  2.167034  -0.003
O  O81  1  0.20674066  0.04439719  0.28243637  1  -0.380059  -0.000498  1.918457  -0.002  -0.356559  -0.000169  2.160869  -0.001  -0.373609  0.001767  2.153007  0.002  -0.156232  -0.3458  -0.001718  2.1668  -0.003
O  O82  1  0.79326887  0.54438306  0.21756188  1  -0.380042  0.000488  1.918252  0.002  -0.356581  0.000168  2.160678  0.001  -0.373638  -0.001769  2.152825  -0.002  -0.156236  -0.345827  0.001718  2.16661  0.003
O  O83  1  0.79326720  0.95563033  0.71756005  1  -0.380074  0.000503  1.91843  0.002  -0.356584  0.000169  2.160863  0.001  -0.373644  -0.001764  2.153027  -0.002  -0.156239  -0.345822  0.001719  2.166807  0.003
O  O84  1  0.33625362  0.37205242  0.52370823  1  -0.515407  -0.057564  2.023364  -0.074  -0.489694  -0.050584  2.286565  -0.07  -0.53212  -0.043655  2.28156  -0.064  -0.31026  -0.45654  -0.043726  2.29019  -0.059
O  O85  1  0.33624180  0.12794610  0.02370543  1  -0.515446  -0.057578  2.023122  -0.074  -0.48969  -0.050595  2.286344  -0.07  -0.532146  -0.04366  2.281329  -0.064  -0.310243  -0.45654  -0.043729  2.289966  -0.059
O  O86  1  0.66375556  0.62794683  0.47628917  1  -0.515377  0.057573  2.023285  0.074  -0.489609  0.050593  2.28652  0.07  -0.532067  0.043655  2.281522  0.064  -0.310271  -0.456474  0.043727  2.290149  0.059
O  O87  1  0.66374526  0.87205428  0.97629397  1  -0.515433  0.057569  2.023433  0.074  -0.489697  0.050587  2.286572  0.07  -0.532157  0.043653  2.281567  0.064  -0.310288  -0.456558  0.043725  2.290212  0.059
