# generated using pymatgen
data_AlH7C11SO6
_symmetry_space_group_name_H-M   'P 1'
_cell_length_a   6.61434380
_cell_length_b   11.24627285
_cell_length_c   12.84744428
_cell_angle_alpha   67.35644166
_cell_angle_beta   70.89370030
_cell_angle_gamma   70.26940970
_symmetry_Int_Tables_number   1
_chemical_formula_structural   AlH7C11SO6
_chemical_formula_sum   'Al2 H14 C22 S2 O12'
_cell_volume   808.52500241
_cell_formula_units_Z   2
loop_
 _symmetry_equiv_pos_site_id
 _symmetry_equiv_pos_as_xyz
  1  'x, y, z'
loop_
 _atom_site_type_symbol
 _atom_site_label
 _atom_site_symmetry_multiplicity
 _atom_site_fract_x
 _atom_site_fract_y
 _atom_site_fract_z
 _atom_site_occupancy
 _atom_site_pbe_bader_charge
 _atom_site_pbe_bader_spin_density
 _atom_site_pbe_cm5_charge
 _atom_site_pbe_ddec_charge
 _atom_site_pbe_ddec_spin_density
 _atom_site_pbe_ddec_sum_bond_order
 _atom_site_pbe_magmom
Al  Al0  1  0.49295378  0.48763683  0.51696612  1  2.504853  0  0.394968  1.63318  0  2.591646  0
Al  Al1  1  0.99468303  0.48772745  0.51335677  1  2.503354  0  0.398915  1.642343  0  2.565991  0
H  H2  1  0.20167656  0.38714288  0.65885142  1  0.625916  0  0.351732  0.429606  0  0.857426  0
H  H3  1  0.70288430  0.65570603  0.42353676  1  0.643737  0  0.348086  0.426211  0  0.868012  0
H  H4  1  0.27209675  0.26284178  0.35178780  1  0.088987  0  0.100234  0.103526  0  1.058919  0
H  H5  1  0.62346013  0.17718216  0.23096761  1  0.064346  0  0.092486  0.088285  0  1.045357  0
H  H6  1  0.44866232  0.80863676  0.32829820  1  0.065217  0  0.101641  0.106088  0  1.036357  0
H  H7  1  0.71344127  0.94739425  0.21859048  1  0.040845  0  0.097531  0.094326  0  0.999124  0
H  H8  1  0.20154745  0.67416736  0.76131801  1  0.083615  0  0.104171  0.155453  0  0.971048  0
H  H9  1  0.05170758  0.67169446  0.90539483  1  0.022227  0  0.094044  0.133521  0  0.98731  0
H  H10  1  0.07796205  0.54164783  0.85206839  1  0.081042  0  0.084919  0.119096  0  1.060768  0
H  H11  1  0.92401971  0.43928719  0.17224104  1  0.076921  0  0.086916  0.125183  0  1.051378  0
H  H12  1  0.94186380  0.30250719  0.12986444  1  0.05729  0  0.091973  0.130653  0  0.987133  0
H  H13  1  0.79746751  0.31179977  0.27185687  1  0.091703  0  0.097701  0.142709  0  1.013707  0
H  H14  1  0.74232596  0.77254301  0.56861923  1  0.647622  0  0.314318  0.354025  0  0.96179  0
H  H15  1  0.55565824  0.19730600  0.57512539  1  0.670475  0  0.317525  0.358876  0  0.963821  0
C  C16  1  0.88369673  0.26322929  0.50560100  1  1.49902  0  0.269304  0.658699  0  4.041897  0
C  C17  1  0.62437386  0.46436282  0.71861128  1  1.553992  0  0.256657  0.652719  0  4.135499  0
C  C18  1  0.11523300  0.72548505  0.49429846  1  1.501402  0  0.262598  0.655337  0  4.068894  0
C  C19  1  0.36816250  0.51002315  0.31438854  1  1.560607  0  0.25744  0.644846  0  4.146403  0
C  C20  1  0.37006298  0.53609400  0.89495284  1  0.076495  0  0.001844  0.151878  0  3.965416  0
C  C21  1  0.62638985  0.44181658  0.13685819  1  0.038828  0  -0.000527  0.143649  0  3.973652  0
C  C22  1  0.56809216  0.47140408  0.83630336  1  -0.184699  0  -0.024532  -0.199309  0  3.9274  0
C  C23  1  0.42719019  0.50511850  0.19596111  1  -0.148434  0  -0.02117  -0.199445  0  3.928235  0
C  C24  1  0.60305336  0.45380093  0.02724930  1  -0.148587  0  -0.022255  -0.076536  0  4.071723  0
C  C25  1  0.39372725  0.52456002  0.00437401  1  -0.134067  0  -0.022569  -0.078853  0  4.072808  0
C  C26  1  0.94257191  0.13549375  0.48257306  1  0.049994  0  -0.031592  -0.243206  0  3.937758  0
C  C27  1  0.15713905  0.08358573  0.41627895  1  0.005067  0  -0.004915  0.072055  0  3.949498  0
C  C28  1  0.78155134  0.06164405  0.52783636  1  0.572908  0  0.102793  0.229897  0  4.026164  0
C  C29  1  0.31182002  0.16192649  0.34975770  1  0.025948  0  -0.097502  -0.12527  0  3.963735  0
C  C30  1  0.50960866  0.11361107  0.28144110  1  -0.098137  0  -0.102647  -0.09025  0  4.057982  0
C  C31  1  0.05371607  0.86967555  0.47509236  1  -0.009143  0  -0.035484  -0.244329  0  3.973597  0
C  C32  1  0.83892371  0.92705545  0.52526538  1  0.558502  0  0.095828  0.221069  0  4.043964  0
C  C33  1  0.21115303  0.95092818  0.41117814  1  0.054239  0  -0.007968  0.07274  0  3.968348  0
C  C34  1  0.41271306  0.90602315  0.33776452  1  -0.094723  0  -0.105406  -0.151593  0  4.010828  0
C  C35  1  0.56042421  0.98484981  0.27471890  1  -0.010168  0  -0.104049  -0.095074  0  4.081253  0
C  C36  1  0.16465063  0.61016822  0.85105135  1  -0.049748  0  -0.23591  -0.393201  0  3.948456  0
C  C37  1  0.83274016  0.36952779  0.18005681  1  -0.093113  0  -0.236743  -0.397019  0  3.954956  0
S  S38  1  0.77648646  0.39968719  0.91285935  1  0.227061  0  0.089108  0.125815  0  2.840752  0
S  S39  1  0.21909663  0.57714529  0.11930412  1  0.245697  0  0.097783  0.140078  0  2.847363  0
O  O40  1  0.67575961  0.31092701  0.54592208  1  -1.271731  0  -0.245817  -0.623856  0  2.405841  0
O  O41  1  0.83081385  0.43577460  0.67104184  1  -1.270326  0  -0.249014  -0.623266  0  2.354457  0
O  O42  1  0.95918410  0.66468268  0.52542614  1  -1.252871  0  -0.24456  -0.612213  0  2.352683  0
O  O43  1  0.52187456  0.48075366  0.36569976  1  -1.253065  0  -0.227618  -0.558792  0  2.321747  0
O  O44  1  0.31789480  0.66491546  0.48287993  1  -1.266839  0  -0.230813  -0.600025  0  2.436872  0
O  O45  1  0.16155859  0.54379681  0.35927095  1  -1.270753  0  -0.247291  -0.611164  0  2.35701  0
O  O46  1  0.02884845  0.32240209  0.49040281  1  -1.248858  0  -0.221291  -0.553901  0  2.345158  0
O  O47  1  0.46714204  0.48718630  0.67115895  1  -1.251787  0  -0.234697  -0.581084  0  2.316015  0
O  O48  1  0.24531925  0.41679097  0.57484924  1  -1.431846  0  -0.445464  -0.980036  0  2.164143  0
O  O49  1  0.73703098  0.56034362  0.46019610  1  -1.450416  0  -0.448967  -0.990087  0  2.205302  0
O  O50  1  0.67723632  0.86281366  0.57902098  1  -1.144474  0  -0.333936  -0.39493  0  2.293917  0
O  O51  1  0.57249703  0.10294985  0.58058404  1  -1.154125  0  -0.327775  -0.388423  0  2.303109  0
