# generated using pymatgen
data_ErH12(C5O3)3
_symmetry_space_group_name_H-M   'P 1'
_cell_length_a   9.96400534
_cell_length_b   12.14781426
_cell_length_c   13.75300000
_cell_angle_alpha   105.33753402
_cell_angle_beta   90.00000000
_cell_angle_gamma   90.00000000
_symmetry_Int_Tables_number   1
_chemical_formula_structural   ErH12(C5O3)3
_chemical_formula_sum   'Er4 H48 C60 O36'
_cell_volume   1605.38681494
_cell_formula_units_Z   4
loop_
 _symmetry_equiv_pos_site_id
 _symmetry_equiv_pos_as_xyz
  1  'x, y, z'
loop_
 _atom_site_type_symbol
 _atom_site_label
 _atom_site_symmetry_multiplicity
 _atom_site_fract_x
 _atom_site_fract_y
 _atom_site_fract_z
 _atom_site_occupancy
 _atom_site_hle17_bader_spin_density
 _atom_site_hle17_ddec_charge
 _atom_site_hle17_ddec_spin_density
 _atom_site_hle17_ddec_sum_bond_order
 _atom_site_hle17_magmom
 _atom_site_hse06_10hf_bader_spin_density
 _atom_site_hse06_10hf_ddec_charge
 _atom_site_hse06_10hf_ddec_spin_density
 _atom_site_hse06_10hf_ddec_sum_bond_order
 _atom_site_hse06_10hf_magmom
 _atom_site_hse06_bader_spin_density
 _atom_site_hse06_ddec_charge
 _atom_site_hse06_ddec_spin_density
 _atom_site_hse06_ddec_sum_bond_order
 _atom_site_hse06_magmom
 _atom_site_pbe_bader_charge
 _atom_site_pbe_bader_spin_density
 _atom_site_pbe_cm5_charge
 _atom_site_pbe_ddec_charge
 _atom_site_pbe_ddec_spin_density
 _atom_site_pbe_ddec_sum_bond_order
 _atom_site_pbe_magmom
Er  Er0  1  0.21184051  0.05971151  0.07704155  1  0  2.24004  0  1.66388  0  0  2.094543  0  2.148363  0  0  2.229246  0  1.944269  0  2.169868  0  1.517692  2.059472  0  2.178152  0
Er  Er1  1  0.71184024  0.44028670  0.92295716  1  0  2.240058  0  1.663888  0  0  2.094574  0  2.14832  0  0  2.229272  0  1.944279  0  2.169798  0  1.517688  2.059499  0  2.178136  0
Er  Er2  1  0.78815995  0.94028832  0.92295812  1  0  2.240062  0  1.663895  0  0  2.094567  0  2.148348  0  0  2.229265  0  1.944288  0  2.169835  0  1.517693  2.059505  0  2.178141  0
Er  Er3  1  0.28816022  0.55971399  0.07704271  1  0  2.240087  0  1.66388  0  0  2.094602  0  2.148319  0  0  2.229292  0  1.944278  0  2.16979  0  1.517695  2.059557  0  2.178091  0
H  H4  1  0.22569839  0.42592070  0.33407618  1  0  0.11495  0  0.939347  0  0  0.123929  0  1.000831  0  0  0.127929  0  0.996937  0  0.109142  0  0.110622  0.121154  0  1.003389  0
H  H5  1  0.72569612  0.07408007  0.66592458  1  0  0.11493  0  0.939431  0  0  0.123896  0  1.000934  0  0  0.127901  0  0.997032  0  0.109099  0  0.110613  0.121123  0  1.003489  0
H  H6  1  0.77430107  0.57407998  0.66592369  1  0  0.114912  0  0.939429  0  0  0.123896  0  1.000925  0  0  0.127901  0  0.997027  0  0.109114  0  0.110614  0.121124  0  1.003479  0
H  H7  1  0.27430335  0.92592062  0.33407601  1  0  0.114949  0  0.939429  0  0  0.123932  0  1.000907  0  0  0.127931  0  0.997018  0  0.109095  0  0.110638  0.121159  0  1.003462  0
H  H8  1  0.25479011  0.54340435  0.51102981  1  0  0.106625  0  0.977174  0  0  0.11504  0  1.040992  0  0  0.117667  0  1.041542  0  0.050915  0  0.101985  0.113188  0  1.040767  0
H  H9  1  0.75478783  0.95659540  0.48897115  1  0  0.106623  0  0.977136  0  0  0.115  0  1.041002  0  0  0.117624  0  1.041554  0  0.050922  0  0.101975  0.113145  0  1.040783  0
H  H10  1  0.74520936  0.45659548  0.48897059  1  0  0.106586  0  0.977203  0  0  0.114999  0  1.041019  0  0  0.117624  0  1.041571  0  0.050474  0  0.101996  0.11315  0  1.040796  0
H  H11  1  0.24521163  0.04340444  0.51102925  1  0  0.106615  0  0.97715  0  0  0.115002  0  1.041009  0  0  0.117634  0  1.041548  0  0.050919  0  0.101978  0.113154  0  1.040778  0
H  H12  1  0.41815212  0.25262988  0.59392054  1  0  0.11663  0  0.952623  0  0  0.126154  0  1.012596  0  0  0.128972  0  1.012913  0  0.094898  0  0.106773  0.124124  0  1.012624  0
H  H13  1  0.91814985  0.24736833  0.40607889  1  0  0.116624  0  0.952588  0  0  0.126151  0  1.012549  0  0  0.128964  0  1.012873  0  0.094922  0  0.106787  0.124122  0  1.012574  0
H  H14  1  0.58184734  0.74736995  0.40607985  1  0  0.116616  0  0.95263  0  0  0.126139  0  1.0126  0  0  0.128952  0  1.012923  0  0.094895  0  0.10677  0.124108  0  1.012627  0
H  H15  1  0.08184961  0.75263151  0.59392150  1  0  0.116607  0  0.952606  0  0  0.126131  0  1.012574  0  0  0.128941  0  1.012899  0  0.094912  0  0.106785  0.124102  0  1.012596  0
H  H16  1  0.38494158  0.13338100  0.41590518  1  0  0.098015  0  0.947277  0  0  0.110696  0  1.004048  0  0  0.113762  0  1.00147  0  0.092956  0  0.106619  0.108616  0  1.005647  0
H  H17  1  0.88493931  0.36661806  0.58409300  1  0  0.098036  0  0.947347  0  0  0.110716  0  1.004116  0  0  0.113779  0  1.001535  0  0.092965  0  0.106637  0.10864  0  1.005712  0
H  H18  1  0.61505888  0.86661798  0.58409429  1  0  0.098045  0  0.947315  0  0  0.110729  0  1.004077  0  0  0.11379  0  1.001502  0  0.092957  0  0.106634  0.108648  0  1.005677  0
H  H19  1  0.11506116  0.63338177  0.41590667  1  0  0.09803  0  0.947304  0  0  0.110714  0  1.00407  0  0  0.11377  0  1.001497  0  0.092973  0  0.106634  0.108635  0  1.005669  0
H  H20  1  0.47989135  0.65819235  0.70439720  1  0  0.116852  0  0.966561  0  0  0.126256  0  1.026708  0  0  0.128902  0  1.026531  0  0.124948  0  0.107561  0.124372  0  1.02689  0
H  H21  1  0.97989008  0.84180654  0.29560501  1  0  0.11682  0  0.966604  0  0  0.126271  0  1.026696  0  0  0.128917  0  1.026523  0  0.124977  0  0.10756  0.124382  0  1.026878  0
H  H22  1  0.52010811  0.34180748  0.29560247  1  0  0.116818  0  0.966642  0  0  0.126229  0  1.026767  0  0  0.128878  0  1.026591  0  0.12493  0  0.107545  0.124352  0  1.026945  0
H  H23  1  0.02010938  0.15819414  0.70439558  1  0  0.116806  0  0.966624  0  0  0.126253  0  1.026715  0  0  0.128902  0  1.026537  0  0.12496  0  0.107546  0.124369  0  1.026893  0
H  H24  1  0.37616800  0.84526190  0.79861109  1  0  0.105318  0  0.939465  0  0  0.11599  0  0.998052  0  0  0.118958  0  0.995951  0  0.073556  0  0.109621  0.114023  0  0.999242  0
H  H25  1  0.87616673  0.65473615  0.20139165  1  0  0.105261  0  0.939554  0  0  0.115929  0  0.998139  0  0  0.118894  0  0.996042  0  0.073559  0  0.109607  0.113961  0  0.999329  0
H  H26  1  0.62383246  0.15473708  0.20138911  1  0  0.105284  0  0.939512  0  0  0.11595  0  0.998108  0  0  0.118922  0  0.995999  0  0.073552  0  0.109609  0.113986  0  0.999293  0
H  H27  1  0.12383374  0.34526454  0.79860895  1  0  0.105288  0  0.939524  0  0  0.115971  0  0.998095  0  0  0.118941  0  0.995992  0  0.073546  0  0.109613  0.114004  0  0.999286  0
H  H28  1  0.99327927  0.67945283  0.79010746  1  0  0.120287  0  0.943852  0  0  0.127761  0  1.005631  0  0  0.131557  0  1.002724  0  0.140312  0  0.113943  0.125318  0  1.00717  0
H  H29  1  0.49327854  0.82054777  0.20989079  1  0  0.120274  0  0.94383  0  0  0.127751  0  1.005599  0  0  0.131548  0  1.002693  0  0.140291  0  0.113937  0.125308  0  1.007136  0
H  H30  1  0.00672220  0.32054614  0.20989201  1  0  0.120319  0  0.943783  0  0  0.127766  0  1.005584  0  0  0.131563  0  1.002679  0  0.140273  0  0.113962  0.125325  0  1.007117  0
H  H31  1  0.50672092  0.17945206  0.79010888  1  0  0.120281  0  0.943817  0  0  0.127759  0  1.005589  0  0  0.131557  0  1.002679  0  0.140301  0  0.113946  0.125318  0  1.007123  0
H  H32  1  0.09718281  0.49313616  0.69879978  1  0  0.117311  0  0.937386  0  0  0.130176  0  0.993103  0  0  0.133249  0  0.99208  0  0.095003  0  0.111718  0.127959  0  0.993978  0
H  H33  1  0.59718354  0.00686375  0.30120005  1  0  0.117313  0  0.937403  0  0  0.130179  0  0.993118  0  0  0.133254  0  0.992093  0  0.095001  0  0.111716  0.12796  0  0.993995  0
H  H34  1  0.90281766  0.50686367  0.30119989  1  0  0.11732  0  0.937359  0  0  0.130186  0  0.993079  0  0  0.13326  0  0.992053  0  0.095013  0  0.111723  0.12797  0  0.993953  0
H  H35  1  0.40281592  0.99313608  0.69880035  1  0  0.117324  0  0.937385  0  0  0.130191  0  0.993099  0  0  0.133265  0  0.992075  0  0.095286  0  0.111728  0.127975  0  0.993973  0
H  H36  1  0.03198413  0.86350492  0.08367673  1  0  0.450791  0  0.832353  0  0  0.421844  0  0.89232  0  0  0.432795  0  0.876416  0  0.656911  0  0.309646  0.41437  0  0.903369  0
H  H37  1  0.53198486  0.63649483  0.91632278  1  0  0.450803  0  0.832338  0  0  0.421846  0  0.892318  0  0  0.432808  0  0.8764  0  0.656916  0  0.309651  0.414381  0  0.903355  0
H  H38  1  0.96801534  0.13649491  0.91632222  1  0  0.450814  0  0.832314  0  0  0.421854  0  0.892297  0  0  0.432814  0  0.876381  0  0.656917  0  0.309658  0.414392  0  0.90333  0
H  H39  1  0.46801561  0.36350586  0.08367709  1  0  0.450807  0  0.83233  0  0  0.421859  0  0.892297  0  0  0.432811  0  0.876393  0  0.656914  0  0.309656  0.414387  0  0.903344  0
H  H40  1  0.16693989  0.84209847  0.13971815  1  0  0.460996  0  0.82678  0  0  0.4314  0  0.88697  0  0  0.442766  0  0.870486  0  0.666249  0  0.308318  0.423824  0  0.898053  0
H  H41  1  0.66693862  0.65790128  0.86028135  1  0  0.460965  0  0.826821  0  0  0.431375  0  0.887001  0  0  0.442746  0  0.870507  0  0.666254  0  0.30831  0.423802  0  0.898076  0
H  H42  1  0.83306158  0.15790051  0.86028059  1  0  0.460969  0  0.826814  0  0  0.431384  0  0.886987  0  0  0.442751  0  0.870498  0  0.666372  0  0.308311  0.423804  0  0.898071  0
H  H43  1  0.33306184  0.34209941  0.13971852  1  0  0.460968  0  0.826814  0  0  0.431385  0  0.886984  0  0  0.442752  0  0.870495  0  0.66626  0  0.308313  0.423806  0  0.898068  0
H  H44  1  0.12626248  0.27266717  0.01744580  1  0  0.44705  0  0.841222  0  0  0.417254  0  0.904463  0  0  0.429008  0  0.887475  0  0.661476  0  0.309372  0.409398  0  0.9159  0
H  H45  1  0.62626321  0.22733360  0.98255423  1  0  0.447046  0  0.841246  0  0  0.417247  0  0.904479  0  0  0.428999  0  0.887495  0  0.66148  0  0.309361  0.409392  0  0.915915  0
H  H46  1  0.87373699  0.72733352  0.98255407  1  0  0.447047  0  0.841231  0  0  0.417249  0  0.904471  0  0  0.429003  0  0.887485  0  0.661482  0  0.309367  0.409395  0  0.915906  0
H  H47  1  0.37373826  0.77266708  0.01744564  1  0  0.447048  0  0.84123  0  0  0.41725  0  0.904472  0  0  0.429001  0  0.887488  0  0.661477  0  0.309361  0.409394  0  0.915908  0
H  H48  1  0.20473092  0.19040795  0.92833712  1  0  0.426992  0  0.837757  0  0  0.401741  0  0.905892  0  0  0.408987  0  0.90014  0  0.618683  0  0.317806  0.396805  0  0.910614  0
H  H49  1  0.70473065  0.30959282  0.07166291  1  0  0.427032  0  0.837747  0  0  0.401775  0  0.905886  0  0  0.409025  0  0.900132  0  0.618705  0  0.317817  0.396843  0  0.910605  0
H  H50  1  0.79526754  0.80959188  0.07166255  1  0  0.42703  0  0.837712  0  0  0.401771  0  0.905858  0  0  0.409022  0  0.9001  0  0.618688  0  0.317835  0.39684  0  0.910573  0
H  H51  1  0.29526881  0.69040787  0.92833696  1  0  0.427031  0  0.837765  0  0  0.401774  0  0.905905  0  0  0.40902  0  0.900152  0  0.618689  0  0.317817  0.39684  0  0.910622  0
C  C52  1  0.28191173  0.19965836  0.26066701  1  0  0.640142  0  3.933925  0  0  0.594587  0  4.225007  0  0  0.627624  0  4.227058  0  1.525379  0  0.192462  0.571235  0  4.229826  0
C  C53  1  0.78191247  0.30034156  0.73933209  1  0  0.640108  0  3.933972  0  0  0.59456  0  4.225044  0  0  0.627587  0  4.227111  0  1.525022  0  0.19244  0.571202  0  4.229875  0
C  C54  1  0.71808773  0.80034147  0.73933266  1  0  0.640093  0  3.933901  0  0  0.594539  0  4.224981  0  0  0.62758  0  4.227034  0  1.525336  0  0.192426  0.571193  0  4.229802  0
C  C55  1  0.21808800  0.69965827  0.26066758  1  0  0.640123  0  3.933857  0  0  0.594571  0  4.224944  0  0  0.627597  0  4.227004  0  1.525387  0  0.19243  0.571214  0  4.229773  0
C  C56  1  0.30093822  0.27132105  0.36468529  1  0  -0.101092  0  3.799394  0  0  -0.080828  0  4.037377  0  0  -0.091136  0  4.059728  0  0.006758  0  -0.032529  -0.073633  0  4.021355  0
C  C57  1  0.80093594  0.22867972  0.63531401  1  0  -0.101047  0  3.799246  0  0  -0.080802  0  4.037241  0  0  -0.0911  0  4.059586  0  0.006748  0  -0.032493  -0.073595  0  4.021212  0
C  C58  1  0.69906225  0.72868049  0.63531405  1  0  -0.101087  0  3.799268  0  0  -0.080815  0  4.037235  0  0  -0.091124  0  4.059586  0  0.006711  0  -0.032493  -0.073623  0  4.021213  0
C  C59  1  0.19906352  0.77132096  0.36468658  1  0  -0.101123  0  3.799334  0  0  -0.08088  0  4.037342  0  0  -0.091179  0  4.059687  0  0.006717  0  -0.032517  -0.073681  0  4.021325  0
C  C60  1  0.26509018  0.38716750  0.39127896  1  0  -0.03196  0  3.719911  0  0  -0.056689  0  3.969328  0  0  -0.052227  0  3.985717  0  -0.058624  0  -0.076789  -0.059154  0  3.95764  0
C  C61  1  0.76508791  0.11283156  0.60872140  1  0  -0.032019  0  3.719943  0  0  -0.056733  0  3.969348  0  0  -0.052281  0  3.985742  0  -0.058608  0  -0.076853  -0.059208  0  3.957661  0
C  C62  1  0.73491330  0.61283404  0.60872183  1  0  -0.031923  0  3.719808  0  0  -0.05666  0  3.969223  0  0  -0.052205  0  3.985617  0  -0.058549  0  -0.07683  -0.059134  0  3.95754  0
C  C63  1  0.23491156  0.88716742  0.39127807  1  0  -0.032005  0  3.719953  0  0  -0.056739  0  3.969374  0  0  -0.05228  0  3.985761  0  -0.058607  0  -0.076848  -0.059205  0  3.95768  0
C  C64  1  0.28140390  0.45324341  0.48998632  1  0  -0.210217  0  3.765723  0  0  -0.22787  0  4.015807  0  0  -0.236081  0  4.036682  0  -0.007097  0  -0.108183  -0.222663  0  4.001888  0
C  C65  1  0.78140564  0.04675565  0.51001477  1  0  -0.210112  0  3.765647  0  0  -0.227715  0  4.015733  0  0  -0.235925  0  4.036614  0  -0.007135  0  -0.10811  -0.222511  0  4.001819  0
C  C66  1  0.71859255  0.54675642  0.51001481  1  0  -0.210091  0  3.765658  0  0  -0.227719  0  4.015749  0  0  -0.235929  0  4.036627  0  -0.006702  0  -0.108122  -0.222519  0  4.001838  0
C  C67  1  0.21859382  0.95324504  0.48998582  1  0  -0.210106  0  3.765673  0  0  -0.227725  0  4.015755  0  0  -0.235931  0  4.036618  0  -0.007123  0  -0.108123  -0.222515  0  4.001829  0
C  C68  1  0.33552973  0.40317155  0.56203687  1  0  0.301565  0  3.787795  0  0  0.289037  0  4.049711  0  0  0.302522  0  4.064103  0  0.414715  0  0.095928  0.279976  0  4.039846  0
C  C69  1  0.83553046  0.09682751  0.43796495  1  0  0.301472  0  3.787891  0  0  0.288918  0  4.049823  0  0  0.302409  0  4.064211  0  0.414659  0  0.095854  0.279865  0  4.039951  0
C  C70  1  0.66447074  0.59682743  0.43796405  1  0  0.301448  0  3.787846  0  0  0.288861  0  4.049837  0  0  0.302348  0  4.064227  0  0.414704  0  0.095863  0.279804  0  4.03997  0
C  C71  1  0.16447000  0.90317232  0.56203545  1  0  0.301461  0  3.787984  0  0  0.288921  0  4.049909  0  0  0.302402  0  4.064303  0  0.414695  0  0.095857  0.279854  0  4.04005  0
C  C72  1  0.37468466  0.28826917  0.53621565  1  0  -0.185186  0  3.744391  0  0  -0.206045  0  3.998756  0  0  -0.213098  0  4.018392  0  0.04065  0  -0.100981  -0.201636  0  3.985817  0
C  C73  1  0.87468239  0.21172989  0.46378399  1  0  -0.185154  0  3.744436  0  0  -0.205993  0  3.998786  0  0  -0.213047  0  4.018427  0  0.040689  0  -0.100992  -0.201583  0  3.985851  0
C  C74  1  0.62531480  0.71173066  0.46378402  1  0  -0.185138  0  3.744335  0  0  -0.205967  0  3.998698  0  0  -0.213021  0  4.01834  0  0.040651  0  -0.100985  -0.201561  0  3.985764  0
C  C75  1  0.12531808  0.78826994  0.53621641  1  0  -0.185146  0  3.744466  0  0  -0.205985  0  3.998825  0  0  -0.21303  0  4.018452  0  0.040649  0  -0.10099  -0.201571  0  3.985881  0
C  C76  1  0.35618207  0.22308612  0.43799247  1  0  -0.040889  0  3.753829  0  0  -0.064163  0  4.000094  0  0  -0.060453  0  4.018142  0  -0.088064  0  -0.080149  -0.066184  0  3.987276  0
C  C77  1  0.85618079  0.27691465  0.56200683  1  0  -0.040891  0  3.753886  0  0  -0.064171  0  4.000159  0  0  -0.060457  0  4.0182  0  -0.08804  0  -0.080132  -0.066205  0  3.987348  0
C  C78  1  0.64381740  0.77691457  0.56200667  1  0  -0.040961  0  3.753835  0  0  -0.064235  0  4.000096  0  0  -0.060525  0  4.018144  0  -0.088057  0  -0.080175  -0.066259  0  3.987283  0
C  C79  1  0.14382068  0.72308603  0.43799376  1  0  -0.040843  0  3.753848  0  0  -0.064119  0  4.000117  0  0  -0.060411  0  4.018161  0  -0.088013  0  -0.080118  -0.066149  0  3.987305  0
C  C80  1  0.29448900  0.56700368  0.69865639  1  0  0.282443  0  3.781895  0  0  0.273066  0  4.043396  0  0  0.284381  0  4.058512  0  0.456345  0  0.090472  0.265478  0  4.032694  0
C  C81  1  0.79448773  0.93299606  0.30134457  1  0  0.282578  0  3.781904  0  0  0.273231  0  4.043369  0  0  0.284543  0  4.058488  0  0.456343  0  0.090551  0.265637  0  4.032669  0
C  C82  1  0.70551146  0.43299529  0.30134381  1  0  0.282453  0  3.781869  0  0  0.273071  0  4.043379  0  0  0.284381  0  4.058497  0  0.456297  0  0.090494  0.26548  0  4.032683  0
C  C83  1  0.20551073  0.06700462  0.69865675  1  0  0.282437  0  3.781986  0  0  0.273136  0  4.043406  0  0  0.284441  0  4.05853  0  0.456211  0  0.090457  0.265538  0  4.032712  0
C  C84  1  0.37381253  0.66492209  0.72372634  1  0  -0.171929  0  3.732962  0  0  -0.191629  0  3.98201  0  0  -0.19697  0  4.000785  0  -0.134123  0  -0.094272  -0.187938  0  3.968935  0
C  C85  1  0.87380925  0.83507680  0.27627514  1  0  -0.172009  0  3.733014  0  0  -0.19175  0  3.982056  0  0  -0.197094  0  4.000836  0  -0.134101  0  -0.094339  -0.188056  0  3.968979  0
C  C86  1  0.62618593  0.33507689  0.27627531  1  0  -0.171904  0  3.732941  0  0  -0.191609  0  3.981999  0  0  -0.196949  0  4.000776  0  -0.134055  0  -0.094261  -0.187925  0  3.968925  0
C  C87  1  0.12618921  0.16492303  0.72372380  1  0  -0.172003  0  3.733003  0  0  -0.191754  0  3.982053  0  0  -0.197103  0  4.000829  0  -0.134069  0  -0.0943  -0.188063  0  3.968973  0
C  C88  1  0.31578165  0.76803121  0.77526097  1  0  -0.050137  0  3.745232  0  0  -0.073807  0  3.996903  0  0  -0.071182  0  4.014305  0  0.014967  0  -0.079875  -0.074975  0  3.98399  0
C  C89  1  0.81578037  0.73196769  0.22474052  1  0  -0.050058  0  3.745149  0  0  -0.0737  0  3.996854  0  0  -0.07108  0  4.014252  0  0.014956  0  -0.079863  -0.074872  0  3.983937  0
C  C90  1  0.68421782  0.23196777  0.22473923  1  0  -0.050084  0  3.74518  0  0  -0.073735  0  3.996853  0  0  -0.071113  0  4.014249  0  0.014954  0  -0.079874  -0.074905  0  3.983934  0
C  C91  1  0.18421909  0.26803300  0.77525935  1  0  -0.050019  0  3.745053  0  0  -0.073671  0  3.996749  0  0  -0.071042  0  4.014141  0  0.01503  0  -0.079857  -0.07484  0  3.983827  0
C  C92  1  0.17913579  0.77320570  0.80045085  1  0  -0.105117  0  3.764151  0  0  -0.086804  0  4.004155  0  0  -0.094938  0  4.022223  0  -0.015089  0  -0.022977  -0.081179  0  3.990335  0
C  C93  1  0.67913452  0.72679405  0.19954938  1  0  -0.105013  0  3.763998  0  0  -0.086793  0  4.004104  0  0  -0.094908  0  4.022158  0  -0.015174  0  -0.022963  -0.081156  0  3.990283  0
C  C94  1  0.82086467  0.22679243  0.19954915  1  0  -0.105149  0  3.764099  0  0  -0.08688  0  4.004123  0  0  -0.095008  0  4.022188  0  -0.015173  0  -0.022983  -0.081247  0  3.990303  0
C  C95  1  0.32086494  0.27320578  0.80045101  1  0  -0.105109  0  3.764026  0  0  -0.086895  0  4.004161  0  0  -0.095018  0  4.022224  0  -0.015188  0  -0.022984  -0.081255  0  3.990335  0
C  C96  1  0.09941785  0.67464112  0.77026592  1  0  -0.038108  0  3.707007  0  0  -0.060466  0  3.956216  0  0  -0.057603  0  3.972862  0  -0.042668  0  -0.0742  -0.06175  0  3.943716  0
C  C97  1  0.59941758  0.82535777  0.22973412  1  0  -0.038107  0  3.706946  0  0  -0.060426  0  3.95616  0  0  -0.057571  0  3.972807  0  -0.042666  0  -0.074191  -0.061714  0  3.943669  0
C  C98  1  0.90058262  0.32535871  0.22973084  1  0  -0.03811  0  3.706857  0  0  -0.06043  0  3.956079  0  0  -0.057575  0  3.972716  0  -0.042631  0  -0.07421  -0.061714  0  3.94358  0
C  C99  1  0.40058188  0.17464206  0.77026628  1  0  -0.038065  0  3.706878  0  0  -0.060395  0  3.956113  0  0  -0.057531  0  3.972745  0  -0.042787  0  -0.074179  -0.061678  0  3.943608  0
C  C100  1  0.15702521  0.57094815  0.71954304  1  0  -0.177258  0  3.733137  0  0  -0.199696  0  3.987695  0  0  -0.205775  0  4.007088  0  -0.046012  0  -0.092566  -0.195614  0  3.974419  0
C  C101  1  0.65702394  0.92905160  0.28045719  1  0  -0.177331  0  3.733176  0  0  -0.199783  0  3.987729  0  0  -0.205866  0  4.007122  0  -0.046017  0  -0.092587  -0.195695  0  3.974451  0
C  C102  1  0.84297426  0.42905083  0.28045643  1  0  -0.177272  0  3.733129  0  0  -0.199712  0  3.987681  0  0  -0.205789  0  4.007067  0  -0.04599  0  -0.092578  -0.195632  0  3.974405  0
C  C103  1  0.34297352  0.07094823  0.71954321  1  0  -0.177283  0  3.733179  0  0  -0.199742  0  3.98772  0  0  -0.205824  0  4.007106  0  -0.046108  0  -0.092568  -0.19566  0  3.974441  0
C  C104  1  0.12114104  0.88054267  0.86595513  1  0  0.746425  0  3.8574  0  0  0.695788  0  4.152629  0  0  0.733884  0  4.143309  0  1.580715  0  0.238226  0.670361  0  4.161959  0
C  C105  1  0.62113977  0.61945708  0.13404510  1  0  0.746319  0  3.85744  0  0  0.695683  0  4.152684  0  0  0.73378  0  4.143373  0  1.580782  0  0.238177  0.670253  0  4.16204  0
C  C106  1  0.87886043  0.11945716  0.13404526  1  0  0.746267  0  3.857483  0  0  0.695682  0  4.152625  0  0  0.733773  0  4.143323  0  1.580779  0  0.238166  0.67024  0  4.161991  0
C  C107  1  0.37886070  0.38054275  0.86595457  1  0  0.746392  0  3.857385  0  0  0.695759  0  4.152652  0  0  0.733848  0  4.143347  0  1.580788  0  0.238187  0.670318  0  4.162003  0
C  C108  1  0.49629841  0.94094474  0.01117736  1  0  0.564103  0  3.922663  0  0  0.518379  0  4.222135  0  0  0.548307  0  4.220385  0  1.608049  0  0.219868  0.497854  0  4.229077  0
C  C109  1  0.99629714  0.55905416  0.98882340  1  0  0.564053  0  3.922791  0  0  0.518423  0  4.222101  0  0  0.548355  0  4.22035  0  1.581332  0  0.219878  0.497889  0  4.229051  0
C  C110  1  0.50370105  0.05905595  0.98882396  1  0  0.564138  0  3.922605  0  0  0.518466  0  4.222016  0  0  0.548398  0  4.220251  0  1.581718  0  0.219931  0.497938  0  4.228955  0
C  C111  1  0.00370333  0.44094482  0.01117534  1  0  0.564098  0  3.922726  0  0  0.518415  0  4.222107  0  0  0.548342  0  4.220362  0  1.608415  0  0.2199  0.497895  0  4.229049  0
O  O112  1  0.29454621  0.09098210  0.24103611  1  0  -0.698036  0  1.930935  0  0  -0.653218  0  2.166625  0  0  -0.688046  0  2.15535  0  -1.18964  0  -0.393406  -0.63677  0  2.1728  0
O  O113  1  0.79454594  0.40901782  0.75896299  1  0  -0.69803  0  1.930937  0  0  -0.653217  0  2.166618  0  0  -0.688046  0  2.155348  0  -1.189313  0  -0.393407  -0.636768  0  2.1728  0
O  O114  1  0.70545325  0.90901774  0.75896356  1  0  -0.698039  0  1.930871  0  0  -0.653208  0  2.166547  0  0  -0.688038  0  2.155276  0  -1.189589  0  -0.393397  -0.636766  0  2.172733  0
O  O115  1  0.20545252  0.59098201  0.24103595  1  0  -0.698041  0  1.930859  0  0  -0.653219  0  2.166541  0  0  -0.688043  0  2.155278  0  -1.189657  0  -0.393398  -0.636771  0  2.172725  0
O  O116  1  0.25023471  0.24549298  0.18917525  1  0  -0.722839  0  2.03327  0  0  -0.66608  0  2.272009  0  0  -0.699845  0  2.260592  0  -1.198777  0  -0.374559  -0.648723  0  2.278756  0
O  O117  1  0.75023645  0.25450779  0.81082478  1  0  -0.722833  0  2.033298  0  0  -0.66607  0  2.272032  0  0  -0.699831  0  2.260628  0  -1.198703  0  -0.37456  -0.648713  0  2.278787  0
O  O118  1  0.74976576  0.75450771  0.81082462  1  0  -0.72279  0  2.033284  0  0  -0.666052  0  2.272033  0  0  -0.699815  0  2.260616  0  -1.19877  0  -0.374545  -0.648696  0  2.278784  0
O  O119  1  0.24976502  0.74549204  0.18917489  1  0  -0.72284  0  2.033306  0  0  -0.666088  0  2.272044  0  0  -0.699844  0  2.260635  0  -1.198722  0  -0.37456  -0.648729  0  2.278794  0
O  O120  1  0.35841510  0.46306829  0.66006112  1  0  -0.286673  0  2.345539  0  0  -0.218302  0  2.567022  0  0  -0.236722  0  2.568394  0  -1.098874  0  -0.143845  -0.205011  0  2.565204  0
O  O121  1  0.85841584  0.03693077  0.33993996  1  0  -0.286701  0  2.345553  0  0  -0.218339  0  2.567046  0  0  -0.236752  0  2.568401  0  -1.098836  0  -0.143839  -0.205045  0  2.565221  0
O  O122  1  0.64158536  0.53693240  0.33993947  1  0  -0.286642  0  2.345509  0  0  -0.218259  0  2.567016  0  0  -0.236668  0  2.56838  0  -1.098845  0  -0.143829  -0.204961  0  2.565192  0
O  O123  1  0.14158262  0.96306906  0.66006043  1  0  -0.286653  0  2.345533  0  0  -0.218309  0  2.567009  0  0  -0.236717  0  2.568372  0  -1.098849  0  -0.14381  -0.205008  0  2.565189  0
O  O124  1  0.99475860  0.88724510  0.87623260  1  0  -0.759731  0  2.100529  0  0  -0.704459  0  2.370664  0  0  -0.74608  0  2.35371  0  -1.19566  0  -0.423654  -0.686224  0  2.379258  0
O  O125  1  0.49475786  0.61275636  0.12376731  1  0  -0.759715  0  2.100542  0  0  -0.704427  0  2.370659  0  0  -0.746058  0  2.353724  0  -1.195688  0  -0.42363  -0.686202  0  2.379271  0
O  O126  1  0.00524086  0.11275474  0.12376780  1  0  -0.759668  0  2.100572  0  0  -0.704406  0  2.370667  0  0  -0.746024  0  2.353726  0  -1.195665  0  -0.423637  -0.686172  0  2.379277  0
O  O127  1  0.50524260  0.38724433  0.87623184  1  0  -0.759737  0  2.100561  0  0  -0.704447  0  2.370679  0  0  -0.746068  0  2.353751  0  -1.195685  0  -0.423626  -0.686215  0  2.379297  0
O  O128  1  0.20173414  0.95820954  0.91192734  1  0  -0.754079  0  2.048254  0  0  -0.702372  0  2.30897  0  0  -0.74148  0  2.295466  0  -1.21119  0  -0.409082  -0.683896  0  2.315178  0
O  O129  1  0.70173487  0.54179106  0.08807236  1  0  -0.754021  0  2.04827  0  0  -0.702302  0  2.308965  0  0  -0.741412  0  2.29547  0  -1.211169  0  -0.409052  -0.683829  0  2.315189  0
O  O130  1  0.79826433  0.04178944  0.08807140  1  0  -0.753986  0  2.048217  0  0  -0.702289  0  2.308893  0  0  -0.741392  0  2.295397  0  -1.211174  0  -0.409042  -0.683805  0  2.315105  0
O  O131  1  0.29826459  0.45820963  0.91192751  1  0  -0.754048  0  2.048227  0  0  -0.702341  0  2.308945  0  0  -0.741439  0  2.29545  0  -1.211165  0  -0.409055  -0.68386  0  2.315158  0
O  O132  1  0.39100039  0.91954000  0.05490914  1  0  -0.654466  0  2.086193  0  0  -0.598855  0  2.323272  0  0  -0.633275  0  2.312567  0  -1.177728  0  -0.339452  -0.581723  0  2.328565  0
O  O133  1  0.89100213  0.58046061  0.94509056  1  0  -0.654386  0  2.086288  0  0  -0.598802  0  2.323297  0  0  -0.63323  0  2.312611  0  -1.177767  0  -0.339388  -0.581672  0  2.328602  0
O  O134  1  0.60900108  0.08045984  0.94509125  1  0  -0.654514  0  2.08614  0  0  -0.598932  0  2.323199  0  0  -0.633354  0  2.312492  0  -1.177714  0  -0.339486  -0.581799  0  2.328495  0
O  O135  1  0.10900235  0.41954008  0.05490931  1  0  -0.654465  0  2.086141  0  0  -0.598886  0  2.323198  0  0  -0.633303  0  2.312489  0  -1.177742  0  -0.339456  -0.581757  0  2.328482  0
O  O136  1  0.59419177  0.87413644  0.98351100  1  0  -0.663779  0  2.077666  0  0  -0.617855  0  2.329701  0  0  -0.651659  0  2.318138  0  -1.174492  0  -0.374322  -0.602131  0  2.334927  0
O  O137  1  0.09419304  0.62586331  0.01648923  1  0  -0.663826  0  2.077617  0  0  -0.617942  0  2.329615  0  0  -0.651737  0  2.318041  0  -1.174452  0  -0.37439  -0.602212  0  2.334832  0
O  O138  1  0.40580970  0.12586254  0.01648920  1  0  -0.663773  0  2.077667  0  0  -0.61784  0  2.329691  0  0  -0.651647  0  2.318113  0  -1.174893  0  -0.374326  -0.602107  0  2.334889  0
O  O139  1  0.90581043  0.37413909  0.98351031  1  0  -0.663784  0  2.077716  0  0  -0.617865  0  2.329728  0  0  -0.651676  0  2.318184  0  -1.174845  0  -0.374336  -0.602137  0  2.334937  0
O  O140  1  0.11946601  0.89680024  0.10911576  1  0  -0.929428  0  1.840453  0  0  -0.881837  0  2.037845  0  0  -0.912449  0  1.996433  0  -1.298554  0  -0.646857  -0.868965  0  2.060887  0
O  O141  1  0.61946575  0.60319866  0.89088355  1  0  -0.929415  0  1.840479  0  0  -0.88181  0  2.037867  0  0  -0.912443  0  1.996448  0  -1.298559  0  -0.646846  -0.868953  0  2.060907  0
O  O142  1  0.88053445  0.10319789  0.89088278  1  0  -0.92943  0  1.840464  0  0  -0.881829  0  2.037859  0  0  -0.912457  0  1.996445  0  -1.298686  0  -0.64686  -0.868971  0  2.060897  0
O  O143  1  0.38053472  0.39680203  0.10911632  1  0  -0.929418  0  1.840454  0  0  -0.881834  0  2.03783  0  0  -0.91245  0  1.996424  0  -1.298563  0  -0.646854  -0.868967  0  2.060879  0
O  O144  1  0.13844232  0.19020394  0.98065912  1  0  -0.875623  0  1.918239  0  0  -0.82271  0  2.117736  0  0  -0.851536  0  2.086552  0  -1.252528  0  -0.600945  -0.809403  0  2.135782  0
O  O145  1  0.63844305  0.30979597  0.01934071  1  0  -0.875653  0  1.918257  0  0  -0.822731  0  2.117751  0  0  -0.85156  0  2.086567  0  -1.252553  0  -0.600937  -0.80943  0  2.135794  0
O  O146  1  0.86155715  0.80979674  0.01934074  1  0  -0.875655  0  1.918195  0  0  -0.822733  0  2.117695  0  0  -0.851561  0  2.086507  0  -1.252529  0  -0.600963  -0.809428  0  2.135728  0
O  O147  1  0.36155741  0.69020386  0.98065896  1  0  -0.875656  0  1.918254  0  0  -0.822737  0  2.117754  0  0  -0.851554  0  2.086561  0  -1.252532  0  -0.600943  -0.80943  0  2.13579  0
