# generated using pymatgen
data_CdH14Pd(C5N4)2
_symmetry_space_group_name_H-M   'P 1'
_cell_length_a   8.66818281
_cell_length_b   8.77332564
_cell_length_c   11.54892919
_cell_angle_alpha   74.60486933
_cell_angle_beta   73.81123113
_cell_angle_gamma   69.17757921
_symmetry_Int_Tables_number   1
_chemical_formula_structural   CdH14Pd(C5N4)2
_chemical_formula_sum   'Cd2 H28 Pd2 C20 N16'
_cell_volume   774.70861249
_cell_formula_units_Z   2
loop_
 _symmetry_equiv_pos_site_id
 _symmetry_equiv_pos_as_xyz
  1  'x, y, z'
loop_
 _atom_site_type_symbol
 _atom_site_label
 _atom_site_symmetry_multiplicity
 _atom_site_fract_x
 _atom_site_fract_y
 _atom_site_fract_z
 _atom_site_occupancy
 _atom_site_hle17_bader_spin_density
 _atom_site_hle17_ddec_charge
 _atom_site_hle17_ddec_spin_density
 _atom_site_hle17_ddec_sum_bond_order
 _atom_site_hle17_magmom
 _atom_site_hse06_10hf_bader_spin_density
 _atom_site_hse06_10hf_ddec_charge
 _atom_site_hse06_10hf_ddec_spin_density
 _atom_site_hse06_10hf_ddec_sum_bond_order
 _atom_site_hse06_10hf_magmom
 _atom_site_hse06_bader_spin_density
 _atom_site_hse06_ddec_charge
 _atom_site_hse06_ddec_spin_density
 _atom_site_hse06_ddec_sum_bond_order
 _atom_site_hse06_magmom
 _atom_site_pbe_bader_spin_density
 _atom_site_pbe_cm5_charge
 _atom_site_pbe_ddec_charge
 _atom_site_pbe_ddec_spin_density
 _atom_site_pbe_ddec_sum_bond_order
 _atom_site_pbe_magmom
Cd  Cd0  1  0.33975260  0.64774666  0.27037163  1  0  1.06038  0  1.807518  0  0  0.875693  0  2.258373  0  0  0.920564  0  2.218875  0  0  0.772395  0.844296  0  2.285005  0
Cd  Cd1  1  0.66024630  0.35225344  0.72962789  1  0  1.060405  0  1.807476  0  0  0.875726  0  2.258326  0  0  0.920599  0  2.218827  0  0  0.772391  0.844323  0  2.284967  0
H  H2  1  0.07517752  0.92114169  0.37482147  1  0  0.291409  0  0.908752  0  0  0.282181  0  0.965837  0  0  0.287054  0  0.963515  0  0  0.289182  0.278724  0  0.967546  0
H  H3  1  0.92482258  0.07885840  0.62517867  1  0  0.291392  0  0.908767  0  0  0.282163  0  0.965856  0  0  0.287036  0  0.963532  0  0  0.289179  0.278706  0  0.967565  0
H  H4  1  0.17527531  0.00103171  0.24139872  1  0  0.289543  0  0.906699  0  0  0.283835  0  0.956894  0  0  0.288317  0  0.955066  0  0  0.293177  0.280694  0  0.958142  0
H  H5  1  0.82472638  0.99896716  0.75860133  1  0  0.289541  0  0.906702  0  0  0.283835  0  0.956893  0  0  0.288316  0  0.955069  0  0  0.293179  0.280694  0  0.958141  0
H  H6  1  0.10548282  0.61927400  0.49959907  1  0  0.33607  0  0.928277  0  0  0.319667  0  0.993881  0  0  0.326582  0  0.988218  0  0  0.277273  0.31475  0  0.997916  0
H  H7  1  0.89451847  0.38072610  0.50040169  1  0  0.336059  0  0.928299  0  0  0.319647  0  0.993927  0  0  0.326562  0  0.988263  0  0  0.277268  0.31473  0  0.997961  0
H  H8  1  0.29300257  0.48421565  0.51971361  1  0  0.328452  0  0.923184  0  0  0.315587  0  0.984723  0  0  0.320484  0  0.982443  0  0  0.280128  0.312071  0  0.986446  0
H  H9  1  0.70700112  0.51578448  0.48028666  1  0  0.328494  0  0.923133  0  0  0.315622  0  0.984685  0  0  0.320521  0  0.982404  0  0  0.280143  0.312107  0  0.986407  0
H  H10  1  0.17389172  0.43604992  0.45547461  1  0  0.331941  0  0.921176  0  0  0.319784  0  0.979617  0  0  0.325001  0  0.977052  0  0  0.280107  0.316076  0  0.981464  0
H  H11  1  0.82611076  0.56395019  0.54452677  1  0  0.331909  0  0.921192  0  0  0.319769  0  0.979606  0  0  0.324984  0  0.977047  0  0  0.28011  0.316061  0  0.981452  0
H  H12  1  0.45433026  0.70036667  0.01485900  1  0  0.321198  0  0.910624  0  0  0.313926  0  0.963027  0  0  0.318433  0  0.961289  0  0  0.284159  0.310748  0  0.964216  0
H  H13  1  0.54567064  0.29963469  0.98513986  1  0  0.321209  0  0.910602  0  0  0.31394  0  0.963  0  0  0.318447  0  0.961263  0  0  0.284167  0.310761  0  0.96419  0
H  H14  1  0.36773145  0.88894042  0.04775530  1  0  0.336245  0  0.94075  0  0  0.316944  0  1.011928  0  0  0.324307  0  1.005655  0  0  0.27414  0.311735  0  1.016317  0
H  H15  1  0.63227065  0.11106094  0.95224418  1  0  0.336229  0  0.940768  0  0  0.316927  0  1.011949  0  0  0.324292  0  1.005673  0  0  0.27412  0.311718  0  1.016338  0
H  H16  1  0.56425732  0.78349640  0.06111085  1  0  0.328714  0  0.9344  0  0  0.316164  0  0.994313  0  0  0.321285  0  0.991871  0  0  0.275996  0.312528  0  0.996046  0
H  H17  1  0.43574397  0.21650371  0.93888991  1  0  0.32868  0  0.934313  0  0  0.316136  0  0.994227  0  0  0.321257  0  0.991784  0  0  0.275962  0.3125  0  0.995959  0
H  H18  1  0.42786279  0.28304169  0.20472632  1  0  0.07626  0  0.955963  0  0  0.084005  0  1.020941  0  0  0.086255  0  1.019446  0  0  0.109685  0.082354  0  1.022072  0
H  H19  1  0.57213571  0.71695964  0.79527390  1  0  0.076277  0  0.955958  0  0  0.084043  0  1.020915  0  0  0.086262  0  1.019457  0  0  0.109689  0.082361  0  1.022083  0
H  H20  1  0.65984570  0.01519834  0.18710606  1  0  0.11483  0  0.949027  0  0  0.125362  0  1.00754  0  0  0.128429  0  1.006958  0  0  0.105615  0.123159  0  1.008172  0
H  H21  1  0.34015281  0.98480299  0.81289416  1  0  0.114826  0  0.949015  0  0  0.125367  0  1.007519  0  0  0.128435  0  1.006936  0  0  0.105612  0.123165  0  1.008151  0
H  H22  1  0.97160971  0.22767288  0.28934769  1  0  0.107701  0  0.973899  0  0  0.112897  0  1.042801  0  0  0.116681  0  1.041207  0  0  0.101445  0.110203  0  1.044089  0
H  H23  1  0.02839201  0.77232973  0.71064989  1  0  0.107802  0  0.973935  0  0  0.112967  0  1.042857  0  0  0.116753  0  1.041259  0  0  0.101475  0.110274  0  1.044146  0
H  H24  1  0.73343949  0.48922490  0.29011451  1  0  0.069732  0  0.962282  0  0  0.07664  0  1.031187  0  0  0.079684  0  1.027691  0  0  0.108418  0.074409  0  1.033782  0
H  H25  1  0.26655902  0.51077643  0.70988571  1  0  0.069753  0  0.962284  0  0  0.076668  0  1.031178  0  0  0.079712  0  1.027684  0  0  0.108436  0.074439  0  1.03377  0
H  H26  1  0.92256066  0.83291147  0.27139281  1  0  0.075767  0  0.914283  0  0  0.09518  0  0.971641  0  0  0.094987  0  0.972897  0  0  0.108416  0.095349  0  0.97075  0
H  H27  1  0.07743784  0.16708985  0.72860828  1  0  0.075757  0  0.914287  0  0  0.095171  0  0.971633  0  0  0.09498  0  0.972888  0  0  0.108421  0.09534  0  0.970743  0
H  H28  1  0.02548883  0.92557503  0.13128639  1  0  0.084557  0  0.912166  0  0  0.10346  0  0.970015  0  0  0.103544  0  0.971186  0  0  0.112295  0.103389  0  0.969257  0
H  H29  1  0.97451007  0.07442506  0.86871399  1  0  0.084547  0  0.912162  0  0  0.103447  0  0.970008  0  0  0.103531  0  0.97118  0  0  0.112296  0.103377  0  0.969251  0
Pd  Pd30  1  0.00000046  0.50000064  0.99999993  1  0  0.154929  0  3.579392  0  0  0.15308  0  4.125416  0  0  0.15289  0  4.095154  0  0  0.63259  0.156072  0  4.144804  0
Pd  Pd31  1  0.49999970  0.99999943  0.50000128  1  0  0.153818  0  3.565625  0  0  0.156387  0  4.10277  0  0  0.154972  0  4.07629  0  0  0.640245  0.159403  0  4.120361  0
C  C32  1  0.13586614  0.26327880  0.00899592  1  0  0.034815  0  3.54493  0  0  0.015719  0  3.887933  0  0  0.024134  0  3.895111  0  0  -0.032707  0.009707  0  3.882565  0
C  C33  1  0.86413435  0.73672378  0.99100538  1  0  0.034761  0  3.544657  0  0  0.015666  0  3.887661  0  0  0.02408  0  3.894839  0  0  -0.032756  0.009652  0  3.882299  0
C  C34  1  0.12481511  0.52924204  0.10755294  1  0  0.073675  0  3.524105  0  0  0.046635  0  3.861863  0  0  0.057686  0  3.870327  0  0  -0.028098  0.037697  0  3.857205  0
C  C35  1  0.87518420  0.47076054  0.89244687  1  0  0.07378  0  3.524112  0  0  0.046741  0  3.861876  0  0  0.057792  0  3.870337  0  0  -0.028027  0.037812  0  3.857201  0
C  C36  1  0.50145718  0.82489257  0.42149032  1  0  0.087506  0  3.509877  0  0  0.059418  0  3.846034  0  0  0.071213  0  3.854991  0  0  -0.019667  0.050963  0  3.839837  0
C  C37  1  0.49854171  0.17510006  0.57850895  1  0  0.087545  0  3.510025  0  0  0.059446  0  3.846213  0  0  0.071241  0  3.855169  0  0  -0.019606  0.05099  0  3.840015  0
C  C38  1  0.26539841  0.11997873  0.47559221  1  0  0.037123  0  3.524724  0  0  0.01822  0  3.868  0  0  0.026476  0  3.876421  0  0  -0.032747  0.012086  0  3.862304  0
C  C39  1  0.73458738  0.88002873  0.52440335  1  0  0.03733  0  3.523823  0  0  0.018475  0  3.867037  0  0  0.026743  0  3.875452  0  0  -0.032651  0.012333  0  3.861345  0
C  C40  1  0.55235518  0.26600165  0.21965259  1  0  0.106771  0  3.761464  0  0  0.07531  0  4.023447  0  0  0.082604  0  4.04  0  0  0.029137  0.070657  0  4.012263  0
C  C41  1  0.44764372  0.73399843  0.78034867  1  0  0.106857  0  3.761403  0  0  0.075373  0  4.023385  0  0  0.082692  0  4.039942  0  0  0.029206  0.070744  0  4.012202  0
C  C42  1  0.68103851  0.11692943  0.21156033  1  0  -0.174761  0  3.726186  0  0  -0.196488  0  3.985617  0  0  -0.20362  0  4.00425  0  0  -0.095003  -0.19202  0  3.973288  0
C  C43  1  0.31896159  0.88307067  0.78843981  1  0  -0.174732  0  3.726136  0  0  -0.196467  0  3.985567  0  0  -0.203597  0  4.00419  0  0  -0.094999  -0.191998  0  3.973227  0
C  C44  1  0.83693716  0.09798757  0.23623613  1  0  0.12732  0  3.700082  0  0  0.14234  0  3.940916  0  0  0.147057  0  3.963234  0  0  0.008799  0.139366  0  3.925755  0
C  C45  1  0.16306135  0.90201376  0.76376409  1  0  0.127251  0  3.700161  0  0  0.142276  0  3.940987  0  0  0.146992  0  3.96331  0  0  0.008793  0.139303  0  3.92583  0
C  C46  1  0.85536222  0.23361332  0.26671270  1  0  -0.170382  0  3.720823  0  0  -0.190693  0  3.97579  0  0  -0.198919  0  3.996674  0  0  -0.093997  -0.185392  0  3.961813  0
C  C47  1  0.14463630  0.76638802  0.73328666  1  0  -0.170472  0  3.720909  0  0  -0.190762  0  3.975865  0  0  -0.198989  0  3.99675  0  0  -0.094028  -0.185463  0  3.961895  0
C  C48  1  0.72139211  0.37999615  0.26960856  1  0  0.12377  0  3.74775  0  0  0.091094  0  4.010689  0  0  0.098475  0  4.027637  0  0  0.033595  0.086325  0  3.99914  0
C  C49  1  0.27860759  0.62000519  0.73039141  1  0  0.123729  0  3.747713  0  0  0.091057  0  4.01064  0  0  0.098437  0  4.027587  0  0  0.033545  0.086288  0  3.999094  0
C  C50  1  0.97615627  0.93575411  0.22858820  1  0  0.031044  0  3.694053  0  0  -0.032382  0  3.957113  0  0  -0.029308  0  3.969878  0  0  -0.067147  -0.034482  0  3.948288  0
C  C51  1  0.02384383  0.06424599  0.77141194  1  0  0.03114  0  3.694071  0  0  -0.032267  0  3.957093  0  0  -0.029194  0  3.969861  0  0  -0.067106  -0.034371  0  3.948275  0
N  N52  1  0.21791087  0.12341281  0.01483701  1  0  -0.441118  0  2.833863  0  0  -0.388558  0  3.07549  0  0  -0.402853  0  3.08918  0  0  -0.356834  -0.378686  0  3.066035  0
N  N53  1  0.78208964  0.87658977  0.98516342  1  0  -0.441053  0  2.833629  0  0  -0.388487  0  3.07525  0  0  -0.402782  0  3.088939  0  0  -0.356786  -0.37861  0  3.065793  0
N  N54  1  0.19722429  0.54771938  0.17197294  1  0  -0.454614  0  2.972971  0  0  -0.384081  0  3.25254  0  0  -0.403258  0  3.264594  0  0  -0.375996  -0.37042  0  3.244031  0
N  N55  1  0.80277501  0.45228319  0.82802773  1  0  -0.45471  0  2.972999  0  0  -0.384182  0  3.252578  0  0  -0.403358  0  3.264625  0  0  -0.376055  -0.370522  0  3.244066  0
N  N56  1  0.50120135  0.72349520  0.37272684  1  0  -0.473937  0  2.943922  0  0  -0.4031  0  3.219438  0  0  -0.422291  0  3.230206  0  0  -0.381248  -0.389959  0  3.212044  0
N  N57  1  0.49879752  0.27649743  0.62727416  1  0  -0.473969  0  2.943934  0  0  -0.403139  0  3.219463  0  0  -0.422337  0  3.23025  0  0  -0.381315  -0.389999  0  3.21207  0
N  N58  1  0.12644560  0.19120126  0.46244814  1  0  -0.449342  0  2.80409  0  0  -0.39923  0  3.049541  0  0  -0.413213  0  3.062592  0  0  -0.363635  -0.389563  0  3.040759  0
N  N59  1  0.87356844  0.80879274  0.53755121  1  0  -0.449557  0  2.803052  0  0  -0.399486  0  3.04852  0  0  -0.413474  0  3.061569  0  0  -0.363715  -0.389817  0  3.039741  0
N  N60  1  0.57137193  0.39682899  0.24782063  1  0  -0.344705  0  3.255483  0  0  -0.271707  0  3.523854  0  0  -0.2903  0  3.54257  0  0  -0.336742  -0.259038  0  3.510796  0
N  N61  1  0.42862657  0.60317233  0.75218046  1  0  -0.344795  0  3.255471  0  0  -0.271809  0  3.523875  0  0  -0.290399  0  3.542577  0  0  -0.336805  -0.259137  0  3.510804  0
N  N62  1  0.11810598  0.91115173  0.28423560  1  0  -0.636639  0  3.101468  0  0  -0.587505  0  3.344921  0  0  -0.605729  0  3.346078  0  0  -0.625916  -0.574616  0  3.343819  0
N  N63  1  0.88189412  0.08884837  0.71576453  1  0  -0.636655  0  3.101473  0  0  -0.58753  0  3.344922  0  0  -0.605753  0  3.346079  0  0  -0.625924  -0.57464  0  3.343822  0
N  N64  1  0.20983262  0.53222942  0.46199477  1  0  -0.892164  0  2.883808  0  0  -0.844292  0  3.088984  0  0  -0.865661  0  3.078037  0  0  -0.783729  -0.829226  0  3.096473  0
N  N65  1  0.79016828  0.46777193  0.53800495  1  0  -0.892171  0  2.883774  0  0  -0.844315  0  3.088965  0  0  -0.865686  0  3.07802  0  0  -0.783752  -0.829248  0  3.096452  0
N  N66  1  0.44676565  0.77218255  0.07396507  1  0  -0.891557  0  2.895183  0  0  -0.846777  0  3.104179  0  0  -0.868049  0  3.093187  0  0  -0.786917  -0.831636  0  3.1115  0
N  N67  1  0.55323526  0.22781880  0.92603379  1  0  -0.891509  0  2.895056  0  0  -0.846733  0  3.104042  0  0  -0.868005  0  3.093048  0  0  -0.786879  -0.831593  0  3.111361  0
