# generated using pymatgen
data_NiH30C20(NO)4
_symmetry_space_group_name_H-M   'P 1'
_cell_length_a   9.76661466
_cell_length_b   18.32675566
_cell_length_c   18.57230078
_cell_angle_alpha   97.08594391
_cell_angle_beta   105.22687616
_cell_angle_gamma   89.99031944
_symmetry_Int_Tables_number   1
_chemical_formula_structural   NiH30C20(NO)4
_chemical_formula_sum   'Ni4 H120 C80 N16 O16'
_cell_volume   3181.25697083
_cell_formula_units_Z   4
loop_
 _symmetry_equiv_pos_site_id
 _symmetry_equiv_pos_as_xyz
  1  'x, y, z'
loop_
 _atom_site_type_symbol
 _atom_site_label
 _atom_site_symmetry_multiplicity
 _atom_site_fract_x
 _atom_site_fract_y
 _atom_site_fract_z
 _atom_site_occupancy
 _atom_site_pbe_bader_charge
 _atom_site_pbe_bader_spin_density
 _atom_site_pbe_cm5_charge
 _atom_site_pbe_ddec_charge
 _atom_site_pbe_ddec_spin_density
 _atom_site_pbe_ddec_sum_bond_order
 _atom_site_pbe_magmom
Ni  Ni0  1  0.06197311  0.96197627  0.75274772  1  1.077704  1.512702  0.600782  0.692877  1.734438  2.466128  1.502
Ni  Ni1  1  0.30884855  0.53804075  0.24752422  1  1.076759  1.512505  0.601603  0.694052  1.734822  2.466229  1.501
Ni  Ni2  1  0.93802617  0.03802349  0.24725242  1  1.077719  1.512696  0.600754  0.692883  1.734432  2.466283  1.502
Ni  Ni3  1  0.69116124  0.46196068  0.75247706  1  1.076673  1.512497  0.601602  0.693931  1.734808  2.466497  1.501
H  H4  1  0.55622454  0.98051988  0.78206408  1  0.06078  0.00021  0.102285  0.109228  6.2e-05  1.007576  0.0
H  H5  1  0.77300397  0.51985833  0.21833614  1  0.057055  0.000208  0.101737  0.10925  6.1e-05  1.007638  0.0
H  H6  1  0.44379044  0.01947731  0.21795010  1  0.060471  0.00021  0.102284  0.109281  6.2e-05  1.007445  0.0
H  H7  1  0.22701973  0.48010845  0.78166117  1  0.056924  0.000208  0.101718  0.109324  6.1e-05  1.007797  0.0
H  H8  1  0.47463663  0.07308602  0.99062080  1  0.043429  0.000134  0.099872  0.102475  6e-06  1.008522  0.0
H  H9  1  0.48436419  0.42691224  0.00954732  1  0.062939  0.000126  0.100073  0.102515  7e-06  1.009045  0.0
H  H10  1  0.52533200  0.92693787  0.00937515  1  0.042896  0.000134  0.099861  0.102588  6e-06  1.008685  0.0
H  H11  1  0.51565650  0.57306876  0.99044545  1  0.062841  0.000126  0.100027  0.102449  6e-06  1.008999  0.0
H  H12  1  0.86551021  0.22602940  0.72237675  1  0.034623  0.000215  0.097192  0.099177  6.2e-05  1.030995  0.0
H  H13  1  0.14368305  0.27384588  0.27761874  1  0.068951  0.000205  0.097293  0.100223  6.2e-05  1.031657  0.0
H  H14  1  0.13448830  0.77397428  0.27762832  1  0.034783  0.000215  0.097107  0.099071  6.2e-05  1.031008  0.0
H  H15  1  0.85632042  0.72615219  0.72237686  1  0.069164  0.000205  0.097364  0.100302  6.2e-05  1.031606  0.0
H  H16  1  0.02619500  0.13705015  0.76159292  1  0.005118  0.001887  0.098611  0.066759  0.000603  1.000841  0.001
H  H17  1  0.26473445  0.36311858  0.23891829  1  0.016209  0.001887  0.098588  0.067154  0.000604  1.00016  0.001
H  H18  1  0.97378991  0.86295018  0.23840877  1  0.005312  0.001886  0.098648  0.066861  0.000602  1.000746  0.001
H  H19  1  0.73527069  0.63688334  0.76107817  1  0.016361  0.001886  0.098588  0.067137  0.000603  1.000203  0.001
H  H20  1  0.17801609  0.12952389  0.72601000  1  0.029324  0.00021  0.11555  0.096914  2.5e-05  0.962323  0.0
H  H21  1  0.45209366  0.37067805  0.27454190  1  0.055316  0.000213  0.115427  0.096828  2.7e-05  0.961443  0.0
H  H22  1  0.82197583  0.87047978  0.27399480  1  0.029141  0.00021  0.115566  0.096951  2.5e-05  0.962324  0.0
H  H23  1  0.54791345  0.62932006  0.72545750  1  0.055424  0.000213  0.115413  0.096858  2.7e-05  0.961425  0.0
H  H24  1  0.86387656  0.13013232  0.94026971  1  0.036782  0.00041  0.097076  0.093233  0.00018  1.017647  0.0
H  H25  1  0.92425369  0.37044084  0.06057302  1  0.042527  0.000406  0.097465  0.094051  0.00018  1.016699  0.0
H  H26  1  0.13611792  0.86987696  0.05974467  1  0.036767  0.00041  0.097084  0.093261  0.00018  1.017651  0.0
H  H27  1  0.07576282  0.62954490  0.93940244  1  0.043345  0.000405  0.097373  0.094021  0.00018  1.016752  0.0
H  H28  1  0.75265148  0.02084853  0.74643172  1  0.043187  0.000877  0.106891  0.079849  0.000143  0.976245  0.001
H  H29  1  0.00549268  0.48003686  0.25417257  1  0.030637  0.000862  0.106645  0.079567  0.000137  0.977237  0.001
H  H30  1  0.24734899  0.97915630  0.25357876  1  0.042947  0.000877  0.106865  0.07986  0.000144  0.976189  0.001
H  H31  1  0.99452838  0.51992484  0.74581399  1  0.030774  0.000862  0.106808  0.079807  0.000137  0.977195  0.001
H  H32  1  0.84631289  0.10309404  0.79258777  1  0.037042  0.000289  0.09988  0.069381  2.9e-05  1.006175  0.0
H  H33  1  0.05302768  0.39748295  0.20851607  1  0.038903  0.000293  0.100107  0.069722  2.9e-05  1.005642  0.0
H  H34  1  0.15369599  0.89691025  0.20742265  1  0.037079  0.00029  0.099926  0.069381  2.9e-05  1.006141  0.0
H  H35  1  0.94699986  0.60249336  0.79145165  1  0.039654  0.000293  0.100088  0.06977  2.9e-05  1.005752  0.0
H  H36  1  0.36503620  0.92576860  0.83135688  1  0.09071  0.000873  0.114218  0.10504  0.000187  0.961886  0.001
H  H37  1  0.53179864  0.57425103  0.16837258  1  0.093514  0.0009  0.114588  0.105026  0.000197  0.962447  0.001
H  H38  1  0.63496710  0.07423515  0.16865429  1  0.090972  0.000873  0.114229  0.105016  0.000187  0.961859  0.001
H  H39  1  0.46823829  0.42573159  0.83161740  1  0.093294  0.000901  0.114559  0.104932  0.000198  0.962597  0.001
H  H40  1  0.32175107  0.97252182  0.91090914  1  0.062985  0.000414  0.10241  0.082332  3.2e-05  1.005642  0.0
H  H41  1  0.40982304  0.52690732  0.08892619  1  0.053078  0.000397  0.102181  0.0818  2.5e-05  1.00502  0.0
H  H42  1  0.67824160  0.02748953  0.08909467  1  0.063056  0.000414  0.102393  0.082255  3.2e-05  1.005458  0.0
H  H43  1  0.59019494  0.47307431  0.91107261  1  0.053392  0.000396  0.102218  0.081811  2.5e-05  1.00512  0.0
H  H44  1  0.70750487  0.14142480  0.02669556  1  0.091096  5.5e-05  0.102263  0.104452  -2.4e-05  1.022011  0.0
H  H45  1  0.68185941  0.35883792  0.97379798  1  0.051823  5.1e-05  0.101727  0.103638  -2.5e-05  1.021841  0.0
H  H46  1  0.29246732  0.85859585  0.97330501  1  0.090327  5.5e-05  0.102263  0.104454  -2.4e-05  1.022021  0.0
H  H47  1  0.31815023  0.64114736  0.02618461  1  0.052151  5.1e-05  0.101714  0.103529  -2.5e-05  1.021852  0.0
H  H48  1  0.18619429  0.76176692  0.88495905  1  0.055105  7.1e-05  0.092819  0.146033  1e-06  1.001935  0.0
H  H49  1  0.30112951  0.73806874  0.11488665  1  0.029237  7.8e-05  0.093358  0.147161  -0.0  1.000116  0.0
H  H50  1  0.81379527  0.23822679  0.11504050  1  0.054944  7.1e-05  0.092783  0.146022  1e-06  1.001919  0.0
H  H51  1  0.69885914  0.26191158  0.88509467  1  0.029242  7.9e-05  0.093343  0.147225  -0.0  0.999997  0.0
H  H52  1  0.01001837  0.72350339  0.84881582  1  0.030045  0.000902  0.088431  0.129985  0.000361  1.034307  0.0
H  H53  1  0.16101593  0.77640821  0.15098896  1  0.025185  0.000901  0.088056  0.129965  0.000358  1.034545  0.0
H  H54  1  0.98996692  0.27649524  0.15118066  1  0.029674  0.000901  0.088436  0.130006  0.00036  1.0344  0.0
H  H55  1  0.83898711  0.22358319  0.84900030  1  0.02645  0.000899  0.087984  0.129812  0.000358  1.034617  0.0
H  H56  1  0.05652449  0.77694999  0.93786898  1  0.021583  0.000474  0.090886  0.138098  0.000141  1.015215  0.0
H  H57  1  0.11857203  0.72281508  0.06201338  1  0.027632  0.000476  0.091333  0.138643  0.000142  1.014576  0.0
H  H58  1  0.94346132  0.22304864  0.06212804  1  0.021369  0.000474  0.090857  0.138094  0.000141  1.015183  0.0
H  H59  1  0.88140488  0.27716972  0.93797577  1  0.027801  0.000476  0.09137  0.138719  0.000142  1.014601  0.0
H  H60  1  0.12336724  0.14096014  0.57758461  1  0.040252  0.000364  0.101804  0.105266  0.000145  1.000974  0.0
H  H61  1  0.54494126  0.35939971  0.42339435  1  0.044672  0.000365  0.100907  0.104679  0.000148  1.001393  0.0
H  H62  1  0.87661251  0.85903686  0.42241371  1  0.039904  0.000364  0.10182  0.105318  0.000145  1.000982  0.0
H  H63  1  0.45505232  0.64059951  0.57660532  1  0.044638  0.000365  0.100857  0.104653  0.000148  1.001286  0.0
H  H64  1  0.66698810  0.30800133  0.67133630  1  0.097536  0.000944  0.113472  0.105416  0.000216  0.971413  0.001
H  H65  1  0.99553546  0.19204464  0.32829555  1  0.098291  0.000944  0.113253  0.10462  0.000214  0.971027  0.001
H  H66  1  0.33302351  0.69200634  0.32868155  1  0.097494  0.000944  0.113435  0.105259  0.000216  0.971594  0.001
H  H67  1  0.00445876  0.80795344  0.67170141  1  0.098316  0.000944  0.113233  0.104587  0.000214  0.970983  0.001
H  H68  1  0.66594781  0.35094610  0.59142794  1  0.055101  0.000229  0.104175  0.080824  -4e-05  0.986982  0.0
H  H69  1  0.07352969  0.14903035  0.40823710  1  0.045146  0.000232  0.103286  0.08098  -3.9e-05  0.985432  0.0
H  H70  1  0.33404289  0.64905874  0.40858335  1  0.055772  0.000229  0.104184  0.080818  -4e-05  0.987051  0.0
H  H71  1  0.92646661  0.85097158  0.59176005  1  0.045207  0.000232  0.103283  0.08096  -3.9e-05  0.98537  0.0
H  H72  1  0.83330331  0.31380728  0.51422320  1  0.021007  0.000187  0.100149  0.099804  2.8e-05  1.00066  0.0
H  H73  1  0.31798721  0.18609401  0.48589929  1  0.020154  0.000187  0.100329  0.10043  2.8e-05  1.000577  0.0
H  H74  1  0.16669559  0.68620415  0.48578712  1  0.021211  0.000187  0.100107  0.099635  2.8e-05  1.000767  0.0
H  H75  1  0.68199497  0.81390907  0.51410191  1  0.020406  0.000187  0.100339  0.100415  2.8e-05  1.000694  0.0
H  H76  1  0.44310523  0.91043261  0.60345649  1  0.016151  0.002322  0.082924  0.130191  0.00099  1.016469  0.001
H  H77  1  0.83913916  0.58956112  0.39650140  1  0.033628  0.00231  0.082041  0.129006  0.000991  1.017771  0.001
H  H78  1  0.55690536  0.08957923  0.39654291  1  0.015804  0.002322  0.082854  0.130119  0.000991  1.016385  0.001
H  H79  1  0.16083665  0.41047068  0.60351241  1  0.033663  0.00231  0.082064  0.129099  0.000991  1.017547  0.001
H  H80  1  0.30113228  0.84252973  0.57963827  1  0.066023  -0.000134  0.091003  0.143341  -0.000191  1.014532  0.0
H  H81  1  0.72070714  0.65736399  0.42034240  1  0.064118  -0.000133  0.090144  0.142162  -0.000189  1.016001  0.0
H  H82  1  0.69888683  0.15747661  0.42035979  1  0.065873  -0.000134  0.090975  0.143293  -0.000191  1.014528  0.0
H  H83  1  0.27925815  0.34266281  0.57966675  1  0.064337  -0.000133  0.090148  0.142193  -0.000189  1.016223  0.0
H  H84  1  0.42706989  0.84757751  0.66790116  1  0.032266  -0.000131  0.093296  0.146519  -0.000208  0.992227  0.0
H  H85  1  0.75850985  0.65241101  0.33208916  1  0.053855  -0.000136  0.093339  0.146584  -0.000209  0.992327  0.0
H  H86  1  0.57294516  0.15243158  0.33209724  1  0.032385  -0.000131  0.093346  0.146533  -0.000208  0.992276  0.0
H  H87  1  0.24145841  0.34761526  0.66792197  1  0.053779  -0.000136  0.093342  0.146526  -0.000209  0.992304  0.0
H  H88  1  0.01602618  0.22865315  0.48747163  1  0.060872  6.8e-05  0.100902  0.095068  -2.5e-05  1.025154  0.0
H  H89  1  0.52698376  0.27157751  0.51328397  1  0.073355  6.8e-05  0.100458  0.095318  -2.5e-05  1.02417  0.0
H  H90  1  0.98396321  0.77135159  0.51253058  1  0.060976  6.8e-05  0.100877  0.095023  -2.5e-05  1.025196  0.0
H  H91  1  0.47300502  0.72842557  0.48671750  1  0.07334  6.8e-05  0.100449  0.095287  -2.5e-05  1.024165  0.0
H  H92  1  0.23833960  0.07080052  0.83926622  1  0.39377  0.001231  0.294426  0.266591  0.000617  0.942941  0.0
H  H93  1  0.39837701  0.42904066  0.16091713  1  0.37126  0.001346  0.294371  0.266556  0.000639  0.942255  0.0
H  H94  1  0.76164936  0.92920137  0.16072767  1  0.394003  0.00123  0.294404  0.266518  0.000618  0.942984  0.0
H  H95  1  0.60165411  0.57095000  0.83910250  1  0.370694  0.001348  0.294295  0.266486  0.000639  0.942191  0.0
H  H96  1  0.92548683  0.04130926  0.64333396  1  0.406557  0.000875  0.296403  0.275264  0.000355  0.937957  0.0
H  H97  1  0.28187002  0.45884946  0.35712388  1  0.382287  0.000908  0.297498  0.277182  0.000356  0.937069  0.0
H  H98  1  0.07451302  0.95868943  0.35666780  1  0.40655  0.000875  0.296393  0.275314  0.000355  0.937821  0.0
H  H99  1  0.71814144  0.54115085  0.64287578  1  0.382491  0.000908  0.297514  0.277192  0.000357  0.937065  0.0
H  H100  1  0.91179900  0.95557787  0.84052159  1  0.486231  -0.000448  0.28058  0.276061  -0.000434  1.015876  -0.001
H  H101  1  0.07110719  0.54462275  0.15985826  1  0.490223  -0.000439  0.280746  0.275949  -0.000435  1.016643  -0.001
H  H102  1  0.08820192  0.04442138  0.15948133  1  0.486249  -0.000448  0.280597  0.276162  -0.000434  1.015845  -0.001
H  H103  1  0.92890242  0.45536877  0.84014116  1  0.490003  -0.000439  0.280719  0.275932  -0.000435  1.016564  -0.001
H  H104  1  0.09791385  0.02788201  0.65013486  1  0.462274  -0.000427  0.285821  0.278344  -0.00042  1.004582  -0.001
H  H105  1  0.44746708  0.47233538  0.35034959  1  0.492964  -0.000409  0.285744  0.278151  -0.000411  1.003135  -0.001
H  H106  1  0.90208556  0.97212111  0.34987001  1  0.462739  -0.000427  0.285777  0.278488  -0.000419  1.004983  -0.001
H  H107  1  0.55254239  0.52766437  0.64964906  1  0.492639  -0.000409  0.285728  0.27803  -0.000411  1.003181  -0.001
H  H108  1  0.00496011  0.03298680  0.87647892  1  0.405851  0.001036  0.297109  0.277176  0.000489  0.931045  0.0
H  H109  1  0.12792711  0.46697840  0.12409795  1  0.391314  0.001064  0.297029  0.276536  0.000487  0.932316  0.0
H  H110  1  0.99504909  0.96701085  0.12352814  1  0.406001  0.001035  0.297004  0.277089  0.000488  0.931062  0.0
H  H111  1  0.87210639  0.53302458  0.87589512  1  0.391066  0.001066  0.297038  0.276557  0.000487  0.931957  0.0
H  H112  1  0.86872946  0.42297511  0.66237324  1  0.37365  0.001518  0.291575  0.263246  0.000788  0.94926  0.001
H  H113  1  0.20564730  0.07671576  0.33748149  1  0.383955  0.001537  0.291478  0.263392  0.00079  0.94885  0.001
H  H114  1  0.13127720  0.57702743  0.33762925  1  0.373887  0.001517  0.291591  0.263286  0.000788  0.949207  0.001
H  H115  1  0.79435400  0.92328676  0.66251870  1  0.383929  0.001537  0.291488  0.263421  0.00079  0.948845  0.001
H  H116  1  0.88538993  0.37851481  0.73627365  1  0.455222  -0.000496  0.28506  0.274248  -0.000512  1.002465  -0.001
H  H117  1  0.14884810  0.12120573  0.26353244  1  0.456905  -0.000495  0.285457  0.274955  -0.000515  1.001027  -0.001
H  H118  1  0.11462080  0.62148995  0.26373100  1  0.455364  -0.000496  0.28502  0.27418  -0.000512  1.002528  -0.001
H  H119  1  0.85115059  0.87879457  0.73646600  1  0.456912  -0.000494  0.285446  0.274937  -0.000515  1.001065  -0.001
H  H120  1  0.28662598  0.03006972  0.76568915  1  0.456535  -0.000479  0.284655  0.268793  -0.000488  1.005335  -0.001
H  H121  1  0.52030796  0.46986166  0.23437910  1  0.45551  -0.0005  0.285386  0.269911  -0.000494  1.004695  -0.001
H  H122  1  0.71337628  0.96992837  0.23430848  1  0.456563  -0.000479  0.284637  0.268783  -0.000488  1.005396  -0.001
H  H123  1  0.47971839  0.53014373  0.76563198  1  0.455831  -0.000501  0.285184  0.26962  -0.000495  1.004988  -0.001
C  C124  1  0.58981201  0.01577013  0.83599344  1  -0.035833  0.006563  -0.091733  -0.179067  0.003659  3.933336  0.004
C  C125  1  0.75311621  0.48457513  0.16443383  1  -0.033018  0.006556  -0.091456  -0.178903  0.003661  3.928665  0.004
C  C126  1  0.41019094  0.98423472  0.16401853  1  -0.035583  0.006562  -0.091769  -0.179028  0.003659  3.933243  0.004
C  C127  1  0.24689869  0.51539706  0.83555681  1  -0.033768  0.006558  -0.091567  -0.179247  0.003661  3.92907  0.004
C  C128  1  0.99956784  0.17709981  0.65548303  1  -0.042727  0.002287  -0.019695  0.080528  0.000954  4.002183  0.001
C  C129  1  0.34398111  0.32299571  0.34496436  1  0.02025  0.002235  -0.019021  0.081422  0.000966  4.005105  0.001
C  C130  1  0.00041845  0.82290441  0.34452142  1  -0.043505  0.002286  -0.019917  0.080367  0.000953  4.002281  0.001
C  C131  1  0.65601871  0.67700128  0.65503287  1  0.020068  0.002234  -0.019083  0.081479  0.000965  4.004816  0.001
C  C132  1  0.71928284  0.05526724  0.85468240  1  0.005432  0.002727  -0.018091  0.083463  0.001242  3.995618  0.002
C  C133  1  0.86426003  0.44521036  0.14594375  1  -0.020041  0.00274  -0.018134  0.084119  0.001243  3.994598  0.002
C  C134  1  0.28071923  0.94473816  0.14532977  1  0.005851  0.002727  -0.018056  0.083459  0.001242  3.995653  0.002
C  C135  1  0.13576632  0.55476616  0.85404145  1  -0.019486  0.002738  -0.017953  0.084641  0.001242  3.994159  0.002
C  C136  1  0.50119985  0.02122174  0.88466299  1  -0.024945  0.002916  -0.018459  0.082664  0.001281  4.007807  0.002
C  C137  1  0.61604305  0.47891091  0.11558356  1  -0.041411  0.002934  -0.0176  0.084196  0.00128  4.004714  0.002
C  C138  1  0.49879277  0.97878688  0.11534171  1  -0.025552  0.002918  -0.018446  0.082448  0.001283  4.008303  0.002
C  C139  1  0.38396884  0.52106289  0.88440403  1  -0.040254  0.002931  -0.017551  0.084269  0.001278  4.004481  0.002
C  C140  1  0.54360490  0.06790934  0.95268779  1  -0.038003  0.006444  -0.098745  -0.155709  0.00363  4.013436  0.004
C  C141  1  0.59109597  0.43222120  0.04760107  1  -0.063874  0.006448  -0.098598  -0.15659  0.003627  4.015868  0.004
C  C142  1  0.45637649  0.93210856  0.04731233  1  -0.037187  0.006444  -0.098707  -0.155768  0.00363  4.013789  0.004
C  C143  1  0.40890944  0.56776141  0.95238797  1  -0.064023  0.006451  -0.098473  -0.156451  0.003629  4.015688  0.004
C  C144  1  0.89726438  0.22577869  0.67012361  1  -0.034404  0.005904  -0.094161  -0.18641  0.003245  3.948351  0.004
C  C145  1  0.22726242  0.27415054  0.33000623  1  -0.084453  0.005882  -0.09489  -0.189483  0.003218  3.951247  0.004
C  C146  1  0.10272916  0.77422610  0.32988294  1  -0.033907  0.005905  -0.093997  -0.186309  0.003246  3.948317  0.004
C  C147  1  0.77273300  0.72584915  0.66998767  1  -0.105966  0.00589  -0.094887  -0.18954  0.003219  3.950963  0.004
C  C148  1  0.06153171  0.12370988  0.71005542  1  0.352291  0.001165  -0.065927  -0.022339  0.000601  3.937184  0.0
C  C149  1  0.35149521  0.37644503  0.29046605  1  0.275787  0.001228  -0.065253  -0.021135  0.000584  3.935534  0.0
C  C150  1  0.93845303  0.87628934  0.28994492  1  0.352486  0.001166  -0.065878  -0.022265  0.000601  3.937097  0.0
C  C151  1  0.64851034  0.62355804  0.70953421  1  0.275599  0.001228  -0.065234  -0.02114  0.000584  3.935476  0.0
C  C152  1  0.83692304  0.27575784  0.62025710  1  -0.071173  0.002733  -0.018805  0.081087  0.001192  4.008376  0.002
C  C153  1  0.21638908  0.22408797  0.37973106  1  -0.050199  0.002761  -0.018241  0.082529  0.001213  4.007812  0.002
C  C154  1  0.16307740  0.72424644  0.37975332  1  -0.070458  0.002734  -0.018815  0.080923  0.001193  4.008174  0.002
C  C155  1  0.78360215  0.77591228  0.62026291  1  -0.028699  0.002753  -0.018331  0.082518  0.001213  4.007565  0.002
C  C156  1  0.76183779  0.09988866  0.92425549  1  -0.072633  0.006396  -0.09804  -0.146218  0.003674  4.005197  0.004
C  C157  1  0.83790342  0.40057244  0.07639839  1  -0.062146  0.006373  -0.099115  -0.148255  0.003669  4.004724  0.004
C  C158  1  0.23815492  0.90012275  0.07575388  1  -0.072813  0.006394  -0.09816  -0.146433  0.003673  4.00557  0.004
C  C159  1  0.16210752  0.59941228  0.92358331  1  -0.062618  0.006378  -0.099054  -0.148335  0.003672  4.004694  0.004
C  C160  1  0.81331851  0.04829636  0.80161366  1  0.26905  0.00143  -0.06533  -0.014432  0.000831  3.946276  0.0
C  C161  1  0.01118264  0.45225977  0.19914445  1  0.292799  0.001433  -0.065028  -0.015074  0.000825  3.946199  0.0
C  C162  1  0.18668430  0.95170792  0.19839702  1  0.268942  0.001429  -0.065204  -0.014256  0.00083  3.946281  0.0
C  C163  1  0.98884177  0.54771728  0.80083987  1  0.291711  0.001432  -0.065217  -0.015608  0.000826  3.946658  0.0
C  C164  1  0.02254284  0.83961198  0.84413620  1  1.573578  -0.00093  0.193824  0.65596  -0.001699  4.161733  -0.002
C  C165  1  0.17831509  0.66036386  0.15589591  1  1.56112  -0.000932  0.194924  0.656186  -0.001698  4.160936  -0.002
C  C166  1  0.97745186  0.16038556  0.15586123  1  1.573601  -0.00093  0.193899  0.656104  -0.001699  4.161501  -0.002
C  C167  1  0.82168015  0.33962708  0.84410060  1  1.560962  -0.00093  0.195129  0.656586  -0.001698  4.160215  -0.002
C  C168  1  0.35945769  0.98052282  0.86171001  1  0.252878  0.000875  -0.07215  -0.036023  0.000329  3.927737  -0.001
C  C169  1  0.49671140  0.51932614  0.13825759  1  0.266978  0.00085  -0.072272  -0.035945  0.000325  3.928134  -0.001
C  C170  1  0.64054674  0.01948307  0.13829694  1  0.252665  0.000873  -0.072133  -0.035768  0.000328  3.927494  -0.001
C  C171  1  0.50330965  0.48065546  0.86173890  1  0.266353  0.000851  -0.072443  -0.036088  0.000325  3.928223  -0.001
C  C172  1  0.67411918  0.10655822  0.97284290  1  -0.098491  -0.001199  -0.097045  -0.079743  -0.001635  4.042395  -0.001
C  C173  1  0.70185563  0.39374117  0.02762344  1  -0.04762  -0.001184  -0.096718  -0.078323  -0.001626  4.04123  -0.001
C  C174  1  0.32586086  0.89345750  0.02715899  1  -0.097115  -0.001198  -0.097077  -0.079728  -0.001635  4.042441  -0.001
C  C175  1  0.29815068  0.60624356  0.97235895  1  -0.048323  -0.001184  -0.096721  -0.078214  -0.001627  4.041389  -0.001
C  C176  1  0.27593693  0.93437535  0.65947791  1  1.519733  -0.000718  0.191489  0.656841  -0.001591  4.165519  -0.002
C  C177  1  0.61608476  0.56550741  0.34045145  1  1.518091  -0.000674  0.192283  0.659413  -0.001595  4.164229  -0.002
C  C178  1  0.72406841  0.06562605  0.34052093  1  1.520454  -0.000721  0.19138  0.656812  -0.001592  4.165763  -0.002
C  C179  1  0.38389996  0.43451171  0.65955882  1  1.548068  -0.000757  0.192324  0.659627  -0.001594  4.164269  -0.002
C  C180  1  0.07419528  0.77167932  0.88142225  1  -0.078202  0.00658  -0.250461  -0.518847  0.003994  3.936183  0.005
C  C181  1  0.19266961  0.72818282  0.11846016  1  -0.052883  0.006565  -0.251309  -0.520657  0.003999  3.935824  0.005
C  C182  1  0.92579465  0.22831766  0.11857457  1  -0.07747  0.006579  -0.25038  -0.518862  0.003994  3.936236  0.005
C  C183  1  0.80731793  0.27180251  0.88152690  1  -0.053924  0.006564  -0.251267  -0.520766  0.003999  3.935624  0.005
C  C184  1  0.04236499  0.17834999  0.58911433  1  -0.021283  0.005821  -0.09561  -0.147015  0.003375  3.983892  0.003
C  C185  1  0.45258140  0.32185379  0.41155770  1  -0.074536  0.005796  -0.094879  -0.14668  0.003348  3.985867  0.003
C  C186  1  0.95761727  0.82165255  0.41088802  1  -0.021086  0.005821  -0.095491  -0.146892  0.003375  3.984049  0.003
C  C187  1  0.54741487  0.67814759  0.58843938  1  -0.074424  0.005797  -0.094809  -0.146758  0.003348  3.985533  0.003
C  C188  1  0.73596414  0.33135963  0.64132307  1  0.272654  0.000658  -0.071744  -0.035744  0.000159  3.937052  -0.001
C  C189  1  0.09423788  0.16855082  0.35843626  1  0.26059  0.000666  -0.071708  -0.035412  0.000169  3.932763  -0.001
C  C190  1  0.26404124  0.66864299  0.35868579  1  0.271439  0.000659  -0.071735  -0.035518  0.00016  3.937255  -0.001
C  C191  1  0.90575616  0.83145113  0.64156183  1  0.260595  0.000666  -0.071669  -0.035388  0.000169  3.932614  -0.001
C  C192  1  0.87978327  0.27559923  0.55402799  1  0.014714  0.006042  -0.096659  -0.150287  0.003429  4.002088  0.004
C  C193  1  0.32494016  0.22433172  0.44616005  1  -0.046607  0.006005  -0.095656  -0.150687  0.003397  4.003038  0.004
C  C194  1  0.12021072  0.72440944  0.44598146  1  0.014332  0.006043  -0.096665  -0.149997  0.00343  4.001723  0.004
C  C195  1  0.67504676  0.77567185  0.55383620  1  -0.046998  0.006006  -0.095599  -0.150661  0.003397  4.003062  0.004
C  C196  1  0.36827813  0.88098861  0.62537569  1  -0.05832  0.006461  -0.253389  -0.51645  0.004063  3.930395  0.005
C  C197  1  0.74230784  0.61894949  0.37459633  1  -0.090191  0.006442  -0.252314  -0.515032  0.004053  3.932787  0.005
C  C198  1  0.63173318  0.11901993  0.37462318  1  -0.058277  0.006463  -0.253327  -0.516256  0.004063  3.930185  0.005
C  C199  1  0.25766492  0.38107954  0.62541634  1  -0.120195  0.006522  -0.252325  -0.515114  0.004052  3.932765  0.005
C  C200  1  0.98230348  0.22729651  0.53873502  1  -0.076442  -0.000877  -0.091237  -0.067978  -0.001286  4.044397  -0.001
C  C201  1  0.44253938  0.27281039  0.46180273  1  -0.019172  -0.000892  -0.091658  -0.068429  -0.001274  4.043312  -0.001
C  C202  1  0.01768620  0.77270936  0.46126976  1  -0.076642  -0.000877  -0.091219  -0.068005  -0.001286  4.044362  -0.001
C  C203  1  0.55745561  0.72719210  0.53819529  1  -0.019275  -0.000892  -0.091624  -0.068271  -0.001274  4.043217  -0.001
N  N204  1  0.25047674  0.02048663  0.81137101  1  -1.104928  0.069116  -0.626184  -0.554798  0.0398  3.437503  0.059
N  N205  1  0.43835396  0.47938255  0.18873285  1  -1.077264  0.069098  -0.628056  -0.556783  0.039868  3.436551  0.059
N  N206  1  0.74951609  0.97951255  0.18862567  1  -1.105371  0.069115  -0.626151  -0.554693  0.039799  3.437767  0.059
N  N207  1  0.56167378  0.52061180  0.81127355  1  -1.076911  0.069098  -0.627715  -0.556245  0.039868  3.436376  0.059
N  N208  1  0.02493978  0.04553345  0.67942113  1  -1.117365  0.070527  -0.623929  -0.574241  0.040256  3.413565  0.061
N  N209  1  0.34531852  0.45462388  0.32105807  1  -1.108194  0.070485  -0.624792  -0.57674  0.040288  3.412184  0.061
N  N210  1  0.97505587  0.95446742  0.32057968  1  -1.117651  0.070525  -0.623882  -0.574735  0.040254  3.413608  0.061
N  N211  1  0.65469013  0.54537588  0.67894193  1  -1.108099  0.070492  -0.624799  -0.576619  0.040292  3.4121  0.061
N  N212  1  0.81213793  0.39647833  0.69120072  1  -1.088943  0.063978  -0.623122  -0.555812  0.036846  3.403271  0.055
N  N213  1  0.12046732  0.10333691  0.30860897  1  -1.083096  0.063926  -0.622598  -0.55634  0.036799  3.399679  0.055
N  N214  1  0.18787167  0.60352811  0.30880616  1  -1.089236  0.063988  -0.623073  -0.5558  0.036849  3.403437  0.055
N  N215  1  0.87953195  0.89666449  0.69139014  1  -1.083143  0.063917  -0.622608  -0.55638  0.036794  3.399769  0.055
N  N216  1  0.94171797  0.00591988  0.82760164  1  -1.133768  0.069518  -0.624647  -0.576034  0.039657  3.41257  0.06
N  N217  1  0.11376876  0.49427851  0.17293801  1  -1.124473  0.069565  -0.625468  -0.575573  0.039683  3.41632  0.06
N  N218  1  0.05828890  0.99408050  0.17240426  1  -1.134103  0.069515  -0.624622  -0.576099  0.039655  3.412574  0.06
N  N219  1  0.88624592  0.50571239  0.82705566  1  -1.123979  0.069579  -0.625426  -0.575485  0.039693  3.416159  0.06
O  O220  1  0.89335636  0.85569518  0.83743509  1  -1.205613  -0.000323  -0.363693  -0.602788  -0.001308  2.076185  0.0
O  O221  1  0.05580020  0.64436900  0.16263413  1  -1.197596  -0.000315  -0.364468  -0.603785  -0.001304  2.074555  0.0
O  O222  1  0.10664043  0.14430008  0.16255558  1  -1.205613  -0.000323  -0.363795  -0.602946  -0.001308  2.07603  0.0
O  O223  1  0.94418723  0.35562080  0.83735968  1  -1.197752  -0.000316  -0.364576  -0.603982  -0.001305  2.074583  0.0
O  O224  1  0.29410834  0.00314766  0.65954369  1  -1.188739  6e-06  -0.368438  -0.616556  -0.001118  2.065083  0.0
O  O225  1  0.63441056  0.49674626  0.34007346  1  -1.190664  -6e-06  -0.368229  -0.617038  -0.001127  2.06568  0.0
O  O226  1  0.70588121  0.99685916  0.34044889  1  -1.1889  4e-06  -0.368412  -0.616666  -0.00112  2.06564  0.0
O  O227  1  0.36558070  0.50327741  0.65994940  1  -1.190868  -5e-06  -0.368275  -0.617248  -0.001126  2.065737  0.0
O  O228  1  0.11228019  0.87497268  0.82111936  1  -1.159896  0.068423  -0.322181  -0.548287  0.038474  2.252426  0.064
O  O229  1  0.29100394  0.62500995  0.17900011  1  -1.156661  0.068495  -0.322388  -0.547306  0.038594  2.252283  0.064
O  O230  1  0.88772261  0.12502712  0.17888335  1  -1.15995  0.068418  -0.322203  -0.548308  0.038471  2.252461  0.064
O  O231  1  0.70899323  0.37498427  0.82099531  1  -1.156707  0.068498  -0.322457  -0.547431  0.038597  2.252138  0.064
O  O232  1  0.18503164  0.90505692  0.68698134  1  -1.157256  0.071174  -0.328776  -0.558175  0.040124  2.272645  0.066
O  O233  1  0.49753948  0.59483518  0.31321008  1  -1.159039  0.07109  -0.328611  -0.559221  0.04013  2.272904  0.066
O  O234  1  0.81498028  0.09494612  0.31301675  1  -1.157434  0.071183  -0.328664  -0.558082  0.04013  2.272623  0.066
O  O235  1  0.50243908  0.40517999  0.68679134  1  -1.158888  0.071077  -0.328645  -0.559225  0.040119  2.272827  0.066
