# generated using pymatgen
data_CuH6C9SN
_symmetry_space_group_name_H-M   'P 1'
_cell_length_a   7.89997843
_cell_length_b   10.84165459
_cell_length_c   18.94900000
_cell_angle_alpha   90.00000000
_cell_angle_beta   90.00000000
_cell_angle_gamma   110.12813467
_symmetry_Int_Tables_number   1
_chemical_formula_structural   CuH6C9SN
_chemical_formula_sum   'Cu8 H48 C72 S8 N8'
_cell_volume   1523.83817725
_cell_formula_units_Z   8
loop_
 _symmetry_equiv_pos_site_id
 _symmetry_equiv_pos_as_xyz
  1  'x, y, z'
loop_
 _atom_site_type_symbol
 _atom_site_label
 _atom_site_symmetry_multiplicity
 _atom_site_fract_x
 _atom_site_fract_y
 _atom_site_fract_z
 _atom_site_occupancy
 _atom_site_hle17_bader_spin_density
 _atom_site_hle17_ddec_charge
 _atom_site_hle17_ddec_spin_density
 _atom_site_hle17_ddec_sum_bond_order
 _atom_site_hle17_magmom
 _atom_site_hse06_10hf_bader_spin_density
 _atom_site_hse06_10hf_ddec_charge
 _atom_site_hse06_10hf_ddec_spin_density
 _atom_site_hse06_10hf_ddec_sum_bond_order
 _atom_site_hse06_10hf_magmom
 _atom_site_hse06_bader_spin_density
 _atom_site_hse06_ddec_charge
 _atom_site_hse06_ddec_spin_density
 _atom_site_hse06_ddec_sum_bond_order
 _atom_site_hse06_magmom
 _atom_site_pbe_bader_charge
 _atom_site_pbe_bader_spin_density
 _atom_site_pbe_cm5_charge
 _atom_site_pbe_ddec_charge
 _atom_site_pbe_ddec_spin_density
 _atom_site_pbe_ddec_sum_bond_order
 _atom_site_pbe_magmom
Cu  Cu0  1  0.62340459  0.51842306  0.44890654  1  0  0.264164  0  2.313518  0  0  0.195713  0  2.816858  0  0  0.190853  0  2.772386  0  0.498125  0  0.367745  0.201439  0  2.845158  0
Cu  Cu1  1  0.37659596  0.98157821  0.94890654  1  0  0.264189  0  2.313561  0  0  0.195735  0  2.816895  0  0  0.190907  0  2.772428  0  0.498174  0  0.367771  0.20146  0  2.84519  0
Cu  Cu2  1  0.37659236  0.48157844  0.55109346  1  0  0.264158  0  2.313576  0  0  0.195686  0  2.816916  0  0  0.190859  0  2.772416  0  0.498156  0  0.367741  0.201414  0  2.845213  0
Cu  Cu3  1  0.62340419  0.01841936  0.05109241  1  0  0.264158  0  2.313582  0  0  0.195695  0  2.816923  0  0  0.190865  0  2.772477  0  0.498105  0  0.367748  0.20142  0  2.84522  0
Cu  Cu4  1  0.84649755  0.41056516  0.50959787  1  0  0.260648  0  2.344326  0  0  0.192777  0  2.849785  0  0  0.189523  0  2.803853  0  0.488762  0  0.367521  0.197795  0  2.87908  0
Cu  Cu5  1  0.15350305  0.08943854  0.00959945  1  0  0.260626  0  2.344336  0  0  0.192755  0  2.849786  0  0  0.189465  0  2.80383  0  0.488824  0  0.367521  0.197776  0  2.879079  0
Cu  Cu6  1  0.15350172  0.58944125  0.49040213  1  0  0.260634  0  2.344355  0  0  0.192762  0  2.849806  0  0  0.18948  0  2.803879  0  0.488782  0  0.367496  0.197784  0  2.879096  0
Cu  Cu7  1  0.84650011  0.91056002  0.99040160  1  0  0.260648  0  2.34432  0  0  0.192784  0  2.849778  0  0  0.189482  0  2.803826  0  0.488718  0  0.367526  0.197807  0  2.879068  0
H  H8  1  0.18134979  0.53141387  0.32875561  1  0  0.09409  0  0.965024  0  0  0.105447  0  1.029667  0  0  0.108428  0  1.028402  0  0.053529  0  0.093526  0.103282  0  1.030661  0
H  H9  1  0.81865190  0.96858445  0.82875402  1  0  0.093998  0  0.965091  0  0  0.10532  0  1.029744  0  0  0.108302  0  1.028477  0  0.053578  0  0.09348  0.103159  0  1.030736  0
H  H10  1  0.81865095  0.46858763  0.67124492  1  0  0.093973  0  0.965119  0  0  0.105313  0  1.029751  0  0  0.108294  0  1.028486  0  0.053559  0  0.093468  0.103152  0  1.030742  0
H  H11  1  0.18135112  0.03141115  0.17124545  1  0  0.094003  0  0.965087  0  0  0.10533  0  1.029741  0  0  0.108313  0  1.028474  0  0.053555  0  0.093488  0.10317  0  1.030729  0
H  H12  1  0.14651531  0.38562583  0.22440551  1  0  0.082009  0  0.971892  0  0  0.09489  0  1.031899  0  0  0.097122  0  1.031513  0  0.061005  0  0.096463  0.093333  0  1.032244  0
H  H13  1  0.85348516  0.11437492  0.72440287  1  0  0.081997  0  0.971823  0  0  0.094861  0  1.031866  0  0  0.097096  0  1.031474  0  0.060997  0  0.096432  0.093297  0  1.032215  0
H  H14  1  0.85348611  0.61437174  0.77559344  1  0  0.082026  0  0.971902  0  0  0.094886  0  1.031928  0  0  0.09712  0  1.031535  0  0.061043  0  0.096458  0.093324  0  1.032272  0
H  H15  1  0.14651466  0.88562462  0.27559607  1  0  0.081993  0  0.971831  0  0  0.094868  0  1.031859  0  0  0.097101  0  1.031469  0  0.060995  0  0.096449  0.09331  0  1.032205  0
H  H16  1  0.84158914  0.24456593  0.18356905  1  0  0.10082  0  0.973135  0  0  0.108251  0  1.04164  0  0  0.11117  0  1.041331  0  0.086958  0  0.091613  0.105961  0  1.042227  0
H  H17  1  0.15842091  0.25544170  0.68356853  1  0  0.100787  0  0.973121  0  0  0.108209  0  1.04165  0  0  0.111129  0  1.04134  0  0.087292  0  0.091587  0.10592  0  1.042235  0
H  H18  1  0.15840954  0.75543656  0.81643200  1  0  0.100828  0  0.973106  0  0  0.108247  0  1.041632  0  0  0.111178  0  1.041309  0  0.086859  0  0.091603  0.105956  0  1.042221  0
H  H19  1  0.84158329  0.74456176  0.31643200  1  0  0.100831  0  0.97307  0  0  0.108245  0  1.04161  0  0  0.111164  0  1.041299  0  0.087312  0  0.091612  0.105955  0  1.042197  0
H  H20  1  0.50703744  0.16877835  0.20005963  1  0  0.10017  0  0.953988  0  0  0.110225  0  1.018682  0  0  0.112915  0  1.017239  0  0.091356  0  0.10033  0.108182  0  1.019871  0
H  H21  1  0.49296869  0.33122633  0.70006174  1  0  0.100153  0  0.95393  0  0  0.110213  0  1.018617  0  0  0.112904  0  1.017172  0  0.091463  0  0.100305  0.108179  0  1.019797  0
H  H22  1  0.49295550  0.83122806  0.79993878  1  0  0.100203  0  0.953954  0  0  0.110244  0  1.01866  0  0  0.112941  0  1.017209  0  0.091412  0  0.10032  0.108186  0  1.019862  0
H  H23  1  0.50703792  0.66877419  0.29993878  1  0  0.100205  0  0.953986  0  0  0.110274  0  1.018644  0  0  0.112964  0  1.0172  0  0.091367  0  0.100344  0.108228  0  1.019835  0
H  H24  1  0.24125897  0.18868698  0.26654599  1  0  0.099533  0  0.966084  0  0  0.111715  0  1.024944  0  0  0.114465  0  1.025125  0  0.055843  0  0.102837  0.109722  0  1.025072  0
H  H25  1  0.75874517  0.31131082  0.76654810  1  0  0.099583  0  0.966083  0  0  0.111775  0  1.024926  0  0  0.114524  0  1.025105  0  0.056135  0  0.102848  0.109782  0  1.025054  0
H  H26  1  0.75873835  0.81132336  0.73345084  1  0  0.099546  0  0.966021  0  0  0.111685  0  1.024918  0  0  0.114434  0  1.025099  0  0.055859  0  0.102817  0.109693  0  1.025044  0
H  H27  1  0.24125773  0.68868184  0.23345031  1  0  0.099533  0  0.966176  0  0  0.111715  0  1.02502  0  0  0.114465  0  1.025201  0  0.055841  0  0.102828  0.109725  0  1.025142  0
H  H28  1  0.29820346  0.34890303  0.36649744  1  0  0.067432  0  0.947139  0  0  0.07771  0  1.016579  0  0  0.081257  0  1.011273  0  0.074884  0  0.108667  0.074889  0  1.020743  0
H  H29  1  0.70179549  0.15109183  0.86649902  1  0  0.067402  0  0.947154  0  0  0.077681  0  1.016599  0  0  0.081229  0  1.011293  0  0.074844  0  0.108663  0.074859  0  1.020763  0
H  H30  1  0.70179361  0.65110142  0.63350045  1  0  0.06746  0  0.947103  0  0  0.077706  0  1.016582  0  0  0.081253  0  1.011278  0  0.074924  0  0.108671  0.074885  0  1.020745  0
H  H31  1  0.29820361  0.84890083  0.13349992  1  0  0.067452  0  0.94711  0  0  0.077696  0  1.01659  0  0  0.081242  0  1.011285  0  0.075278  0  0.108656  0.074873  0  1.020755  0
H  H32  1  0.19075786  0.18590001  0.51660879  1  0  0.09128  0  0.966101  0  0  0.101889  0  1.033165  0  0  0.105265  0  1.031126  0  0.042799  0  0.092051  0.099498  0  1.034514  0
H  H33  1  0.80924076  0.31409681  0.01660668  1  0  0.091259  0  0.966115  0  0  0.101862  0  1.033189  0  0  0.105238  0  1.031151  0  0.043209  0  0.092043  0.099469  0  1.034541  0
H  H34  1  0.80923850  0.81409756  0.48339332  1  0  0.091286  0  0.966121  0  0  0.101891  0  1.033192  0  0  0.105268  0  1.031151  0  0.043235  0  0.092067  0.099506  0  1.034536  0
H  H35  1  0.19076366  0.68590174  0.98339332  1  0  0.091296  0  0.966119  0  0  0.101901  0  1.033187  0  0  0.105276  0  1.031148  0  0.042851  0  0.092075  0.099515  0  1.034531  0
H  H36  1  0.06942122  0.97985907  0.44616919  1  0  0.085174  0  0.966024  0  0  0.099899  0  1.024269  0  0  0.101877  0  1.024174  0  0.063435  0  0.09859  0.098698  0  1.023826  0
H  H37  1  0.93057575  0.52013729  0.94616972  1  0  0.085184  0  0.965948  0  0  0.099914  0  1.024195  0  0  0.101891  0  1.024099  0  0.063468  0  0.098591  0.098712  0  1.023752  0
H  H38  1  0.93057813  0.02013949  0.55383134  1  0  0.085251  0  0.965957  0  0  0.099917  0  1.024267  0  0  0.101894  0  1.024171  0  0.063436  0  0.098609  0.098721  0  1.023825  0
H  H39  1  0.06942500  0.47986421  0.05383186  1  0  0.085211  0  0.965966  0  0  0.099915  0  1.024231  0  0  0.101891  0  1.024136  0  0.063492  0  0.098602  0.098717  0  1.023788  0
H  H40  1  0.27733627  0.89215342  0.38134413  1  0  0.096103  0  0.950484  0  0  0.108508  0  1.011582  0  0  0.111602  0  1.010219  0  0.067792  0  0.098354  0.105208  0  1.014603  0
H  H41  1  0.72266981  0.60784883  0.88134519  1  0  0.096142  0  0.950408  0  0  0.108541  0  1.011505  0  0  0.111639  0  1.010137  0  0.067789  0  0.098359  0.105241  0  1.014525  0
H  H42  1  0.72267047  0.10785004  0.61865534  1  0  0.096127  0  0.950412  0  0  0.108506  0  1.011538  0  0  0.111604  0  1.010171  0  0.067752  0  0.098342  0.105207  0  1.014558  0
H  H43  1  0.27733047  0.39215169  0.11865692  1  0  0.096052  0  0.950503  0  0  0.108477  0  1.011583  0  0  0.111574  0  1.010215  0  0.067776  0  0.098342  0.105176  0  1.014603  0
H  H44  1  0.58980392  0.92535445  0.33981846  1  0  0.08778  0  0.979436  0  0  0.099921  0  1.041223  0  0  0.101733  0  1.040825  0  0.101308  0  0.099369  0.098862  0  1.041036  0
H  H45  1  0.41019639  0.57464092  0.83981899  1  0  0.087762  0  0.979531  0  0  0.099873  0  1.041348  0  0  0.101712  0  1.040906  0  0.101362  0  0.099351  0.098815  0  1.041164  0
H  H46  1  0.41019763  0.07464607  0.66018418  1  0  0.087774  0  0.979527  0  0  0.099936  0  1.041304  0  0  0.101728  0  1.040915  0  0.101254  0  0.09938  0.098889  0  1.041103  0
H  H47  1  0.58980111  0.42535370  0.16018260  1  0  0.0878  0  0.979471  0  0  0.099958  0  1.041252  0  0  0.101754  0  1.040854  0  0.101277  0  0.099391  0.098899  0  1.041064  0
H  H48  1  0.91911608  0.05880640  0.34256900  1  0  0.097063  0  0.968541  0  0  0.1083  0  1.028959  0  0  0.11037  0  1.030391  0  0.086146  0  0.101335  0.106834  0  1.028239  0
H  H49  1  0.08088899  0.44119337  0.84256900  1  0  0.097069  0  0.96852  0  0  0.108306  0  1.028937  0  0  0.110376  0  1.030369  0  0.086201  0  0.101341  0.10684  0  1.028218  0
H  H50  1  0.08088745  0.94120100  0.65743205  1  0  0.097066  0  0.968516  0  0  0.10828  0  1.028955  0  0  0.110351  0  1.030388  0  0.086144  0  0.101306  0.106814  0  1.028237  0
H  H51  1  0.91911023  0.55880224  0.15743100  1  0  0.097098  0  0.968527  0  0  0.108322  0  1.028946  0  0  0.110391  0  1.030381  0  0.0862  0  0.101331  0.106855  0  1.028228  0
H  H52  1  0.02247644  0.26094492  0.41889123  1  0  0.063386  0  0.948487  0  0  0.07295  0  1.019923  0  0  0.076392  0  1.014602  0  0.102101  0  0.107124  0.07021  0  1.024115  0
H  H53  1  0.97752310  0.23905387  0.91889123  1  0  0.063387  0  0.948439  0  0  0.072948  0  1.019881  0  0  0.076391  0  1.014559  0  0.1021  0  0.107109  0.070207  0  1.024074  0
H  H54  1  0.97751869  0.73906346  0.58110771  1  0  0.063387  0  0.948354  0  0  0.072943  0  1.019816  0  0  0.076386  0  1.014494  0  0.102163  0  0.107098  0.070202  0  1.024012  0
H  H55  1  0.02247912  0.76094272  0.08111035  1  0  0.063402  0  0.948432  0  0  0.072951  0  1.019883  0  0  0.076393  0  1.014562  0  0.10218  0  0.107127  0.07021  0  1.024076  0
C  C56  1  0.89866001  0.48349307  0.34567365  1  0  0.041484  0  3.744963  0  0  0.05572  0  3.994871  0  0  0.058055  0  4.017827  0  -0.088972  0  -0.017239  0.053767  0  3.979669  0
C  C57  1  0.10134380  0.01650670  0.84567207  1  0  0.041579  0  3.744743  0  0  0.055719  0  3.99478  0  0  0.058052  0  4.017734  0  -0.088808  0  -0.017248  0.053765  0  3.979579  0
C  C58  1  0.10134454  0.51650843  0.65432529  1  0  0.041526  0  3.744958  0  0  0.055714  0  3.994899  0  0  0.058048  0  4.017857  0  -0.088886  0  -0.017212  0.05376  0  3.979701  0
C  C59  1  0.89865589  0.98348989  0.15432582  1  0  0.041457  0  3.744946  0  0  0.055683  0  3.994849  0  0  0.058018  0  4.017802  0  -0.088908  0  -0.017268  0.053729  0  3.979645  0
C  C60  1  0.04703280  0.47352304  0.30978363  1  0  -0.132822  0  3.771496  0  0  -0.150359  0  4.021486  0  0  -0.153864  0  4.042284  0  -0.030971  0  -0.103059  -0.147961  0  4.007677  0
C  C61  1  0.95297135  0.02647477  0.80978152  1  0  -0.132775  0  3.771516  0  0  -0.150243  0  4.021485  0  0  -0.153749  0  4.042291  0  -0.030648  0  -0.103015  -0.147848  0  4.007679  0
C  C62  1  0.95297162  0.52647552  0.69021690  1  0  -0.132821  0  3.771574  0  0  -0.15032  0  4.021518  0  0  -0.153831  0  4.04233  0  -0.031091  0  -0.103075  -0.147925  0  4.007712  0
C  C63  1  0.04702961  0.97352182  0.19021690  1  0  -0.132757  0  3.771529  0  0  -0.150258  0  4.021495  0  0  -0.153764  0  4.042296  0  -0.030995  0  -0.103015  -0.147862  0  4.00769  0
C  C64  1  0.02640423  0.38922424  0.25133886  1  0  -0.06894  0  3.81348  0  0  -0.083913  0  4.065998  0  0  -0.085447  0  4.087245  0  -0.023957  0  -0.097257  -0.082998  0  4.051768  0
C  C65  1  0.97360050  0.11077749  0.75133780  1  0  -0.06887  0  3.813364  0  0  -0.083804  0  4.065807  0  0  -0.085338  0  4.087053  0  -0.024696  0  -0.097187  -0.082883  0  4.051569  0
C  C66  1  0.97360018  0.61077431  0.74866062  1  0  -0.068877  0  3.813477  0  0  -0.083818  0  4.065949  0  0  -0.085353  0  4.087202  0  -0.023929  0  -0.097214  -0.082895  0  4.051708  0
C  C67  1  0.02640278  0.88922401  0.24866220  1  0  -0.068871  0  3.813357  0  0  -0.083829  0  4.065852  0  0  -0.085361  0  4.087099  0  -0.024207  0  -0.09723  -0.082915  0  4.051622  0
C  C68  1  0.85738632  0.31091493  0.22842525  1  0  -0.122802  0  3.730352  0  0  -0.142674  0  3.979297  0  0  -0.143889  0  3.999359  0  -0.071157  0  -0.099371  -0.141797  0  3.966183  0
C  C69  1  0.14261795  0.18908582  0.72842366  1  0  -0.122913  0  3.730335  0  0  -0.14276  0  3.979316  0  0  -0.143977  0  3.999381  0  -0.071167  0  -0.099408  -0.141882  0  3.966197  0
C  C70  1  0.14261476  0.68908461  0.77157686  1  0  -0.122872  0  3.730277  0  0  -0.142712  0  3.979247  0  0  -0.143937  0  3.999302  0  -0.071133  0  -0.099379  -0.141834  0  3.966132  0
C  C71  1  0.85738394  0.81091273  0.27157581  1  0  -0.122826  0  3.730313  0  0  -0.142707  0  3.97927  0  0  -0.143922  0  3.999331  0  -0.071279  0  -0.09938  -0.141828  0  3.966154  0
C  C72  1  0.70212787  0.31625998  0.26401499  1  0  0.025937  0  3.787547  0  0  0.044612  0  4.014847  0  0  0.041374  0  4.038976  0  -0.033975  0  -0.005301  0.046595  0  3.998698  0
C  C73  1  0.29787387  0.18374077  0.76401552  1  0  0.026157  0  3.787552  0  0  0.044748  0  4.014939  0  0  0.04151  0  4.039071  0  -0.034015  0  -0.005249  0.046729  0  3.998794  0
C  C74  1  0.29787001  0.68374348  0.73598396  1  0  0.026052  0  3.787511  0  0  0.04462  0  4.014923  0  0  0.041378  0  4.039068  0  -0.033943  0  -0.005282  0.046603  0  3.99877  0
C  C75  1  0.70212801  0.81625779  0.23598448  1  0  0.025915  0  3.787582  0  0  0.044627  0  4.014819  0  0  0.041389  0  4.038952  0  -0.033985  0  -0.005309  0.046608  0  3.99867  0
C  C76  1  0.52472701  0.23645944  0.24443295  1  0  -0.053773  0  3.693287  0  0  -0.077666  0  3.940726  0  0  -0.071933  0  3.954882  0  -0.032473  0  -0.069895  -0.081713  0  3.931569  0
C  C77  1  0.47527427  0.26354033  0.74443453  1  0  -0.053813  0  3.693385  0  0  -0.077676  0  3.940842  0  0  -0.071942  0  3.954998  0  -0.032606  0  -0.069905  -0.08173  0  3.931682  0
C  C78  1  0.47527087  0.76354402  0.75556441  1  0  -0.053938  0  3.693487  0  0  -0.0778  0  3.940943  0  0  -0.072078  0  3.955108  0  -0.032558  0  -0.069965  -0.081833  0  3.931791  0
C  C79  1  0.52472462  0.73645724  0.25556494  1  0  -0.053865  0  3.693468  0  0  -0.077782  0  3.940913  0  0  -0.072052  0  3.955075  0  -0.032561  0  -0.069952  -0.081824  0  3.931755  0
C  C80  1  0.37910506  0.24812700  0.28034883  1  0  -0.131371  0  3.77092  0  0  -0.144209  0  4.023914  0  0  -0.151443  0  4.043399  0  -0.015352  0  -0.093047  -0.139766  0  4.011211  0
C  C81  1  0.62089701  0.25187178  0.78034989  1  0  -0.13145  0  3.771038  0  0  -0.144301  0  4.024039  0  0  -0.151533  0  4.04352  0  -0.015541  0  -0.093031  -0.139859  0  4.01134  0
C  C82  1  0.62089201  0.75187744  0.71964800  1  0  -0.131317  0  3.770936  0  0  -0.144095  0  4.023886  0  0  -0.151329  0  4.043375  0  -0.015271  0  -0.092941  -0.139652  0  4.01118  0
C  C83  1  0.37910509  0.74812186  0.21964747  1  0  -0.131367  0  3.771122  0  0  -0.144195  0  4.024087  0  0  -0.151428  0  4.043571  0  -0.015243  0  -0.092993  -0.139751  0  4.011382  0
C  C84  1  0.41019225  0.33794277  0.33661038  1  0  0.132592  0  3.699616  0  0  0.100509  0  3.952385  0  0  0.110329  0  3.965734  0  0.485612  0  0.043482  0.09411  0  3.943734  0
C  C85  1  0.58980775  0.16205700  0.83661143  1  0  0.132659  0  3.699587  0  0  0.100559  0  3.952362  0  0  0.110376  0  3.965715  0  0.485484  0  0.043483  0.094158  0  3.943712  0
C  C86  1  0.58980528  0.66206266  0.66338699  1  0  0.132574  0  3.699632  0  0  0.100483  0  3.952383  0  0  0.110294  0  3.965733  0  0.485379  0  0.04345  0.094086  0  3.943736  0
C  C87  1  0.41019194  0.83793959  0.16338699  1  0  0.132593  0  3.69961  0  0  0.100519  0  3.952374  0  0  0.110335  0  3.965724  0  0.485059  0  0.043475  0.094119  0  3.943728  0
C  C88  1  0.72190588  0.40481537  0.32219167  1  0  0.14989  0  3.700214  0  0  0.146179  0  3.927568  0  0  0.148855  0  3.951208  0  0.431792  0  0.103179  0.144501  0  3.911942  0
C  C89  1  0.27809919  0.09518440  0.82219114  1  0  0.14983  0  3.700191  0  0  0.146173  0  3.927536  0  0  0.14885  0  3.951176  0  0.431228  0  0.103207  0.144494  0  3.911913  0
C  C90  1  0.27809440  0.59518514  0.67780833  1  0  0.149887  0  3.700203  0  0  0.14624  0  3.927506  0  0  0.148915  0  3.95114  0  0.431529  0  0.103197  0.144563  0  3.911881  0
C  C91  1  0.72190223  0.90481318  0.17780833  1  0  0.149987  0  3.700183  0  0  0.146272  0  3.927498  0  0  0.148951  0  3.95113  0  0.431209  0  0.103253  0.144597  0  3.911873  0
C  C92  1  0.46618826  0.21755086  0.49199852  1  0  0.04191  0  3.742019  0  0  0.057177  0  3.988597  0  0  0.059061  0  4.011952  0  -0.151819  0  -0.017644  0.054859  0  3.974727  0
C  C93  1  0.53380749  0.28244793  0.99199958  1  0  0.041904  0  3.742012  0  0  0.05718  0  3.988603  0  0  0.059067  0  4.011954  0  -0.151847  0  -0.017656  0.054864  0  3.974727  0
C  C94  1  0.53380443  0.78244966  0.50800095  1  0  0.041868  0  3.742077  0  0  0.057145  0  3.988743  0  0  0.059021  0  4.012104  0  -0.151891  0  -0.017657  0.054833  0  3.974851  0
C  C95  1  0.46619359  0.71755161  0.00800201  1  0  0.041785  0  3.742015  0  0  0.057048  0  3.988666  0  0  0.058929  0  4.012022  0  -0.151845  0  -0.017749  0.054739  0  3.974773  0
C  C96  1  0.28226595  0.14867030  0.48746161  1  0  -0.126727  0  3.766647  0  0  -0.145135  0  4.017433  0  0  -0.149132  0  4.039261  0  -0.024664  0  -0.100927  -0.14113  0  4.00133  0
C  C97  1  0.71773153  0.35132947  0.98746319  1  0  -0.126656  0  3.766519  0  0  -0.145063  0  4.017307  0  0  -0.149057  0  4.039128  0  -0.025023  0  -0.100897  -0.141057  0  4.001208  0
C  C98  1  0.71772788  0.85132727  0.51253839  1  0  -0.126711  0  3.766734  0  0  -0.145103  0  4.017494  0  0  -0.149093  0  4.039319  0  -0.024947  0  -0.100963  -0.141103  0  4.001396  0
C  C99  1  0.28226875  0.64867105  0.01253839  1  0  -0.126683  0  3.766605  0  0  -0.145082  0  4.017391  0  0  -0.149076  0  4.039218  0  -0.024576  0  -0.100913  -0.141084  0  4.001292  0
C  C100  1  0.21436599  0.03238861  0.44743997  1  0  -0.061986  0  3.799546  0  0  -0.07813  0  4.054696  0  0  -0.079885  0  4.07751  0  -0.026214  0  -0.095135  -0.076325  0  4.036786  0
C  C101  1  0.78563056  0.46760919  0.94743944  1  0  -0.062075  0  3.799499  0  0  -0.078237  0  4.054683  0  0  -0.079992  0  4.077498  0  -0.026492  0  -0.095179  -0.076426  0  4.036761  0
C  C102  1  0.78563383  0.96761093  0.55255897  1  0  -0.062165  0  3.799582  0  0  -0.078272  0  4.054762  0  0  -0.080028  0  4.077578  0  -0.026345  0  -0.095184  -0.07647  0  4.036847  0
C  C103  1  0.21437099  0.53239132  0.05256109  1  0  -0.062117  0  3.799591  0  0  -0.078255  0  4.054781  0  0  -0.08001  0  4.077594  0  -0.026498  0  -0.095181  -0.076454  0  4.036875  0
C  C104  1  0.32885690  0.98433964  0.41049343  1  0  -0.118868  0  3.743538  0  0  -0.144649  0  4.001114  0  0  -0.14588  0  4.021724  0  -0.097054  0  -0.098359  -0.142322  0  3.987198  0
C  C105  1  0.67114053  0.51565770  0.91049343  1  0  -0.118852  0  3.743509  0  0  -0.144621  0  4.00106  0  0  -0.145857  0  4.021673  0  -0.096802  0  -0.098299  -0.142291  0  3.987137  0
C  C106  1  0.67114718  0.01566088  0.58950710  1  0  -0.118811  0  3.743616  0  0  -0.144557  0  4.00117  0  0  -0.145792  0  4.021781  0  -0.097002  0  -0.09833  -0.142231  0  3.987256  0
C  C107  1  0.32886009  0.48434085  0.08950763  1  0  -0.118766  0  3.743469  0  0  -0.144544  0  4.00103  0  0  -0.145777  0  4.021641  0  -0.096842  0  -0.098326  -0.142218  0  3.987116  0
C  C108  1  0.51693179  0.05466867  0.41098000  1  0  0.026572  0  3.796093  0  0  0.045751  0  4.02386  0  0  0.042059  0  4.049574  0  0.023674  0  -0.004734  0.047503  0  4.006792  0
C  C109  1  0.48306695  0.44533110  0.91097947  1  0  0.026642  0  3.796247  0  0  0.045867  0  4.023948  0  0  0.042173  0  4.049669  0  0.023666  0  -0.004729  0.047618  0  4.006882  0
C  C110  1  0.48307068  0.94533381  0.58902000  1  0  0.026515  0  3.796346  0  0  0.045732  0  4.024135  0  0  0.04204  0  4.049844  0  0.023842  0  -0.00472  0.047483  0  4.00707  0
C  C111  1  0.51693413  0.55466844  0.08902211  1  0  0.026654  0  3.796143  0  0  0.045843  0  4.023937  0  0  0.042149  0  4.049649  0  0.023884  0  -0.004709  0.047593  0  4.00687  0
C  C112  1  0.64062679  0.01446534  0.37136630  1  0  -0.041219  0  3.694105  0  0  -0.066947  0  3.940049  0  0  -0.062032  0  3.956848  0  -0.028671  0  -0.069284  -0.069202  0  3.928152  0
C  C113  1  0.35937435  0.48553148  0.87136577  1  0  -0.041173  0  3.694413  0  0  -0.06689  0  3.940336  0  0  -0.061986  0  3.957132  0  -0.028733  0  -0.069253  -0.069149  0  3.928442  0
C  C114  1  0.35937868  0.98553812  0.62863476  1  0  -0.041204  0  3.694338  0  0  -0.066956  0  3.940272  0  0  -0.062012  0  3.957086  0  -0.028576  0  -0.069334  -0.069218  0  3.928365  0
C  C115  1  0.64062407  0.51446511  0.12863528  1  0  -0.041294  0  3.694471  0  0  -0.06705  0  3.94041  0  0  -0.062108  0  3.957231  0  -0.028693  0  -0.06935  -0.069303  0  3.928511  0
C  C116  1  0.82191577  0.08756123  0.37306718  1  0  -0.129775  0  3.768148  0  0  -0.141763  0  4.021157  0  0  -0.149486  0  4.042626  0  -0.063562  0  -0.093232  -0.137316  0  4.006795  0
C  C117  1  0.17808711  0.41243657  0.87306665  1  0  -0.129852  0  3.768063  0  0  -0.141847  0  4.021088  0  0  -0.149572  0  4.042561  0  -0.063562  0  -0.093279  -0.1374  0  4.006728  0
C  C118  1  0.17808464  0.91244223  0.62693440  1  0  -0.129945  0  3.768069  0  0  -0.141907  0  4.021096  0  0  -0.149631  0  4.042554  0  -0.06368  0  -0.093262  -0.13746  0  4.006739  0
C  C119  1  0.82191292  0.58755805  0.12693335  1  0  -0.129904  0  3.768156  0  0  -0.141868  0  4.021169  0  0  -0.149593  0  4.042634  0  -0.063712  0  -0.093258  -0.137422  0  4.00681  0
C  C120  1  0.88014602  0.20071212  0.41550161  1  0  0.13448  0  3.702949  0  0  0.101855  0  3.956037  0  0  0.110994  0  3.970725  0  0.494706  0  0.044081  0.096056  0  3.946199  0
C  C121  1  0.11985606  0.29928666  0.91550161  1  0  0.134468  0  3.702808  0  0  0.10185  0  3.95589  0  0  0.110992  0  3.970578  0  0.494729  0  0.044103  0.096053  0  3.946051  0
C  C122  1  0.11985072  0.79929429  0.58449945  1  0  0.134693  0  3.702669  0  0  0.102068  0  3.955746  0  0  0.111211  0  3.970433  0  0.494561  0  0.044179  0.096271  0  3.945902  0
C  C123  1  0.88014604  0.70070698  0.08449892  1  0  0.134505  0  3.702765  0  0  0.101896  0  3.955852  0  0  0.111035  0  3.970539  0  0.49458  0  0.04408  0.096099  0  3.94601  0
C  C124  1  0.58719002  0.17180011  0.45224075  1  0  0.15  0  3.712357  0  0  0.146979  0  3.937122  0  0  0.149995  0  3.960939  0  0.496555  0  0.103613  0.144485  0  3.922238  0
C  C125  1  0.41280999  0.32819966  0.95224181  1  0  0.149975  0  3.71236  0  0  0.146903  0  3.937162  0  0  0.149919  0  3.960979  0  0.496565  0  0.103623  0.14441  0  3.922278  0
C  C126  1  0.41280427  0.82819845  0.54776030  1  0  0.150313  0  3.712164  0  0  0.147156  0  3.937112  0  0  0.150179  0  3.960931  0  0.496517  0  0.103745  0.144661  0  3.922232  0
C  C127  1  0.58719283  0.67180086  0.04776030  1  0  0.150187  0  3.712176  0  0  0.147103  0  3.937038  0  0  0.150118  0  3.960854  0  0.496492  0  0.103742  0.144608  0  3.922159  0
S  S128  1  0.92442469  0.58711599  0.41960315  1  0  -0.353322  0  2.831316  0  0  -0.325757  0  3.326737  0  0  -0.329632  0  3.295927  0  -0.346045  0  -0.26703  -0.323991  0  3.347029  0
S  S129  1  0.07557587  0.91288528  0.91960262  1  0  -0.353361  0  2.831186  0  0  -0.32577  0  3.326636  0  0  -0.329637  0  3.295813  0  -0.346059  0  -0.267037  -0.324004  0  3.346927  0
S  S130  1  0.07557273  0.41288649  0.58039738  1  0  -0.353287  0  2.831353  0  0  -0.325711  0  3.326784  0  0  -0.329599  0  3.295985  0  -0.34604  0  -0.267004  -0.323946  0  3.347076  0
S  S131  1  0.92442682  0.08711229  0.08039791  1  0  -0.353327  0  2.831313  0  0  -0.325768  0  3.326732  0  0  -0.329637  0  3.295911  0  -0.345994  0  -0.26704  -0.324002  0  3.34702  0
S  S132  1  0.55299151  0.35815298  0.54544673  1  0  -0.360279  0  2.873958  0  0  -0.334182  0  3.38334  0  0  -0.338759  0  3.352344  0  -0.347501  0  -0.273263  -0.331818  0  3.405889  0
S  S133  1  0.44700630  0.14184482  0.04544831  1  0  -0.36031  0  2.873986  0  0  -0.334212  0  3.383365  0  0  -0.338792  0  3.352375  0  -0.347547  0  -0.273299  -0.331849  0  3.40591  0
S  S134  1  0.44700497  0.64184753  0.45455327  1  0  -0.360319  0  2.874033  0  0  -0.334202  0  3.383398  0  0  -0.338763  0  3.352393  0  -0.34749  0  -0.273273  -0.331841  0  3.405942  0
S  S135  1  0.55299639  0.85815275  0.95455222  1  0  -0.360291  0  2.873995  0  0  -0.334165  0  3.383332  0  0  -0.338737  0  3.352343  0  -0.34754  0  -0.273269  -0.331802  0  3.405871  0
N  N136  1  0.57455202  0.41267627  0.35749327  1  0  -0.29458  0  3.332344  0  0  -0.226041  0  3.606799  0  0  -0.235594  0  3.616371  0  -1.204362  0  -0.355795  -0.2205  0  3.600348  0
N  N137  1  0.42544798  0.08732350  0.85749591  1  0  -0.294652  0  3.332411  0  0  -0.226085  0  3.606818  0  0  -0.235641  0  3.616397  0  -1.203792  0  -0.355825  -0.22054  0  3.600361  0
N  N138  1  0.42544425  0.58732916  0.64250356  1  0  -0.294628  0  3.33246  0  0  -0.226021  0  3.606807  0  0  -0.235563  0  3.616368  0  -1.204042  0  -0.355819  -0.220488  0  3.600365  0
N  N139  1  0.57455251  0.91267210  0.14250356  1  0  -0.29461  0  3.332457  0  0  -0.226036  0  3.60686  0  0  -0.23559  0  3.61644  0  -1.203748  0  -0.35581  -0.220497  0  3.600411  0
N  N140  1  0.76802683  0.24189880  0.45341337  1  0  -0.296028  0  3.357646  0  0  -0.225525  0  3.630332  0  0  -0.236701  0  3.641853  0  -1.219646  0  -0.359296  -0.21893  0  3.622705  0
N  N141  1  0.23197317  0.25810097  0.95341390  1  0  -0.295994  0  3.357569  0  0  -0.225469  0  3.630242  0  0  -0.236645  0  3.64176  0  -1.219704  0  -0.3593  -0.218874  0  3.622614  0
N  N142  1  0.23196805  0.75810368  0.54658663  1  0  -0.296277  0  3.357633  0  0  -0.22573  0  3.630355  0  0  -0.236912  0  3.641878  0  -1.219567  0  -0.359362  -0.219135  0  3.622729  0
N  N143  1  0.76802905  0.74189562  0.04658610  1  0  -0.296092  0  3.357513  0  0  -0.225579  0  3.63023  0  0  -0.236744  0  3.64173  0  -1.219614  0  -0.35932  -0.218985  0  3.622607  0
