# generated using pymatgen
data_CdH27C27N4O5
_symmetry_space_group_name_H-M   'P 1'
_cell_length_a   8.51691818
_cell_length_b   10.56235339
_cell_length_c   14.48200000
_cell_angle_alpha   82.21528554
_cell_angle_beta   77.67506955
_cell_angle_gamma   85.73747287
_symmetry_Int_Tables_number   1
_chemical_formula_structural   CdH27C27N4O5
_chemical_formula_sum   'Cd2 H54 C54 N8 O10'
_cell_volume   1259.63800910
_cell_formula_units_Z   2
loop_
 _symmetry_equiv_pos_site_id
 _symmetry_equiv_pos_as_xyz
  1  'x, y, z'
loop_
 _atom_site_type_symbol
 _atom_site_label
 _atom_site_symmetry_multiplicity
 _atom_site_fract_x
 _atom_site_fract_y
 _atom_site_fract_z
 _atom_site_occupancy
 _atom_site_hle17_bader_spin_density
 _atom_site_hle17_ddec_charge
 _atom_site_hle17_ddec_spin_density
 _atom_site_hle17_ddec_sum_bond_order
 _atom_site_hle17_magmom
 _atom_site_hse06_10hf_bader_spin_density
 _atom_site_hse06_10hf_ddec_charge
 _atom_site_hse06_10hf_ddec_spin_density
 _atom_site_hse06_10hf_ddec_sum_bond_order
 _atom_site_hse06_10hf_magmom
 _atom_site_hse06_bader_spin_density
 _atom_site_hse06_ddec_charge
 _atom_site_hse06_ddec_spin_density
 _atom_site_hse06_ddec_sum_bond_order
 _atom_site_hse06_magmom
 _atom_site_pbe_bader_charge
 _atom_site_pbe_bader_spin_density
 _atom_site_pbe_cm5_charge
 _atom_site_pbe_ddec_charge
 _atom_site_pbe_ddec_spin_density
 _atom_site_pbe_ddec_sum_bond_order
 _atom_site_pbe_magmom
Cd  Cd0  1  0.23737771  0.09315552  0.44739022  1  0  1.176845  0  1.649634  0  0  0.996901  0  2.090156  0  0  1.05287  0  2.036032  0  1.279463  0  0.775  0.957118  0  2.127291  0
Cd  Cd1  1  0.76262249  0.90684386  0.55261071  1  0  1.176844  0  1.649646  0  0  0.996889  0  2.090167  0  0  1.052856  0  2.036047  0  1.279386  0  0.775006  0.957104  0  2.127303  0
H  H2  1  0.14229830  0.10859439  0.20616281  1  0  0.099384  0  0.961112  0  0  0.107646  0  1.02681  0  0  0.111033  0  1.024864  0  0.089155  0  0.097737  0.10521  0  1.028211  0
H  H3  1  0.85770310  0.89140499  0.79383728  1  0  0.099371  0  0.9611  0  0  0.107641  0  1.026794  0  0  0.111031  0  1.024845  0  0.089169  0  0.09775  0.105206  0  1.028196  0
H  H4  1  0.12517665  0.26575153  0.06247442  1  0  0.078813  0  0.958163  0  0  0.091307  0  1.017201  0  0  0.094335  0  1.015237  0  0.054731  0  0.0954  0.089109  0  1.018653  0
H  H5  1  0.87482218  0.73425072  0.93752571  1  0  0.078806  0  0.958139  0  0  0.0913  0  1.017177  0  0  0.094327  0  1.015214  0  0.05478  0  0.095388  0.089102  0  1.018628  0
H  H6  1  0.88100177  0.40465638  0.05551087  1  0  0.089782  0  0.97104  0  0  0.09981  0  1.036012  0  0  0.103004  0  1.034493  0  0.024474  0  0.09549  0.097435  0  1.0373  0
H  H7  1  0.11899603  0.59534300  0.94448968  1  0  0.089791  0  0.971027  0  0  0.099856  0  1.035972  0  0  0.103052  0  1.034451  0  0.024461  0  0.095513  0.09751  0  1.037222  0
H  H8  1  0.66512262  0.23567161  0.33715280  1  0  0.09838  0  0.974235  0  0  0.109877  0  1.038533  0  0  0.11325  0  1.036154  0  0.072283  0  0.103747  0.10741  0  1.040402  0
H  H9  1  0.33487758  0.76432777  0.66284745  1  0  0.098407  0  0.974191  0  0  0.109904  0  1.038492  0  0  0.113277  0  1.036114  0  0.07229  0  0.103749  0.107438  0  1.04036  0
H  H10  1  0.68341793  0.56468242  0.10196697  1  0  0.064193  0  0.9129  0  0  0.083391  0  0.971034  0  0  0.083889  0  0.970273  0  0.037322  0  0.103965  0.083004  0  0.971552  0
H  H11  1  0.31658479  0.43531505  0.89803245  1  0  0.064198  0  0.912854  0  0  0.083398  0  0.970995  0  0  0.083897  0  0.970232  0  0.037409  0  0.103962  0.08301  0  0.971515  0
H  H12  1  0.59008964  0.44714460  0.05777133  1  0  0.04649  0  0.942628  0  0  0.061489  0  1.011737  0  0  0.061233  0  1.012615  0  0.031773  0  0.092996  0.061481  0  1.011324  0
H  H13  1  0.40991062  0.55285383  0.94222900  1  0  0.046501  0  0.942621  0  0  0.061502  0  1.011733  0  0  0.061248  0  1.012609  0  0.03177  0  0.09301  0.061494  0  1.01132  0
H  H14  1  0.52200003  0.72547566  0.19417942  1  0  0.094893  0  0.96018  0  0  0.105326  0  1.022266  0  0  0.107894  0  1.02169  0  0.061613  0  0.098968  0.103504  0  1.022709  0
H  H15  1  0.47800126  0.27452563  0.80582049  1  0  0.094904  0  0.960142  0  0  0.105342  0  1.022228  0  0  0.107911  0  1.021652  0  0.061638  0  0.09896  0.103517  0  1.022677  0
H  H16  1  0.25651483  0.83833561  0.23913389  1  0  0.104429  0  0.947523  0  0  0.11428  0  1.009694  0  0  0.117033  0  1.008529  0  0.079742  0  0.103249  0.112308  0  1.01057  0
H  H17  1  0.74348772  0.16166472  0.76086527  1  0  0.104434  0  0.947597  0  0  0.114271  0  1.009781  0  0  0.117019  0  1.008618  0  0.079732  0  0.103291  0.112299  0  1.010657  0
H  H18  1  0.02752012  0.53397113  0.15552168  1  0  0.089708  0  0.973351  0  0  0.098664  0  1.03885  0  0  0.101018  0  1.038783  0  0.072924  0  0.096223  0.096974  0  1.038944  0
H  H19  1  0.97248112  0.46603112  0.84447815  1  0  0.089651  0  0.973384  0  0  0.098618  0  1.038875  0  0  0.10097  0  1.038809  0  0.072889  0  0.096203  0.096927  0  1.038968  0
H  H20  1  0.29267529  0.42071609  0.11164477  1  0  0.090394  0  0.956756  0  0  0.102525  0  1.017937  0  0  0.105029  0  1.017001  0  0.069741  0  0.100168  0.100745  0  1.018655  0
H  H21  1  0.70732594  0.57928616  0.88835437  1  0  0.090354  0  0.956843  0  0  0.102487  0  1.018019  0  0  0.104991  0  1.017083  0  0.069709  0  0.10016  0.100708  0  1.018737  0
H  H22  1  0.96981279  0.84724365  0.25753894  1  0  0.06483  0  0.933673  0  0  0.080672  0  0.998619  0  0  0.080526  0  0.999179  0  0.065262  0  0.100041  0.080694  0  0.998238  0
H  H23  1  0.03018616  0.15275669  0.74246206  1  0  0.064811  0  0.933622  0  0  0.080663  0  0.998585  0  0  0.080518  0  0.999141  0  0.065282  0  0.100022  0.080684  0  0.998205  0
H  H24  1  0.86902119  0.70624189  0.25563011  1  0  0.053761  0  0.916888  0  0  0.073604  0  0.975319  0  0  0.074296  0  0.974047  0  0.025187  0  0.098418  0.073065  0  0.976223  0
H  H25  1  0.13098022  0.29375749  0.74436929  1  0  0.053781  0  0.916878  0  0  0.073643  0  0.975311  0  0  0.074333  0  0.974043  0  0.025168  0  0.098445  0.073104  0  0.976215  0
H  H26  1  0.87512835  0.95939188  0.96415170  1  0  0.095052  0  0.976125  0  0  0.104267  0  1.042884  0  0  0.107246  0  1.041939  0  0.083177  0  0.097238  0.102226  0  1.043505  0
H  H27  1  0.12487179  0.04060846  0.03584846  1  0  0.095056  0  0.976126  0  0  0.10427  0  1.042884  0  0  0.107249  0  1.041939  0  0.083175  0  0.097236  0.102229  0  1.043505  0
H  H28  1  0.65642116  0.12510276  0.95296333  1  0  0.078928  0  0.987547  0  0  0.090486  0  1.047963  0  0  0.092273  0  1.048509  0  0.097723  0  0.091877  0.089221  0  1.047631  0
H  H29  1  0.34357784  0.87489662  0.04703637  1  0  0.078904  0  0.987536  0  0  0.090463  0  1.047961  0  0  0.09225  0  1.048507  0  0.097728  0  0.09187  0.089197  0  1.047629  0
H  H30  1  0.46104814  0.17784497  0.09984135  1  0  0.09261  0  0.952453  0  0  0.103483  0  1.013985  0  0  0.107096  0  1.01193  0  0.075542  0  0.096803  0.100922  0  1.015492  0
H  H31  1  0.53894966  0.82215441  0.90015851  1  0  0.092619  0  0.952459  0  0  0.1035  0  1.01398  0  0  0.107118  0  1.011923  0  0.075677  0  0.0968  0.100939  0  1.015488  0
H  H32  1  0.69281232  0.88622107  0.26785780  1  0  0.098458  0  0.968468  0  0  0.108025  0  1.033632  0  0  0.11178  0  1.03121  0  0.066601  0  0.099516  0.105374  0  1.03545  0
H  H33  1  0.30718892  0.11378118  0.73214203  1  0  0.098443  0  0.968451  0  0  0.108007  0  1.033617  0  0  0.111762  0  1.031195  0  0.066598  0  0.099508  0.105355  0  1.035436  0
H  H34  1  0.88991276  0.20358375  0.57742299  1  0  0.112667  0  0.955162  0  0  0.119937  0  1.023331  0  0  0.122621  0  1.019809  0  0.19486  0  0.136713  0.117902  0  1.025936  0
H  H35  1  0.11008739  0.79641658  0.42257717  1  0  0.112684  0  0.955154  0  0  0.119957  0  1.023325  0  0  0.122639  0  1.019804  0  0.194862  0  0.136704  0.117921  0  1.025931  0
H  H36  1  0.17842269  0.38196443  0.32688304  1  0  0.108026  0  0.957962  0  0  0.118657  0  1.017432  0  0  0.120803  0  1.016778  0  0.124574  0  0.11866  0.117045  0  1.018053  0
H  H37  1  0.82157745  0.61803591  0.67311712  1  0  0.108017  0  0.957974  0  0  0.118646  0  1.017446  0  0  0.120792  0  1.016793  0  0.124546  0  0.118653  0.117035  0  1.018067  0
H  H38  1  0.89674895  0.53148871  0.37247709  1  0  0.108512  0  0.964633  0  0  0.119372  0  1.026294  0  0  0.121642  0  1.025409  0  0.122836  0  0.122181  0.117697  0  1.027016  0
H  H39  1  0.10325000  0.46851163  0.62752252  1  0  0.108501  0  0.964631  0  0  0.119363  0  1.026289  0  0  0.121633  0  1.025405  0  0.122853  0  0.122174  0.117688  0  1.027011  0
H  H40  1  0.70070572  0.48253183  0.59312100  1  0  0.06815  0  0.938377  0  0  0.083472  0  1.003095  0  0  0.08352  0  1.004093  0  0.053333  0  0.105437  0.083322  0  1.002518  0
H  H41  1  0.29929448  0.51746755  0.40687993  1  0  0.068148  0  0.938389  0  0  0.083476  0  1.00311  0  0  0.083527  0  1.00411  0  0.053341  0  0.105438  0.083326  0  1.002533  0
H  H42  1  0.63129962  0.33275788  0.57953091  1  0  0.083206  0  0.915109  0  0  0.100865  0  0.974369  0  0  0.101464  0  0.974127  0  0.068614  0  0.115085  0.100268  0  0.974759  0
H  H43  1  0.36869932  0.66724246  0.42046871  1  0  0.0832  0  0.915111  0  0  0.100866  0  0.974374  0  0  0.101469  0  0.974135  0  0.068611  0  0.11508  0.100269  0  0.974763  0
H  H44  1  0.58517418  0.42806006  0.41614243  1  0  0.079597  0  0.934414  0  0  0.095393  0  0.997798  0  0  0.096508  0  0.997842  0  0.057076  0  0.094787  0.094454  0  0.997983  0
H  H45  1  0.41482350  0.57194124  0.58385863  1  0  0.079587  0  0.934453  0  0  0.095399  0  0.997809  0  0  0.096514  0  0.997854  0  0.057059  0  0.094781  0.09446  0  0.997994  0
H  H46  1  0.63648666  0.57919910  0.43926717  1  0  0.069435  0  0.932082  0  0  0.08926  0  0.989128  0  0  0.090158  0  0.988838  0  0.040264  0  0.09274  0.088483  0  0.989526  0
H  H47  1  0.36351223  0.42080219  0.56073305  1  0  0.069452  0  0.932078  0  0  0.08926  0  0.989138  0  0  0.090157  0  0.988848  0  0.040271  0  0.09274  0.088483  0  0.989535  0
H  H48  1  0.51573585  0.35867077  0.23806701  1  0  0.271453  0  0.916238  0  0  0.262157  0  0.975695  0  0  0.267935  0  0.971428  0  0.454976  0  0.297611  0.257967  0  0.978832  0
H  H49  1  0.48426200  0.64132766  0.76193293  1  0  0.271475  0  0.916244  0  0  0.262182  0  0.97569  0  0  0.267959  0  0.971426  0  0.455002  0  0.297603  0.257991  0  0.978829  0
H  H50  1  0.02041884  0.82431637  0.06695848  1  0  0.259529  0  0.927376  0  0  0.251387  0  0.987224  0  0  0.25568  0  0.985804  0  0.449037  0  0.300591  0.248302  0  0.988302  0
H  H51  1  0.97958257  0.17568301  0.93304092  1  0  0.259498  0  0.927452  0  0  0.251372  0  0.987285  0  0  0.255667  0  0.98586  0  0.449044  0  0.300598  0.248288  0  0.988362  0
H  H52  1  0.47609454  0.12131551  0.56460738  1  0  0.425263  0  0.872267  0  0  0.395845  0  0.93395  0  0  0.406567  0  0.918232  0  0.643191  0  0.289224  0.388211  0  0.945136  0
H  H53  1  0.52390560  0.87868483  0.43539209  1  0  0.425264  0  0.872264  0  0  0.395846  0  0.933948  0  0  0.406566  0  0.918233  0  0.643187  0  0.289219  0.388211  0  0.945136  0
H  H54  1  0.56801259  0.13547920  0.46097603  1  0  0.419983  0  0.879215  0  0  0.388449  0  0.947771  0  0  0.399331  0  0.931765  0  0.639215  0  0.288334  0.380692  0  0.959182  0
H  H55  1  0.43198636  0.86452114  0.53902290  1  0  0.419978  0  0.879232  0  0  0.388449  0  0.947773  0  0  0.399329  0  0.931772  0  0.639214  0  0.288331  0.380691  0  0.959186  0
C  C56  1  0.90301373  0.06580484  0.36640384  1  0  0.655453  0  3.905505  0  0  0.60158  0  4.201511  0  0  0.636887  0  4.193019  0  1.539036  0  0.203977  0.57758  0  4.206588  0
C  C57  1  0.09698647  0.93419454  0.63359571  1  0  0.655471  0  3.905489  0  0  0.601603  0  4.201496  0  0  0.636911  0  4.193001  0  1.539069  0  0.203991  0.577602  0  4.206575  0
C  C58  1  0.90267520  0.16125816  0.28024184  1  0  -0.053872  0  3.800794  0  0  -0.029627  0  4.035423  0  0  -0.036032  0  4.059135  0  -0.055927  0  -0.026952  -0.02546  0  4.01946  0
C  C59  1  0.09732375  0.83874218  0.71975846  1  0  -0.053843  0  3.80093  0  0  -0.029591  0  4.035547  0  0  -0.035997  0  4.05926  0  -0.055921  0  -0.026933  -0.025424  0  4.019585  0
C  C60  1  0.03486179  0.17020254  0.20301656  1  0  -0.103863  0  3.744828  0  0  -0.131927  0  3.999598  0  0  -0.133629  0  4.020432  0  -0.026031  0  -0.104226  -0.130711  0  3.985459  0
C  C61  1  0.96513955  0.82979779  0.79698345  1  0  -0.103902  0  3.744835  0  0  -0.131978  0  3.999629  0  0  -0.133681  0  4.02046  0  -0.026056  0  -0.104276  -0.130763  0  3.985491  0
C  C62  1  0.02489219  0.25915182  0.12383801  1  0  -0.066649  0  3.819553  0  0  -0.078092  0  4.074172  0  0  -0.078445  0  4.094411  0  -0.039976  0  -0.099501  -0.0778  0  4.060434  0
C  C63  1  0.97510681  0.74084756  0.87616307  1  0  -0.066588  0  3.819466  0  0  -0.07803  0  4.074101  0  0  -0.078382  0  4.094339  0  -0.040023  0  -0.099457  -0.077741  0  4.060374  0
C  C64  1  0.88710525  0.33918731  0.11983275  1  0  -0.182533  0  3.732035  0  0  -0.199478  0  3.977791  0  0  -0.203695  0  3.996842  0  -0.033912  0  -0.106539  -0.196546  0  3.965035  0
C  C65  1  0.11289375  0.66081207  0.88016764  1  0  -0.182591  0  3.732142  0  0  -0.199573  0  3.977915  0  0  -0.203791  0  3.996964  0  -0.033916  0  -0.106588  -0.196661  0  3.96514  0
C  C66  1  0.75550001  0.33140331  0.19772272  1  0  0.244863  0  3.854105  0  0  0.243359  0  4.101918  0  0  0.25195  0  4.122562  0  0.356481  0  0.092344  0.237376  0  4.087687  0
C  C67  1  0.24449779  0.66859607  0.80227783  1  0  0.244823  0  3.854085  0  0  0.243325  0  4.101912  0  0  0.251919  0  4.12255  0  0.357193  0  0.092317  0.237342  0  4.087686  0
C  C68  1  0.76684603  0.24179684  0.27717250  1  0  -0.166771  0  3.715105  0  0  -0.200475  0  3.968101  0  0  -0.203491  0  3.987769  0  0.000696  0  -0.096865  -0.198338  0  3.954864  0
C  C69  1  0.23315056  0.75820254  0.72282613  1  0  -0.166774  0  3.715019  0  0  -0.200486  0  3.96802  0  0  -0.203498  0  3.98768  0  0.000304  0  -0.096855  -0.198351  0  3.954783  0
C  C70  1  0.58659705  0.49620957  0.12116955  1  0  0.014023  0  3.735688  0  0  -0.050836  0  4.000008  0  0  -0.045467  0  4.010556  0  0.318843  0  -0.061086  -0.054303  0  3.992544  0
C  C71  1  0.41340315  0.50378981  0.87883069  1  0  0.014061  0  3.735572  0  0  -0.050793  0  3.999942  0  0  -0.045427  0  4.010491  0  0.318748  0  -0.061081  -0.054261  0  3.99248  0
C  C72  1  0.42618439  0.56670758  0.14772577  1  0  0.056566  0  3.767263  0  0  0.078867  0  4.004211  0  0  0.078494  0  4.028043  0  -0.041851  0  -0.013282  0.07903  0  3.988184  0
C  C73  1  0.57381690  0.43329372  0.85227415  1  0  0.056598  0  3.767216  0  0  0.078819  0  4.004278  0  0  0.078444  0  4.028113  0  -0.041816  0  -0.01327  0.078982  0  3.98825  0
C  C74  1  0.41367906  0.68288508  0.18578137  1  0  -0.107493  0  3.74078  0  0  -0.12696  0  3.98579  0  0  -0.129331  0  4.006839  0  -0.012425  0  -0.090675  -0.125314  0  3.971627  0
C  C75  1  0.58632349  0.31711525  0.81421780  1  0  -0.10759  0  3.740784  0  0  -0.127031  0  3.985803  0  0  -0.129402  0  4.00685  0  -0.012374  0  -0.090728  -0.125383  0  3.97164  0
C  C76  1  0.26404063  0.74676712  0.21086527  1  0  -0.116813  0  3.746599  0  0  -0.135863  0  3.994489  0  0  -0.138334  0  4.015601  0  -0.04772  0  -0.089954  -0.134129  0  3.980239  0
C  C77  1  0.73596192  0.25323322  0.78913320  1  0  -0.116757  0  3.74673  0  0  -0.135788  0  3.994615  0  0  -0.138252  0  4.015722  0  -0.047738  0  -0.089941  -0.134054  0  3.980362  0
C  C78  1  0.12422513  0.69514224  0.19832495  1  0  0.050334  0  3.770487  0  0  0.072806  0  4.008348  0  0  0.071802  0  4.032928  0  -0.035371  0  -0.01614  0.073438  0  3.991659  0
C  C79  1  0.87577616  0.30485905  0.80167428  1  0  0.050379  0  3.770396  0  0  0.072838  0  4.008295  0  0  0.071833  0  4.032874  0  -0.035364  0  -0.016105  0.07347  0  3.991606  0
C  C80  1  0.13601451  0.57671859  0.16339496  1  0  -0.114887  0  3.763197  0  0  -0.133336  0  4.008981  0  0  -0.135824  0  4.031114  0  -0.078091  0  -0.094786  -0.131479  0  3.993884  0
C  C81  1  0.86398793  0.42328366  0.83660402  1  0  -0.114837  0  3.763109  0  0  -0.133279  0  4.00888  0  0  -0.135767  0  4.031013  0  -0.078094  0  -0.094794  -0.131422  0  3.993782  0
C  C82  1  0.28537065  0.51322112  0.13841761  1  0  -0.12112  0  3.768835  0  0  -0.139859  0  4.014747  0  0  -0.142397  0  4.036102  0  -0.045911  0  -0.092556  -0.138138  0  4.00034  0
C  C83  1  0.71463059  0.48678113  0.86158222  1  0  -0.121123  0  3.768832  0  0  -0.139833  0  4.014758  0  0  -0.14237  0  4.036113  0  -0.045928  0  -0.092553  -0.138111  0  4.00035  0
C  C84  1  0.96480268  0.76906973  0.21486393  1  0  0.014804  0  3.713552  0  0  -0.050137  0  3.978122  0  0  -0.04461  0  3.9885  0  0.281875  0  -0.060655  -0.053703  0  3.970677  0
C  C85  1  0.03519861  0.23093157  0.78513668  1  0  0.014817  0  3.713452  0  0  -0.050177  0  3.978112  0  0  -0.044648  0  3.988491  0  0.281875  0  -0.060676  -0.053741  0  3.970667  0
C  C86  1  0.80253531  0.91114194  0.11702308  1  0  0.245817  0  3.86374  0  0  0.241107  0  4.115104  0  0  0.250408  0  4.135836  0  0.382005  0  0.090569  0.234753  0  4.100743  0
C  C87  1  0.19746610  0.08885744  0.88297839  1  0  0.245872  0  3.863641  0  0  0.241167  0  4.114999  0  0  0.250468  0  4.135731  0  0.381989  0  0.090603  0.234816  0  4.100635  0
C  C88  1  0.78859104  0.98035904  0.02819921  1  0  -0.193238  0  3.735129  0  0  -0.209887  0  3.984167  0  0  -0.214997  0  4.003069  0  -0.095402  0  -0.107285  -0.206377  0  3.971323  0
C  C89  1  0.21140910  0.01964129  0.97180095  1  0  -0.193296  0  3.735155  0  0  -0.209947  0  3.984192  0  0  -0.215056  0  4.003095  0  -0.095406  0  -0.107301  -0.206437  0  3.971348  0
C  C90  1  0.66601789  0.07391888  0.02220869  1  0  -0.051635  0  3.81902  0  0  -0.062501  0  4.067433  0  0  -0.061646  0  4.08785  0  -0.055079  0  -0.098234  -0.062968  0  4.053504  0
C  C91  1  0.33398231  0.92608050  0.97779086  1  0  -0.051579  0  3.818967  0  0  -0.062446  0  4.067385  0  0  -0.061593  0  4.087803  0  -0.055041  0  -0.098225  -0.062914  0  4.053456  0
C  C92  1  0.55577039  0.10332534  0.10359708  1  0  -0.106286  0  3.759041  0  0  -0.133557  0  4.0116  0  0  -0.136193  0  4.032243  0  -0.025181  0  -0.104108  -0.131707  0  3.997521  0
C  C93  1  0.44422975  0.89667500  0.89640307  1  0  -0.106305  0  3.759025  0  0  -0.133582  0  4.011576  0  0  -0.136221  0  4.032222  0  -0.025322  0  -0.104111  -0.131731  0  3.997497  0
C  C94  1  0.56698731  0.03370741  0.19138393  1  0  -0.041369  0  3.808275  0  0  -0.01773  0  4.041982  0  0  -0.022587  0  4.064909  0  -0.03935  0  -0.023101  -0.014431  0  4.026325  0
C  C95  1  0.43301283  0.96629292  0.80861623  1  0  -0.041401  0  3.808245  0  0  -0.01777  0  4.041965  0  0  -0.022626  0  4.064893  0  -0.03935  0  -0.02311  -0.01447  0  4.026308  0
C  C96  1  0.68752379  0.93739060  0.19807580  1  0  -0.197983  0  3.7159  0  0  -0.225817  0  3.966288  0  0  -0.230939  0  3.986575  0  -0.036513  0  -0.106318  -0.222369  0  3.952631  0
C  C97  1  0.31247629  0.06261069  0.80192496  1  0  -0.197952  0  3.715727  0  0  -0.225774  0  3.966108  0  0  -0.230896  0  3.986395  0  -0.036469  0  -0.106305  -0.222327  0  3.952449  0
C  C98  1  0.45203577  0.06232083  0.27980218  1  0  0.640575  0  3.908002  0  0  0.590917  0  4.196959  0  0  0.624831  0  4.190359  0  1.504292  0  0.197996  0.567918  0  4.200474  0
C  C99  1  0.54796318  0.93767950  0.72019743  1  0  0.640486  0  3.908103  0  0  0.590822  0  4.197075  0  0  0.624736  0  4.190478  0  1.504272  0  0.197934  0.567824  0  4.200589  0
C  C100  1  0.93269945  0.27384548  0.51701229  1  0  0.160356  0  3.66128  0  0  0.096302  0  3.928175  0  0  0.110538  0  3.941861  0  0.953681  0  0.140197  0.08709  0  3.918706  0
C  C101  1  0.06729950  0.72615486  0.48298802  1  0  0.160288  0  3.661314  0  0  0.096227  0  3.928214  0  0  0.110465  0  3.941896  0  0.953682  0  0.140209  0.087017  0  3.918744  0
C  C102  1  0.07888326  0.36990816  0.38748791  1  0  0.006205  0  3.758475  0  0  -0.029145  0  4.028009  0  0  -0.02646  0  4.048763  0  0.476991  0  -0.002111  -0.031021  0  4.014065  0
C  C103  1  0.92111568  0.63009217  0.61251240  1  0  0.006168  0  3.758475  0  0  -0.029181  0  4.028011  0  0  -0.026496  0  4.048766  0  0.476998  0  -0.002118  -0.031057  0  4.014066  0
C  C104  1  0.93898104  0.44328464  0.40847246  1  0  -0.052657  0  3.666743  0  0  -0.096945  0  3.932463  0  0  -0.095809  0  3.952319  0  0.252652  0  0.003336  -0.097647  0  3.919161  0
C  C105  1  0.06101796  0.55671474  0.59152724  1  0  -0.052597  0  3.666775  0  0  -0.096883  0  3.932496  0  0  -0.095747  0  3.952348  0  0.25262  0  0.003366  -0.097587  0  3.919198  0
C  C106  1  0.68778849  0.41994315  0.54061085  1  0  0.007356  0  3.633282  0  0  -0.057395  0  3.892803  0  0  -0.053161  0  3.904762  0  0.321947  0  -0.050064  -0.060132  0  3.884625  0
C  C107  1  0.31221166  0.58005719  0.45938931  1  0  0.007407  0  3.633299  0  0  -0.057377  0  3.892875  0  0  -0.053164  0  3.904861  0  0.321953  0  -0.050058  -0.060112  0  3.884698  0
C  C108  1  0.58552261  0.48730919  0.47302268  1  0  -0.120299  0  3.693389  0  0  -0.161064  0  3.955034  0  0  -0.162044  0  3.967661  0  -0.044061  0  -0.161015  -0.160256  0  3.946464  0
C  C109  1  0.41447753  0.51269115  0.52697748  1  0  -0.120384  0  3.693447  0  0  -0.161135  0  3.955103  0  0  -0.162108  0  3.967735  0  -0.018124  0  -0.161036  -0.160327  0  3.946534  0
N  N110  1  0.61467251  0.40707280  0.20228582  1  0  -0.427767  0  3.295541  0  0  -0.377189  0  3.54719  0  0  -0.39554  0  3.558782  0  -1.176109  0  -0.451517  -0.364112  0  3.538539  0
N  N111  1  0.38532529  0.59292658  0.79771472  1  0  -0.427803  0  3.295548  0  0  -0.37722  0  3.5472  0  0  -0.395573  0  3.55879  0  -1.176438  0  -0.451493  -0.364145  0  3.538549  0
N  N112  1  0.92500411  0.81870197  0.12295501  1  0  -0.424201  0  3.303112  0  0  -0.371671  0  3.55119  0  0  -0.390139  0  3.563869  0  -1.195803  0  -0.448895  -0.358492  0  3.541713  0
N  N113  1  0.07499598  0.18129932  0.87704506  1  0  -0.424229  0  3.303135  0  0  -0.371707  0  3.551226  0  0  -0.390174  0  3.563904  0  -1.195811  0  -0.44892  -0.358528  0  3.541746  0
N  N114  1  0.84783219  0.38070839  0.49021006  1  0  -0.061514  0  3.577884  0  0  0.034452  0  3.796687  0  0  0.019561  0  3.823814  0  -1.234995  0  -0.241243  0.044302  0  3.778217  0
N  N115  1  0.15216555  0.61929195  0.50978971  1  0  -0.061578  0  3.577999  0  0  0.034393  0  3.796827  0  0  0.01951  0  3.823955  0  -1.234983  0  -0.241275  0.044242  0  3.778358  0
N  N116  1  0.07371045  0.26524452  0.45617971  1  0  -0.410916  0  3.316045  0  0  -0.327148  0  3.601118  0  0  -0.351311  0  3.619382  0  -1.24352  0  -0.370983  -0.310585  0  3.588274  0
N  N117  1  0.92628855  0.73475486  0.54382068  1  0  -0.410836  0  3.316022  0  0  -0.327065  0  3.601091  0  0  -0.351229  0  3.619356  0  -1.243544  0  -0.37098  -0.310501  0  3.588245  0
O  O118  1  0.02942848  0.99972483  0.37724618  1  0  -0.66646  0  1.981363  0  0  -0.611403  0  2.240844  0  0  -0.636459  0  2.227391  0  -1.194854  0  -0.331622  -0.59389  0  2.249736  0
O  O119  1  0.97057172  0.00027455  0.62275475  1  0  -0.666457  0  1.981358  0  0  -0.611391  0  2.240827  0  0  -0.636449  0  2.227375  0  -1.19476  0  -0.331613  -0.593879  0  2.249719  0
O  O120  1  0.76763890  0.05485443  0.42703399  1  0  -0.681811  0  2.083975  0  0  -0.600065  0  2.336833  0  0  -0.631526  0  2.324993  0  -1.176327  0  -0.331386  -0.578139  0  2.344335  0
O  O121  1  0.23236130  0.94514495  0.57296626  1  0  -0.681818  0  2.083977  0  0  -0.600092  0  2.336838  0  0  -0.631553  0  2.324996  0  -1.176375  0  -0.331411  -0.578166  0  2.344341  0
O  O122  1  0.46625728  0.16543476  0.50102661  1  0  -0.83077  0  1.807143  0  0  -0.773439  0  1.988475  0  0  -0.7941  0  1.95483  0  -1.265634  0  -0.592083  -0.758637  0  2.01215  0
O  O123  1  0.53374286  0.83456558  0.49897355  1  0  -0.830777  0  1.80714  0  0  -0.773457  0  1.988477  0  0  -0.794112  0  1.954838  0  -1.26565  0  -0.592086  -0.758653  0  2.012154  0
O  O124  1  0.42334786  0.97140222  0.34957403  1  0  -0.679385  0  2.003166  0  0  -0.605294  0  2.241081  0  0  -0.634917  0  2.229407  0  -1.167712  0  -0.337837  -0.584413  0  2.248384  0
O  O125  1  0.57665229  0.02859811  0.65042612  1  0  -0.679309  0  2.003201  0  0  -0.605212  0  2.241109  0  0  -0.634832  0  2.229437  0  -1.16772  0  -0.337797  -0.584331  0  2.248411  0
O  O126  1  0.38416662  0.17320633  0.28510552  1  0  -0.638791  0  1.918765  0  0  -0.579054  0  2.152345  0  0  -0.605387  0  2.142898  0  -1.168392  0  -0.325572  -0.56049  0  2.158101  0
O  O127  1  0.61583347  0.82679497  0.71489455  1  0  -0.638758  0  1.918766  0  0  -0.579011  0  2.152333  0  0  -0.605349  0  2.142902  0  -1.168372  0  -0.325545  -0.560447  0  2.15809  0
