# generated using pymatgen
data_ZnH17C23(N3O2)2
_symmetry_space_group_name_H-M   'P 1'
_cell_length_a   10.82996728
_cell_length_b   15.05530394
_cell_length_c   14.78294107
_cell_angle_alpha   90.00004441
_cell_angle_beta   92.04466693
_cell_angle_gamma   89.99986333
_symmetry_Int_Tables_number   1
_chemical_formula_structural   ZnH17C23(N3O2)2
_chemical_formula_sum   'Zn4 H68 C92 N24 O16'
_cell_volume   2408.80099214
_cell_formula_units_Z   4
loop_
 _symmetry_equiv_pos_site_id
 _symmetry_equiv_pos_as_xyz
  1  'x, y, z'
loop_
 _atom_site_type_symbol
 _atom_site_label
 _atom_site_symmetry_multiplicity
 _atom_site_fract_x
 _atom_site_fract_y
 _atom_site_fract_z
 _atom_site_occupancy
 _atom_site_pbe_bader_charge
 _atom_site_pbe_bader_spin_density
 _atom_site_pbe_cm5_charge
 _atom_site_pbe_ddec_charge
 _atom_site_pbe_ddec_spin_density
 _atom_site_pbe_ddec_sum_bond_order
 _atom_site_pbe_magmom
Zn  Zn0  1  0.43166935  0.65649190  0.11751055  1  1.260657  0  0.698688  0.797578  0  2.424717  0
Zn  Zn1  1  0.06833077  0.15649131  0.88249048  1  1.260688  0  0.698701  0.797595  0  2.424693  0
Zn  Zn2  1  0.56832972  0.34350869  0.88249129  1  1.260679  0  0.698725  0.797619  0  2.424708  0
Zn  Zn3  1  0.93167108  0.84350795  0.11751008  1  1.260651  0  0.698703  0.797597  0  2.424696  0
H  H4  1  0.25269163  0.57411715  0.26417597  1  0.174622  0  0.138899  0.117158  0  1.018908  0
H  H5  1  0.24730785  0.07411747  0.73582295  1  0.17427  0  0.138915  0.117189  0  1.018914  0
H  H6  1  0.74730745  0.42588144  0.73582384  1  0.174269  0  0.138895  0.117194  0  1.018924  0
H  H7  1  0.75269124  0.92588312  0.26417551  1  0.174616  0  0.138893  0.117154  0  1.018926  0
H  H8  1  0.48273145  0.79801215  0.29068333  1  0.218593  0  0.147168  0.133094  0  1.006839  0
H  H9  1  0.01727006  0.29801284  0.70931718  1  0.218601  0  0.147162  0.133096  0  1.006839  0
H  H10  1  0.51726671  0.20198844  0.70931713  1  0.218551  0  0.147161  0.133092  0  1.006836  0
H  H11  1  0.98273179  0.70198775  0.29068339  1  0.218599  0  0.147165  0.133092  0  1.006826  0
H  H12  1  0.44566493  0.82901328  0.46206384  1  0.10242  0  0.120103  0.109756  0  0.998956  0
H  H13  1  0.05433371  0.32901245  0.53793661  1  0.10241  0  0.120117  0.109765  0  0.998947  0
H  H14  1  0.55433415  0.17098997  0.53793597  1  0.102679  0  0.120126  0.109793  0  0.998941  0
H  H15  1  0.94566445  0.67098549  0.46206318  1  0.102486  0  0.120092  0.109738  0  0.998982  0
H  H16  1  0.37340327  0.74275074  0.52171533  1  0.090154  0  0.122936  0.112341  0  0.958276  0
H  H17  1  0.12659658  0.24274974  0.47828508  1  0.09012  0  0.122944  0.11236  0  0.958242  0
H  H18  1  0.62659581  0.25725118  0.47828515  1  0.090108  0  0.122951  0.112386  0  0.958171  0
H  H19  1  0.87340251  0.75724952  0.52171405  1  0.090148  0  0.122958  0.112378  0  0.958221  0
H  H20  1  0.21386905  0.86571544  0.33007020  1  0.062503  0  0.096358  0.09155  0  1.054505  0
H  H21  1  0.28612947  0.36571431  0.66993028  1  0.063143  0  0.096374  0.091599  0  1.054451  0
H  H22  1  0.78612910  0.13428647  0.66993162  1  0.063076  0  0.096356  0.091581  0  1.054513  0
H  H23  1  0.71386776  0.63428561  0.33007015  1  0.06249  0  0.096371  0.091592  0  1.054486  0
H  H24  1  0.04263125  0.96803369  0.34754598  1  0.024428  0  0.096368  0.090999  0  1.035918  0
H  H25  1  0.45736971  0.46803093  0.65245532  1  0.024418  0  0.096355  0.090976  0  1.035961  0
H  H26  1  0.95736875  0.03196823  0.65245521  1  0.024444  0  0.096375  0.091005  0  1.035916  0
H  H27  1  0.54262845  0.53196900  0.34754514  1  0.024429  0  0.096397  0.091008  0  1.035907  0
H  H28  1  0.08712917  0.94443676  0.63844925  1  0.056515  0  0.101485  0.102261  0  1.018491  0
H  H29  1  0.41286911  0.44443784  0.36154790  1  0.056758  0  0.10147  0.102262  0  1.018474  0
H  H30  1  0.91286715  0.05556250  0.36154980  1  0.056518  0  0.10145  0.102212  0  1.018511  0
H  H31  1  0.58713182  0.55556076  0.63845264  1  0.056745  0  0.101479  0.10228  0  1.018506  0
H  H32  1  0.25623573  0.84066122  0.61956789  1  0.080235  0  0.103708  0.106628  0  0.991788  0
H  H33  1  0.24376195  0.34066061  0.38043254  1  0.079958  0  0.103713  0.106616  0  0.991778  0
H  H34  1  0.74376242  0.15933936  0.38043392  1  0.079786  0  0.103696  0.106634  0  0.991843  0
H  H35  1  0.75623714  0.65933865  0.61956659  1  0.079971  0  0.103706  0.106588  0  0.991825  0
H  H36  1  0.82340649  0.40620185  0.50484703  1  0.147464  0  0.092471  0.084499  0  1.094747  0
H  H37  1  0.67659411  0.90620317  0.49515371  1  0.147475  0  0.092468  0.084483  0  1.094797  0
H  H38  1  0.17659353  0.59380007  0.49515010  1  0.147219  0  0.092468  0.084467  0  1.094793  0
H  H39  1  0.32340588  0.09380008  0.50484883  1  0.14724  0  0.092456  0.084458  0  1.094808  0
H  H40  1  0.74112759  0.36403732  0.35525054  1  0.043724  0  0.095381  0.091366  0  1.010794  0
H  H41  1  0.75887407  0.86403927  0.64475019  1  0.043724  0  0.095405  0.091409  0  1.010758  0
H  H42  1  0.25887057  0.63596062  0.64474924  1  0.043761  0  0.095387  0.091335  0  1.010755  0
H  H43  1  0.24112964  0.13596132  0.35524975  1  0.043759  0  0.095375  0.09134  0  1.010774  0
H  H44  1  0.03373625  0.50744514  0.22988158  1  0.087343  0  0.102632  0.109348  0  1.030611  0
H  H45  1  0.46626344  0.00744577  0.77011864  1  0.08734  0  0.102623  0.109346  0  1.030596  0
H  H46  1  0.96626100  0.49255412  0.77011480  1  0.0873  0  0.102627  0.109389  0  1.030614  0
H  H47  1  0.53373932  0.99255282  0.22988533  1  0.087277  0  0.102618  0.109383  0  1.030642  0
H  H48  1  0.11730768  0.55044194  0.37989618  1  0.111931  0  0.098946  0.096735  0  1.068327  0
H  H49  1  0.38268911  0.05044127  0.62010332  1  0.111903  0  0.098946  0.096716  0  1.068358  0
H  H50  1  0.88269050  0.44956529  0.62010022  1  0.112086  0  0.09892  0.09666  0  1.06813  0
H  H51  1  0.61730904  0.94956464  0.37989917  1  0.112078  0  0.098927  0.096706  0  1.068124  0
H  H52  1  0.88561393  0.41297867  0.13640739  1  0.122081  0  0.121912  0.118396  0  0.983042  0
H  H53  1  0.61438664  0.91297904  0.86359268  1  0.122089  0  0.121911  0.11842  0  0.983015  0
H  H54  1  0.11438424  0.58701993  0.86358968  1  0.122088  0  0.121938  0.118426  0  0.983103  0
H  H55  1  0.38561612  0.08701889  0.13640927  1  0.122079  0  0.121936  0.118411  0  0.983102  0
H  H56  1  0.75745584  0.36154044  0.18755002  1  0.081605  0  0.12675  0.11679  0  0.94505  0
H  H57  1  0.74254491  0.86154189  0.81244934  1  0.081411  0  0.126745  0.116783  0  0.945088  0
H  H58  1  0.24254325  0.63845948  0.81244776  1  0.081423  0  0.126747  0.116795  0  0.945084  0
H  H59  1  0.25745694  0.13845936  0.18755123  1  0.081612  0  0.126759  0.116818  0  0.945059  0
H  H60  1  0.55794542  0.44711177  0.13584011  1  0.177803  0  0.156471  0.135537  0  0.956076  0
H  H61  1  0.94205597  0.94711225  0.86416001  1  0.177797  0  0.156462  0.135528  0  0.956081  0
H  H62  1  0.44205089  0.55288749  0.86415894  1  0.17784  0  0.15649  0.135587  0  0.956068  0
H  H63  1  0.05794865  0.05288768  0.13584131  1  0.177835  0  0.156498  0.135584  0  0.956055  0
H  H64  1  0.70596216  0.70550762  0.14872008  1  0.161118  0  0.137064  0.114905  0  1.022716  0
H  H65  1  0.79403817  0.20550795  0.85128049  1  0.161097  0  0.137057  0.114899  0  1.022724  0
H  H66  1  0.29403784  0.29449031  0.85128043  1  0.161061  0  0.137051  0.114851  0  1.022702  0
H  H67  1  0.20596369  0.79448998  0.14871940  1  0.161068  0  0.137055  0.114861  0  1.022705  0
H  H68  1  0.33822619  0.88432564  0.98323872  1  0.074339  0  0.105952  0.118432  0  1.000205  0
H  H69  1  0.16177689  0.38432422  0.01676122  1  0.074299  0  0.105953  0.11845  0  1.000257  0
H  H70  1  0.66177659  0.11567429  0.01676187  1  0.074326  0  0.105969  0.118471  0  1.000213  0
H  H71  1  0.83822496  0.61567437  0.98323935  1  0.074348  0  0.105943  0.118429  0  1.000196  0
C  C72  1  0.29791092  0.63220629  0.29329924  1  1.000804  0  0.154323  0.153744  0  3.969558  0
C  C73  1  0.20208653  0.13220666  0.70669966  1  1.001314  0  0.154341  0.153711  0  3.96958  0
C  C74  1  0.70208540  0.36779364  0.70669981  1  1.001318  0  0.15437  0.153712  0  3.969586  0
C  C75  1  0.79791072  0.86779326  0.29329874  1  1.000928  0  0.154333  0.153696  0  3.969605  0
C  C76  1  0.41697296  0.74577414  0.30485588  1  0.970579  0  0.173044  0.091171  0  3.8639  0
C  C77  1  0.08302503  0.24577404  0.69514380  1  0.970575  0  0.173019  0.091136  0  3.863881  0
C  C78  1  0.58302611  0.25422578  0.69514528  1  0.970655  0  0.17298  0.091116  0  3.863884  0
C  C79  1  0.91697406  0.75422588  0.30485533  1  0.970573  0  0.173007  0.09115  0  3.863899  0
C  C80  1  0.36167232  0.78816861  0.46395851  1  0.273487  0  -0.034011  -0.130902  0  3.896404  0
C  C81  1  0.13832738  0.28816896  0.53604126  1  0.27371  0  -0.034035  -0.130963  0  3.896445  0
C  C82  1  0.63832676  0.21183264  0.53604198  1  0.273604  0  -0.034074  -0.131026  0  3.896376  0
C  C83  1  0.86167171  0.71183030  0.46395787  1  0.273459  0  -0.033991  -0.130877  0  3.896313  0
C  C84  1  0.24893249  0.84607521  0.47336034  1  -0.001977  0  -0.013985  0.087477  0  3.98346  0
C  C85  1  0.25106796  0.34607470  0.52663814  1  -0.001848  0  -0.013981  0.087458  0  3.983535  0
C  C86  1  0.75106659  0.15392737  0.52664015  1  -0.001913  0  -0.013953  0.087489  0  3.983505  0
C  C87  1  0.74893205  0.65392323  0.47336169  1  -0.001788  0  -0.014018  0.087462  0  3.983448  0
C  C88  1  0.18571440  0.88229105  0.39800500  1  -0.05144  0  -0.09732  -0.130847  0  3.996373  0
C  C89  1  0.31428499  0.38228915  0.60199551  1  -0.052438  0  -0.097298  -0.130875  0  3.9964  0
C  C90  1  0.81428282  0.11771087  0.60199746  1  -0.052352  0  -0.097279  -0.130822  0  3.996429  0
C  C91  1  0.68571779  0.61770679  0.39800440  1  -0.051637  0  -0.097317  -0.130924  0  3.996296  0
C  C92  1  0.08843665  0.94134873  0.40843306  1  -0.020292  0  -0.093416  -0.121711  0  3.984459  0
C  C93  1  0.41156070  0.44134865  0.59156811  1  -0.020238  0  -0.093504  -0.121797  0  3.984617  0
C  C94  1  0.91155873  0.05865253  0.59156799  1  -0.020197  0  -0.093524  -0.121845  0  3.984621  0
C  C95  1  0.58843746  0.55865127  0.40843235  1  -0.020282  0  -0.0935  -0.12174  0  3.984437  0
C  C96  1  0.05037200  0.96724332  0.49458602  1  -0.000101  0  -0.010546  0.058983  0  3.993937  0
C  C97  1  0.44962526  0.46724511  0.50541450  1  0.045089  0  -0.010536  0.058968  0  3.993982  0
C  C98  1  0.94962338  0.03275527  0.50541504  1  0.045066  0  -0.010523  0.059  0  3.993884  0
C  C99  1  0.55037289  0.53275681  0.49458663  1  -0.000163  0  -0.010566  0.058933  0  3.993943  0
C  C100  1  0.11270543  0.92819792  0.56982115  1  -0.025673  0  -0.090136  -0.12324  0  3.97764  0
C  C101  1  0.38729382  0.42820042  0.43017737  1  -0.026375  0  -0.090129  -0.123255  0  3.977589  0
C  C102  1  0.88728996  0.07180001  0.43017856  1  -0.026049  0  -0.090112  -0.123186  0  3.977467  0
C  C103  1  0.61270711  0.57179951  0.56982384  1  -0.026407  0  -0.090123  -0.123253  0  3.977617  0
C  C104  1  0.20967338  0.86874702  0.55944029  1  -0.088046  0  -0.090672  -0.129032  0  3.998491  0
C  C105  1  0.29032605  0.36874837  0.44056021  1  -0.087256  0  -0.090638  -0.128906  0  3.998454  0
C  C106  1  0.79032384  0.13125356  0.44056149  1  -0.087319  0  -0.090633  -0.128997  0  3.998491  0
C  C107  1  0.70967303  0.63125156  0.55944028  1  -0.087264  0  -0.090608  -0.128888  0  3.998505  0
C  C108  1  0.97636476  0.48436020  0.45503643  1  -0.023235  0  -0.011854  0.056616  0  3.990348  0
C  C109  1  0.52363466  0.98436049  0.54496367  1  -0.065601  0  -0.011838  0.056586  0  3.99031  0
C  C110  1  0.02363064  0.51564305  0.54495990  1  -0.065896  0  -0.011997  0.056219  0  3.990547  0
C  C111  1  0.47636810  0.01564342  0.45503963  1  -0.023185  0  -0.011971  0.056316  0  3.990476  0
C  C112  1  0.87174448  0.42908076  0.44580045  1  -0.103659  0  -0.096241  -0.126052  0  3.979225  0
C  C113  1  0.62825513  0.92908088  0.55419893  1  -0.10396  0  -0.096191  -0.12594  0  3.979251  0
C  C114  1  0.12825370  0.57091916  0.55419527  1  -0.103363  0  -0.096195  -0.125876  0  3.979167  0
C  C115  1  0.37174580  0.07091904  0.44580297  1  -0.103366  0  -0.096204  -0.12595  0  3.979247  0
C  C116  1  0.82499184  0.40432737  0.36050439  1  -0.032141  0  -0.096626  -0.135181  0  4.01813  0
C  C117  1  0.67500969  0.90432880  0.63949570  1  -0.032195  0  -0.096679  -0.13528  0  4.018099  0
C  C118  1  0.17500726  0.59567189  0.63949204  1  -0.032394  0  -0.09662  -0.135139  0  4.017971  0
C  C119  1  0.32499308  0.09567179  0.36050692  1  -0.032399  0  -0.096611  -0.135133  0  4.018023  0
C  C120  1  0.88064949  0.43309390  0.28179244  1  -0.038052  0  -0.018344  0.076291  0  4.004822  0
C  C121  1  0.61935195  0.93309615  0.71820767  1  -0.037819  0  -0.018394  0.076285  0  4.004752  0
C  C122  1  0.11935515  0.56690404  0.71820550  1  -0.037912  0  -0.018406  0.076246  0  4.004853  0
C  C123  1  0.38064436  0.06690378  0.28179342  1  -0.037907  0  -0.01839  0.076268  0  4.004841  0
C  C124  1  0.98834825  0.48435680  0.29022222  1  -0.12113  0  -0.088294  -0.118891  0  3.978305  0
C  C125  1  0.51165487  0.98436056  0.70977730  1  -0.121303  0  -0.088272  -0.11891  0  3.978259  0
C  C126  1  0.01165823  0.51563914  0.70977645  1  -0.121119  0  -0.088302  -0.118942  0  3.978348  0
C  C127  1  0.48834236  0.01563870  0.29022246  1  -0.121133  0  -0.08824  -0.118845  0  3.978199  0
C  C128  1  0.03489344  0.50927246  0.37535249  1  -0.016177  0  -0.095377  -0.132277  0  3.972314  0
C  C129  1  0.46510625  0.00927431  0.62464706  1  -0.016133  0  -0.095375  -0.132212  0  3.972311  0
C  C130  1  0.96510566  0.49073278  0.62464530  1  -0.016246  0  -0.095289  -0.13207  0  3.972212  0
C  C131  1  0.53489375  0.99073159  0.37535345  1  -0.016231  0  -0.095399  -0.132297  0  3.972141  0
C  C132  1  0.81868014  0.41956446  0.19004120  1  0.276341  0  -0.034049  -0.128481  0  3.866231  0
C  C133  1  0.68132042  0.91956535  0.80995888  1  0.276391  0  -0.034038  -0.128524  0  3.86625  0
C  C134  1  0.18131711  0.58043480  0.80995653  1  0.276592  0  -0.034081  -0.128579  0  3.866454  0
C  C135  1  0.31868143  0.08043457  0.19004237  1  0.276394  0  -0.034084  -0.128597  0  3.866374  0
C  C136  1  0.62069236  0.50294852  0.14425972  1  0.996068  0  0.173913  0.090401  0  3.881126  0
C  C137  1  0.87930956  0.00294870  0.85574006  1  0.996054  0  0.173929  0.09041  0  3.881146  0
C  C138  1  0.37930488  0.49705074  0.85573936  1  0.996115  0  0.173912  0.090383  0  3.881236  0
C  C139  1  0.12069506  0.99705056  0.14426058  1  0.996117  0  0.17389  0.090358  0  3.881156  0
C  C140  1  0.69985411  0.63347787  0.15092507  1  1.004328  0  0.150531  0.135219  0  3.962727  0
C  C141  1  0.80014646  0.13347818  0.84907477  1  1.004332  0  0.15053  0.135218  0  3.962742  0
C  C142  1  0.30014497  0.36652073  0.84907474  1  1.004305  0  0.150558  0.135373  0  3.96262  0
C  C143  1  0.19985540  0.86652108  0.15092512  1  1.004305  0  0.150544  0.135334  0  3.962603  0
C  C144  1  0.52801978  0.82808648  0.08670589  1  1.578331  0  0.202753  0.579492  0  4.224522  0
C  C145  1  0.97198199  0.32808655  0.91329482  1  1.578361  0  0.20283  0.579677  0  4.224535  0
C  C146  1  0.47198114  0.17191344  0.91329533  1  1.578303  0  0.202813  0.579524  0  4.224557  0
C  C147  1  0.02802078  0.67191271  0.08670577  1  1.578295  0  0.202825  0.579563  0  4.224459  0
C  C148  1  0.52017638  0.91507309  0.03721590  1  -0.05159  0  -0.012866  -0.04933  0  3.953792  0
C  C149  1  0.97982696  0.41507318  0.96278425  1  -0.051557  0  -0.012815  -0.049334  0  3.953922  0
C  C150  1  0.47982454  0.08492750  0.96278667  1  -0.051549  0  -0.012897  -0.049311  0  3.953943  0
C  C151  1  0.02017767  0.58492675  0.03721369  1  -0.051548  0  -0.012901  -0.049341  0  3.953908  0
C  C152  1  0.61262609  0.98059610  0.04635260  1  0.011864  0  -0.012227  -0.043062  0  3.952796  0
C  C153  1  0.88737704  0.48059701  0.95364692  1  0.011973  0  -0.012197  -0.042922  0  3.952851  0
C  C154  1  0.38737576  0.01940382  0.95364864  1  0.011959  0  -0.0122  -0.042985  0  3.95279  0
C  C155  1  0.11262667  0.51940358  0.04635099  1  0.011973  0  -0.012197  -0.042907  0  3.952821  0
C  C156  1  0.40970223  0.93505521  0.98959112  1  0.000396  0  -0.085264  -0.129582  0  3.972512  0
C  C157  1  0.09030069  0.43505458  0.01040954  1  0.000369  0  -0.085325  -0.129745  0  3.972793  0
C  C158  1  0.59029962  0.06494471  0.01041080  1  0.000343  0  -0.085281  -0.129649  0  3.97268  0
C  C159  1  0.90970210  0.56494468  0.98958970  1  0.000309  0  -0.085259  -0.129621  0  3.972621  0
C  C160  1  0.73937166  0.96085346  0.08610438  1  1.588637  0  0.197089  0.5794  0  4.238125  0
C  C161  1  0.76063061  0.46085389  0.91389645  1  1.588633  0  0.197075  0.579331  0  4.238018  0
C  C162  1  0.26063019  0.03914580  0.91389686  1  1.588578  0  0.197076  0.579389  0  4.238034  0
C  C163  1  0.23937125  0.53914537  0.08610344  1  1.588536  0  0.19707  0.579296  0  4.238182  0
N  N164  1  0.38105773  0.68148518  0.24699089  1  -1.249235  0  -0.345317  -0.318325  0  3.547108  0
N  N165  1  0.11894140  0.18148506  0.75300878  1  -1.249241  0  -0.34533  -0.318308  0  3.547111  0
N  N166  1  0.61894135  0.31851541  0.75300960  1  -1.249268  0  -0.345362  -0.318362  0  3.547159  0
N  N167  1  0.88105769  0.81851486  0.24698968  1  -1.249252  0  -0.345334  -0.318325  0  3.547094  0
N  N168  1  0.28072754  0.66261954  0.37580882  1  -0.694619  0  -0.218077  -0.262889  0  3.129925  0
N  N169  1  0.21927072  0.16261982  0.62419081  1  -0.694736  0  -0.218067  -0.262869  0  3.12992  0
N  N170  1  0.71926969  0.33738039  0.62419094  1  -0.694763  0  -0.218083  -0.262847  0  3.129846  0
N  N171  1  0.78072744  0.83738011  0.37580762  1  -0.694766  0  -0.218035  -0.262794  0  3.129882  0
N  N172  1  0.35728802  0.73452370  0.38212247  1  -0.817113  0  -0.130503  0.171801  0  3.748671  0
N  N173  1  0.14271093  0.23452411  0.61787656  1  -0.817124  0  -0.130502  0.17183  0  3.748649  0
N  N174  1  0.64270921  0.26547622  0.61787729  1  -0.817183  0  -0.130443  0.171837  0  3.748615  0
N  N175  1  0.85728816  0.76547582  0.38212190  1  -0.817095  0  -0.130513  0.171738  0  3.748655  0
N  N176  1  0.59153753  0.58882392  0.13304695  1  -1.256306  0  -0.35137  -0.321768  0  3.583358  0
N  N177  1  0.90846411  0.08882406  0.86695357  1  -1.256337  0  -0.351399  -0.32179  0  3.583371  0
N  N178  1  0.40846155  0.41117534  0.86695353  1  -1.256272  0  -0.351385  -0.321866  0  3.583381  0
N  N179  1  0.09153867  0.91117520  0.13304635  1  -1.25628  0  -0.351383  -0.321849  0  3.583336  0
N  N180  1  0.79274691  0.57996576  0.17305509  1  -0.669929  0  -0.20757  -0.238375  0  3.149566  0
N  N181  1  0.70725383  0.07996687  0.82694539  1  -0.669914  0  -0.20754  -0.238335  0  3.149518  0
N  N182  1  0.20725218  0.42003151  0.82694336  1  -0.669989  0  -0.207617  -0.238491  0  3.149652  0
N  N183  1  0.29274802  0.92003172  0.17305585  1  -0.66999  0  -0.207594  -0.238476  0  3.149588  0
N  N184  1  0.74131723  0.49763003  0.16812492  1  -0.798664  0  -0.1212  0.173549  0  3.71543  0
N  N185  1  0.75868399  0.99763080  0.83187524  1  -0.798476  0  -0.121188  0.173561  0  3.715349  0
N  N186  1  0.25868002  0.50236856  0.83187281  1  -0.798681  0  -0.121185  0.173618  0  3.715489  0
N  N187  1  0.24131970  0.00236846  0.16812606  1  -0.79869  0  -0.121164  0.173679  0  3.715381  0
O  O188  1  0.46460917  0.76432560  0.04874508  1  -1.177425  0  -0.343798  -0.554945  0  2.304476  0
O  O189  1  0.03539153  0.26432512  0.95125606  1  -1.177501  0  -0.34381  -0.554986  0  2.30447  0
O  O190  1  0.53539176  0.23567499  0.95125614  1  -1.177487  0  -0.343812  -0.55495  0  2.3045  0
O  O191  1  0.96460847  0.73567348  0.04874513  1  -1.177394  0  -0.343799  -0.554942  0  2.304436  0
O  O192  1  0.58661490  0.82296335  0.16127719  1  -1.182991  0  -0.322897  -0.567883  0  2.173872  0
O  O193  1  0.91338690  0.32296279  0.83872352  1  -1.182976  0  -0.322999  -0.568046  0  2.173949  0
O  O194  1  0.41338696  0.17703591  0.83872270  1  -1.182955  0  -0.322947  -0.567918  0  2.173857  0
O  O195  1  0.08661403  0.67703580  0.16127770  1  -1.183008  0  -0.322942  -0.567934  0  2.173903  0
O  O196  1  0.79231556  0.89356084  0.04815812  1  -1.165582  0  -0.346603  -0.564553  0  2.309776  0
O  O197  1  0.70768600  0.39356139  0.95184196  1  -1.165685  0  -0.346654  -0.564567  0  2.309583  0
O  O198  1  0.20768629  0.10643842  0.95184244  1  -1.165684  0  -0.346653  -0.564595  0  2.309677  0
O  O199  1  0.29231585  0.60643854  0.04815861  1  -1.165636  0  -0.346594  -0.564515  0  2.30975  0
O  O200  1  0.78747530  0.00841834  0.14709727  1  -1.194254  0  -0.346307  -0.574073  0  2.073156  0
O  O201  1  0.71252660  0.50841854  0.85290319  1  -1.194216  0  -0.34627  -0.574046  0  2.073171  0
O  O202  1  0.21252747  0.99158092  0.85290332  1  -1.194217  0  -0.346272  -0.574069  0  2.073156  0
O  O203  1  0.28747434  0.49158072  0.14709667  1  -1.19425  0  -0.346302  -0.574047  0  2.073183  0
