# generated using pymatgen
data_CuH12C9N3ClO
_symmetry_space_group_name_H-M   'P 1'
_cell_length_a   7.02014216
_cell_length_b   7.61613390
_cell_length_c   22.40700000
_cell_angle_alpha   90.00000000
_cell_angle_beta   90.00000000
_cell_angle_gamma   90.07419536
_symmetry_Int_Tables_number   1
_chemical_formula_structural   CuH12C9N3ClO
_chemical_formula_sum   'Cu4 H48 C36 N12 Cl4 O4'
_cell_volume   1198.01933705
_cell_formula_units_Z   4
loop_
 _symmetry_equiv_pos_site_id
 _symmetry_equiv_pos_as_xyz
  1  'x, y, z'
loop_
 _atom_site_type_symbol
 _atom_site_label
 _atom_site_symmetry_multiplicity
 _atom_site_fract_x
 _atom_site_fract_y
 _atom_site_fract_z
 _atom_site_occupancy
 _atom_site_hle17_ddec_charge
 _atom_site_hle17_ddec_spin_density
 _atom_site_hle17_ddec_sum_bond_order
 _atom_site_hle17_magmom
 _atom_site_hse06_10hf_ddec_charge
 _atom_site_hse06_10hf_ddec_spin_density
 _atom_site_hse06_10hf_ddec_sum_bond_order
 _atom_site_hse06_10hf_magmom
 _atom_site_hse06_ddec_charge
 _atom_site_hse06_ddec_spin_density
 _atom_site_hse06_ddec_sum_bond_order
 _atom_site_hse06_magmom
 _atom_site_pbe_bader_charge
 _atom_site_pbe_bader_spin_density
 _atom_site_pbe_cm5_charge
 _atom_site_pbe_ddec_charge
 _atom_site_pbe_ddec_spin_density
 _atom_site_pbe_ddec_sum_bond_order
 _atom_site_pbe_magmom
Cu  Cu0  1  0.94593571  0.60665607  0.71687241  1  0.716649  0.682625  1.997869  0.47  0.685766  0.767244  2.416413  0.58  0.769367  0.843321  2.348875  0.66  0.923076  0.531877  0.653721  0.638014  0.716299  2.460207  0.53
Cu  Cu1  1  0.05407306  0.89333720  0.21686437  1  0.716592  -0.682619  1.997774  -0.47  0.685778  -0.767216  2.416213  -0.58  0.769375  -0.843305  2.348672  -0.66  0.923119  -0.531871  0.653777  0.638052  -0.716111  2.460054  -0.53
Cu  Cu2  1  0.05406150  0.39334688  0.28312759  1  0.716657  -0.682629  1.997809  -0.47  0.685794  -0.767251  2.416374  -0.58  0.769306  -0.84333  2.348892  -0.66  0.923049  -0.531861  0.653752  0.638033  -0.716104  2.460181  -0.53
Cu  Cu3  1  0.94592557  0.10666050  0.78313473  1  0.716569  0.682619  1.997765  0.47  0.685673  0.767213  2.416233  0.58  0.769366  0.843314  2.348682  0.66  0.923156  0.531881  0.653731  0.637996  0.716288  2.460042  0.53
H  H4  1  0.82410299  0.75337368  0.62420627  1  0.269894  -0.000997  0.900523  -0.002  0.269182  0.000394  0.94943  0.0  0.273581  3.3e-05  0.949033  -0.001  0.399722  0.000612  0.290964  0.266054  0.0007  0.950303  0.0
H  H5  1  0.17591004  0.74661040  0.12420047  1  0.269949  0.000998  0.900418  0.002  0.269212  -0.000395  0.949362  0.0  0.273608  -3.2e-05  0.948967  0.001  0.399598  -0.000595  0.290926  0.266092  -0.000691  0.950242  0.0
H  H6  1  0.17589279  0.24663059  0.37579417  1  0.269924  0.000997  0.900517  0.002  0.269212  -0.000395  0.949432  0.0  0.27361  -3.2e-05  0.949031  0.001  0.399754  -0.000608  0.290984  0.266087  -0.000697  0.95031  0.0
H  H7  1  0.82408289  0.25338861  0.87579997  1  0.269962  -0.000997  0.900437  -0.002  0.269218  0.000394  0.949382  0.0  0.273615  3.3e-05  0.948988  -0.001  0.399474  0.000622  0.290918  0.266098  0.000706  0.950255  0.0
H  H8  1  0.66210385  0.60463011  0.64133039  1  0.311306  3.1e-05  0.910567  -0.001  0.298697  0.001062  0.973838  0.001  0.307247  0.000752  0.967854  0.0  0.47437  0.000757  0.285103  0.292494  0.00122  0.978493  0.001
H  H9  1  0.33790776  0.89535791  0.14132459  1  0.311239  -3.1e-05  0.910664  0.001  0.298635  -0.001062  0.973924  -0.001  0.307184  -0.000752  0.96794  0.0  0.474327  -0.000748  0.285093  0.292438  -0.001213  0.978578  -0.001
H  H10  1  0.33789478  0.39537416  0.35867095  1  0.311329  -3.1e-05  0.910548  0.001  0.298719  -0.001063  0.973831  -0.001  0.307266  -0.000753  0.967852  0.0  0.474391  -0.000755  0.285115  0.292518  -0.001218  0.978485  -0.001
H  H11  1  0.66208802  0.10463979  0.85867586  1  0.311269  3.1e-05  0.910616  -0.001  0.29864  0.001061  0.973902  0.001  0.307191  0.000752  0.967919  0.0  0.474292  0.000762  0.285094  0.292443  0.001223  0.978554  0.001
H  H12  1  0.79169130  0.49840158  0.55488508  1  0.059584  0.003975  0.920021  0.005  0.078492  0.003179  0.976995  0.004  0.078871  0.002342  0.976156  0.003  0.03546  0.006742  0.10083  0.077833  0.003661  0.977841  0.004
H  H13  1  0.20832278  0.00157166  0.05487660  1  0.059692  -0.003977  0.920005  -0.005  0.078504  -0.003178  0.977088  -0.004  0.078872  -0.002341  0.976249  -0.003  0.035426  -0.006716  0.100902  0.077877  -0.003646  0.977931  -0.004
H  H14  1  0.20830162  0.50159349  0.44511804  1  0.059586  -0.003979  0.920049  -0.005  0.078484  -0.003179  0.977058  -0.004  0.078867  -0.002342  0.976212  -0.003  0.035755  -0.006732  0.100841  0.077843  -0.003656  0.9779  -0.004
H  H15  1  0.79167158  0.99842997  0.94512340  1  0.059712  0.003975  0.919947  0.005  0.078557  0.003178  0.977023  0.004  0.078927  0.002341  0.976182  0.003  0.035359  0.006755  0.100912  0.077907  0.003668  0.977875  0.004
H  H16  1  0.88865991  0.37403392  0.61448387  1  0.055318  0.000768  0.952198  0.001  0.069598  0.000735  1.019966  0.001  0.068463  0.000509  1.021498  0.001  0.054529  0.002007  0.096391  0.070144  0.000897  1.019045  0.001
H  H17  1  0.11136701  0.12595509  0.11447449  1  0.055253  -0.000766  0.952215  -0.001  0.069668  -0.000735  1.019828  -0.001  0.068526  -0.000509  1.021371  -0.001  0.054707  -0.001987  0.096464  0.070228  -0.000887  1.018899  -0.001
H  H18  1  0.11134014  0.62596510  0.38552015  1  0.055261  -0.00077  0.95226  -0.001  0.069636  -0.000735  1.019904  -0.001  0.068498  -0.000509  1.021447  -0.001  0.054588  -0.001998  0.096395  0.070179  -0.000892  1.018985  -0.001
H  H19  1  0.88862450  0.87404393  0.88552684  1  0.055251  0.000767  0.95218  0.001  0.069694  0.000735  1.019788  0.001  0.068556  0.000509  1.021332  0.001  0.054407  0.002013  0.096472  0.070253  0.000901  1.018858  0.001
H  H20  1  0.13697686  0.46306998  0.54007899  1  0.096592  -0.000138  0.938586  0.0  0.1149  -6.2e-05  0.995533  0.0  0.116506  -8.1e-05  0.995149  0.0  0.042909  -2.2e-05  0.100213  0.113706  -3.1e-05  0.995884  0.0
H  H21  1  0.86303725  0.03692559  0.04007141  1  0.096641  0.000138  0.938726  0.0  0.114911  6.2e-05  0.995719  0.0  0.116515  8.1e-05  0.995339  0.0  0.042723  4.2e-05  0.100205  0.113737  4.2e-05  0.996065  0.0
H  H22  1  0.86301323  0.53693429  0.45992190  1  0.096518  0.000137  0.938634  0.0  0.114817  6.2e-05  0.995604  0.0  0.116421  8.1e-05  0.995222  0.0  0.042959  2.9e-05  0.100189  0.113639  3.5e-05  0.995947  0.0
H  H23  1  0.13695426  0.96307736  0.95992993  1  0.096586  -0.000137  0.938752  0.0  0.114868  -6.2e-05  0.995729  0.0  0.116473  -8.1e-05  0.995346  0.0  0.042857  -1e-05  0.100168  0.113676  -2.5e-05  0.996082  0.0
H  H24  1  0.08639875  0.68557544  0.55228946  1  0.08005  -0.000285  0.938173  0.0  0.095219  -0.000123  1.001339  0.0  0.096914  -0.000119  1.000897  0.0  0.021747  -0.00017  0.090978  0.094087  -0.000118  1.001647  0.0
H  H25  1  0.91360289  0.81441126  0.05228232  1  0.080027  0.000284  0.938371  0.0  0.095214  0.000123  1.001524  0.0  0.09691  0.000119  1.00108  0.0  0.021605  0.000192  0.091  0.094102  0.000128  1.001823  0.0
H  H26  1  0.91358991  0.31442357  0.44771098  1  0.080011  0.000286  0.938171  0.0  0.095185  0.000123  1.001333  0.0  0.096878  0.000119  1.000892  0.0  0.021829  0.000177  0.090995  0.094065  0.000121  1.001634  0.0
H  H27  1  0.08639146  0.18558775  0.94771634  1  0.080011  -0.000286  0.938329  0.0  0.095189  -0.000123  1.001486  0.0  0.096884  -0.000119  1.001041  0.0  0.021643  -0.000155  0.09097  0.094065  -0.000111  1.001792  0.0
H  H28  1  0.44619021  0.66095795  0.71677154  1  0.078108  0.000159  0.958323  0.0  0.095646  0.000246  1.023629  0.0  0.095511  0.000175  1.023536  0.0  0.092673  0.000709  0.098013  0.095696  0.000311  1.023651  0.0
H  H29  1  0.55381856  0.83903532  0.21676307  1  0.078138  -0.00016  0.958417  0.0  0.095706  -0.000245  1.02364  0.0  0.095543  -0.000175  1.023608  0.0  0.092616  -0.000695  0.098016  0.09577  -0.000304  1.023662  0.0
H  H30  1  0.55380699  0.33904107  0.28322846  1  0.078075  -0.00016  0.958302  0.0  0.095621  -0.000246  1.023605  0.0  0.095495  -0.000175  1.023503  0.0  0.09267  -0.000698  0.097989  0.09566  -0.000306  1.023639  0.0
H  H31  1  0.44617864  0.16095975  0.78323961  1  0.078044  0.000159  0.958273  0.0  0.095562  0.000246  1.023505  0.0  0.095401  0.000175  1.023469  0.0  0.09263  0.00071  0.097976  0.095622  0.000312  1.023529  0.0
H  H32  1  0.44171695  0.43252558  0.71246307  1  0.091068  0.001984  0.956729  0.002  0.111161  0.001459  1.012531  0.001  0.11136  0.001079  1.012262  0.001  0.105447  0.002479  0.097619  0.110929  0.001714  1.012814  0.001
H  H33  1  0.55829145  0.06746079  0.21245727  1  0.091087  -0.001983  0.9567  -0.002  0.111182  -0.001458  1.012469  -0.001  0.111376  -0.001079  1.012199  -0.001  0.10553  -0.002465  0.097626  0.110963  -0.001706  1.012755  -0.001
H  H34  1  0.55828167  0.56746818  0.28753604  1  0.091051  -0.001982  0.956781  -0.002  0.11114  -0.001458  1.012574  -0.001  0.11134  -0.001079  1.012312  -0.001  0.105469  -0.002467  0.097615  0.110902  -0.001707  1.012855  -0.001
H  H35  1  0.44170860  0.93253297  0.78754407  1  0.091013  0.001982  0.956913  0.002  0.111124  0.001458  1.012591  0.001  0.111321  0.001079  1.012317  0.001  0.105454  0.00248  0.097622  0.110902  0.001714  1.012877  0.001
H  H36  1  0.55116131  0.48372614  0.82309189  1  0.10933  0.000507  0.971135  0.001  0.116583  0.000617  1.037037  0.001  0.119934  0.000434  1.035251  0.0  0.132603  0.001441  0.097695  0.114109  0.00078  1.038511  0.001
H  H37  1  0.44886140  0.01630750  0.32308520  1  0.109342  -0.000508  0.971383  -0.001  0.116671  -0.000617  1.037161  -0.001  0.120009  -0.000434  1.035411  0.0  0.132807  -0.001427  0.097716  0.1142  -0.000772  1.038628  -0.001
H  H38  1  0.44883874  0.51627418  0.17690588  1  0.109344  -0.000508  0.971104  -0.001  0.116646  -0.000617  1.036951  -0.001  0.119998  -0.000434  1.035165  0.0  0.132713  -0.001423  0.097695  0.114159  -0.00077  1.038455  -0.001
H  H39  1  0.55114864  0.98370333  0.67691748  1  0.109374  0.000508  0.971307  0.001  0.116635  0.000617  1.037182  0.001  0.119977  0.000434  1.03542  0.0  0.132652  0.001437  0.097699  0.114164  0.000778  1.038652  0.001
H  H40  1  0.41808410  0.47754453  0.92766412  1  0.090529  0.000224  0.922901  0.0  0.106252  3.4e-05  0.971736  0.0  0.109288  -2e-06  0.96902  0.0  0.079101  0.000152  0.110556  0.103821  9.4e-05  0.974055  0.0
H  H41  1  0.58195576  0.02252326  0.42765252  1  0.090596  -0.000223  0.922806  0.0  0.106364  -3.4e-05  0.9716  0.0  0.109382  2e-06  0.968916  0.0  0.07529  -0.000117  0.110714  0.103982  -7.6e-05  0.973886  0.0
H  H42  1  0.58191738  0.52245711  0.07233365  1  0.090553  -0.000224  0.922886  0.0  0.106279  -3.4e-05  0.971712  0.0  0.109306  1e-06  0.969007  0.0  0.079064  -9.3e-05  0.110586  0.10386  -6.3e-05  0.974027  0.0
H  H43  1  0.41806710  0.97748626  0.57234793  1  0.090442  0.000224  0.922849  0.0  0.106185  3.4e-05  0.971683  0.0  0.109197  -2e-06  0.969003  0.0  0.079683  0.00013  0.110656  0.103788  8.3e-05  0.973971  0.0
H  H44  1  0.06758962  0.53827486  0.94189762  1  0.089834  0.000624  0.949763  0.001  0.103536  0.000659  1.002854  0.001  0.106891  0.000496  1.001741  0.0  0.061676  0.001542  0.102338  0.100906  0.000802  1.004119  0.001
H  H45  1  0.93244347  0.96179062  0.44188557  1  0.089833  -0.000624  0.949763  -0.001  0.103549  -0.000659  1.002815  -0.001  0.106897  -0.000496  1.001714  0.0  0.061424  -0.001514  0.102406  0.100941  -0.000788  1.004082  -0.001
H  H46  1  0.93241471  0.46172940  0.05810193  1  0.089865  -0.000624  0.949717  -0.001  0.103548  -0.000659  1.002828  -0.001  0.106898  -0.000496  1.001722  0.0  0.061584  -0.001495  0.102386  0.100937  -0.000779  1.004087  -0.001
H  H47  1  0.06757939  0.03821890  0.55811175  1  0.089725  0.000624  0.949782  0.001  0.103445  0.000659  1.00284  0.001  0.106802  0.000496  1.001728  0.0  0.061873  0.001524  0.10235  0.100811  0.000793  1.004117  0.001
H  H48  1  0.86748283  0.59546272  0.85060071  1  0.074489  0.00125  0.960316  0.002  0.083593  0.001275  1.024612  0.002  0.085944  0.000951  1.021829  0.001  0.087442  0.003156  0.109319  0.081624  0.00154  1.026909  0.002
H  H49  1  0.13252741  0.90456206  0.35058955  1  0.074443  -0.001249  0.96027  -0.002  0.083497  -0.001274  1.024654  -0.002  0.085871  -0.00095  1.021839  -0.001  0.087303  -0.003138  0.109332  0.081533  -0.001529  1.026954  -0.002
H  H50  1  0.13252008  0.40454155  0.14939974  1  0.074452  -0.00125  0.960374  -0.002  0.083546  -0.001275  1.024677  -0.002  0.085901  -0.00095  1.021892  -0.001  0.087415  -0.003131  0.109311  0.081575  -0.001525  1.026976  -0.002
H  H51  1  0.86748261  0.09543564  0.64940644  1  0.074381  0.00125  0.960384  0.002  0.083517  0.001275  1.024666  0.002  0.085855  0.000951  1.021896  0.001  0.08745  0.00315  0.109368  0.081551  0.001537  1.026963  0.002
C  C52  1  0.88781196  0.50455300  0.59373276  1  0.091209  -0.001404  3.64544  -0.004  0.03629  0.000923  3.913017  -0.001  0.042984  1.9e-05  3.926223  -0.002  0.296967  0.00141  -0.078226  0.032412  0.001687  3.904064  -0.001
C  C53  1  0.11219823  0.99543633  0.09372339  1  0.091182  0.001406  3.645293  0.004  0.036213  -0.000925  3.912957  0.001  0.042931  -2.1e-05  3.926117  0.002  0.29637  -0.001393  -0.078288  0.032335  -0.001674  3.904027  0.001
C  C54  1  0.11218239  0.49544470  0.40626947  1  0.091043  0.00141  3.645433  0.004  0.036062  -0.000925  3.913102  0.001  0.042757  -2e-05  3.926299  0.002  0.296771  -0.001411  -0.078332  0.032199  -0.001686  3.904135  0.001
C  C55  1  0.88779185  0.00456269  0.90627661  1  0.091114  -0.001406  3.645163  -0.004  0.036042  0.000925  3.912951  -0.001  0.04275  2e-05  3.926127  -0.002  0.296783  0.001422  -0.078376  0.032158  0.001698  3.904022  -0.001
C  C56  1  0.08798576  0.55589668  0.57437720  1  -0.264869  -0.00044  3.706012  0.0  -0.307041  2.4e-05  3.963321  0.0  -0.312887  1.6e-05  3.973488  0.0  -0.021472  0.000381  -0.164959  -0.302995  6.7e-05  3.95587  0.0
C  C57  1  0.91202728  0.94409396  0.07436739  1  -0.264716  0.00044  3.706187  0.0  -0.306941  -2.5e-05  3.963508  0.0  -0.312788  -1.8e-05  3.973674  0.0  -0.021221  -0.000367  -0.164911  -0.302874  -5.6e-05  3.956052  0.0
C  C58  1  0.91200575  0.44410627  0.42562369  1  -0.26449  0.00044  3.705844  0.0  -0.306679  -2.4e-05  3.96309  0.0  -0.312527  -1.8e-05  3.973277  0.0  -0.02144  -0.000376  -0.164831  -0.30262  -6.3e-05  3.955623  0.0
C  C59  1  0.08796422  0.05589980  0.92563217  1  -0.264644  -0.000439  3.706183  0.0  -0.306834  2.2e-05  3.963456  0.0  -0.312675  1.9e-05  3.973625  0.0  -0.02159  0.000391  -0.1649  -0.302784  7.5e-05  3.956008  0.0
C  C60  1  0.24441141  0.55998143  0.62167135  1  0.544702  -0.006434  3.875922  -0.006  0.51814  -0.000425  4.166844  -0.001  0.548646  -0.000922  4.171566  -0.001  1.37551  -0.00157  0.201152  0.497682  -5.8e-05  4.162248  -0.001
C  C61  1  0.75560306  0.94001315  0.12166510  1  0.544214  0.006439  3.876387  0.006  0.517823  0.000425  4.167147  0.001  0.548321  0.000924  4.171876  0.001  1.375414  0.001587  0.201097  0.497361  7.3e-05  4.162552  0.001
C  C62  1  0.75558437  0.44002152  0.37832686  1  0.544268  0.006435  3.876149  0.006  0.517848  0.000423  4.166912  0.001  0.54835  0.000922  4.171638  0.001  1.375219  0.001576  0.200974  0.497379  6.3e-05  4.162318  0.001
C  C63  1  0.24439556  0.05998193  0.87833668  1  0.544285  -0.006436  3.876442  -0.006  0.517917  -0.000424  4.167161  -0.001  0.548419  -0.000924  4.171889  -0.001  1.375406  -0.00156  0.201173  0.49747  -5e-05  4.162551  -0.001
C  C64  1  0.34933811  0.54683302  0.72098050  1  -0.05078  0.005907  3.7665  0.005  -0.106305  0.005254  4.019729  0.005  -0.101617  0.003697  4.033395  0.003  0.268592  0.007776  -0.077891  -0.109245  0.006276  4.010632  0.006
C  C65  1  0.65066639  0.95316156  0.22097246  1  -0.050765  -0.005903  3.76621  -0.005  -0.10629  -0.005255  4.019454  -0.005  -0.101582  -0.003695  4.03305  -0.003  0.268311  -0.007756  -0.077833  -0.109261  -0.006261  4.010414  -0.006
C  C66  1  0.65066337  0.45316862  0.27901727  1  -0.050672  -0.005906  3.766501  -0.005  -0.106267  -0.005256  4.019733  -0.005  -0.101585  -0.003698  4.033396  -0.003  0.26849  -0.007764  -0.077879  -0.109204  -0.006267  4.010629  -0.006
C  C67  1  0.34933222  0.04682957  0.77902843  1  -0.050611  0.005906  3.766299  0.005  -0.105954  0.005254  4.019244  0.005  -0.101245  0.003697  4.03284  0.003  0.268248  0.007778  -0.077714  -0.108928  0.006277  4.010206  0.006
C  C68  1  0.28000070  0.54090481  0.78378899  1  0.27531  -0.006838  3.650181  -0.007  0.275663  -0.001078  3.895173  -0.002  0.287531  -0.002114  3.912875  -0.003  0.539112  -0.000893  0.134374  0.267733  -0.000189  3.883915  -0.001
C  C69  1  0.72000524  0.95909896  0.28378096  1  0.275417  0.006828  3.650112  0.007  0.27574  0.001078  3.895172  0.002  0.287603  0.002111  3.912866  0.003  0.541212  0.00092  0.134416  0.267835  0.000204  3.883913  0.001
C  C70  1  0.71999794  0.45909946  0.21620833  1  0.275109  0.006835  3.650514  0.007  0.275644  0.001078  3.89524  0.002  0.287513  0.002112  3.912947  0.003  0.539321  0.000914  0.134349  0.267717  0.0002  3.88397  0.001
C  C71  1  0.27999766  0.04089742  0.71622082  1  0.275386  -0.006843  3.650248  -0.007  0.275723  -0.001079  3.895141  -0.002  0.287592  -0.002114  3.912832  -0.003  0.541279  -0.000899  0.134332  0.267809  -0.00019  3.883887  -0.001
C  C72  1  0.40123510  0.50873886  0.83222029  1  -0.139366  0.008374  3.662968  0.008  -0.155774  0.003355  3.906932  0.003  -0.163119  0.003206  3.924673  0.003  -0.019405  0.004791  -0.077982  -0.151313  0.003447  3.895469  0.003
C  C73  1  0.59877940  0.99128067  0.33221226  1  -0.139503  -0.008358  3.663309  -0.008  -0.155879  -0.003355  3.907188  -0.003  -0.163232  -0.003206  3.924928  -0.003  -0.022258  -0.004772  -0.077936  -0.151405  -0.003434  3.895737  -0.003
C  C74  1  0.59876209  0.49125228  0.16777837  1  -0.13937  -0.008369  3.662896  -0.008  -0.155869  -0.003355  3.90677  -0.003  -0.163215  -0.003205  3.924515  -0.003  -0.019547  -0.004759  -0.078029  -0.151406  -0.003429  3.895305  -0.003
C  C75  1  0.40123490  0.00872228  0.66778864  1  -0.139507  0.008378  3.663228  0.008  -0.155913  0.003355  3.907171  0.003  -0.163262  0.003207  3.924903  0.003  -0.021599  0.00479  -0.077891  -0.151447  0.003445  3.895719  0.003
C  C76  1  0.32658174  0.50598155  0.88956487  1  0.016579  -0.008086  3.727418  -0.007  -0.001674  -0.002629  3.973461  -0.002  0.004899  -0.002891  3.988965  -0.003  -0.086329  -0.003409  -0.06309  -0.006071  -0.002344  3.963331  -0.002
C  C77  1  0.67345701  0.99405767  0.38955594  1  0.016467  0.008073  3.727063  0.007  -0.001853  0.002629  3.973162  0.002  0.00473  0.00289  3.98867  0.003  -0.081391  0.003438  -0.06333  -0.006279  0.002363  3.963034  0.002
C  C78  1  0.67342115  0.49401352  0.11043245  1  0.016657  0.008087  3.727177  0.007  -0.001595  0.002629  3.97321  0.002  0.004984  0.00289  3.988716  0.003  -0.086377  0.003452  -0.063008  -0.005998  0.002373  3.96308  0.002
C  C79  1  0.32656584  0.00594528  0.61044584  1  0.016725  -0.00809  3.727145  -0.007  -0.001548  -0.002629  3.973207  -0.002  0.005042  -0.002891  3.988717  -0.003  -0.085765  -0.003423  -0.06324  -0.005968  -0.002354  3.96307  -0.002
C  C80  1  0.13184487  0.53735707  0.89761503  1  -0.139962  0.008614  3.775471  0.009  -0.150773  0.003859  4.025661  0.004  -0.158887  0.003588  4.04677  0.004  -0.032396  0.005848  -0.092332  -0.14555  0.004049  4.011747  0.004
C  C81  1  0.86819105  0.96269397  0.39760075  1  -0.140184  -0.008597  3.775752  -0.009  -0.150998  -0.003859  4.02599  -0.004  -0.159109  -0.003587  4.04709  -0.004  -0.031747  -0.005823  -0.092368  -0.145769  -0.004034  4.012085  -0.004
C  C82  1  0.86816090  0.46265244  0.10238586  1  -0.139988  -0.00861  3.775528  -0.009  -0.150788  -0.003859  4.025728  -0.004  -0.158896  -0.003586  4.046837  -0.004  -0.032193  -0.005809  -0.092382  -0.145575  -0.004024  4.01182  -0.004
C  C83  1  0.13182752  0.03730636  0.60239657  1  -0.139936  0.008618  3.775365  0.009  -0.150758  0.00386  4.025581  0.004  -0.158875  0.003589  4.046678  0.004  -0.032926  0.005835  -0.092304  -0.145517  0.004041  4.011669  0.004
C  C84  1  0.01968272  0.56836496  0.84776231  1  0.114913  -0.006214  3.748031  -0.007  0.083519  -0.000437  4.009299  -0.002  0.092237  -0.001409  4.029431  -0.003  0.479839  -0.000972  0.038011  0.077879  0.000333  3.996673  -0.001
C  C85  1  0.98034034  0.93165982  0.34775070  1  0.115273  0.006198  3.748155  0.007  0.083927  0.000437  4.009424  0.002  0.092634  0.001408  4.029533  0.003  0.479394  0.000994  0.038013  0.0783  -0.000319  3.996802  0.001
C  C86  1  0.98032445  0.43163668  0.15223725  1  0.11488  0.006212  3.748073  0.007  0.083486  0.000436  4.009349  0.002  0.0922  0.001407  4.029471  0.003  0.479931  0.000996  0.037962  0.077855  -0.000318  3.996724  0.001
C  C87  1  0.01967397  0.06834313  0.65224796  1  0.115096  -0.006216  3.748078  -0.007  0.083678  -0.000437  4.009363  -0.002  0.092409  -0.001409  4.029502  -0.003  0.479523  -0.000978  0.037914  0.078046  0.00033  3.996733  -0.001
N  N88  1  0.80798495  0.62653757  0.63847101  1  -0.574099  0.10027  3.166056  0.119  -0.548221  0.070987  3.433936  0.088  -0.58123  0.058593  3.437776  0.077  -1.07941  0.112771  -0.640017  -0.528939  0.077043  3.433319  0.093
N  N89  1  0.19202950  0.87344914  0.13846432  1  -0.57406  -0.100276  3.166  -0.119  -0.548148  -0.070988  3.433846  -0.088  -0.581156  -0.058595  3.437679  -0.077  -1.078928  -0.112762  -0.639959  -0.528906  -0.077019  3.433274  -0.093
N  N90  1  0.19201226  0.37346670  0.36153033  1  -0.574089  -0.100278  3.16602  -0.119  -0.548242  -0.070987  3.433952  -0.088  -0.58123  -0.058595  3.437777  -0.077  -1.079671  -0.112763  -0.640017  -0.528988  -0.077016  3.433351  -0.093
N  N91  1  0.80796627  0.12654988  0.86153523  1  -0.574081  0.100273  3.165942  0.119  -0.548107  0.070992  3.433806  0.088  -0.581135  0.058593  3.437669  0.077  -1.07878  0.112788  -0.639912  -0.528866  0.077049  3.433226  0.093
N  N92  1  0.19258984  0.55443006  0.67893114  1  -0.506763  0.1083  3.196688  0.131  -0.474476  0.070293  3.53019  0.09  -0.518329  0.058532  3.549781  0.08  -1.194555  0.113788  -0.433295  -0.447289  0.076507  3.517894  0.095
N  N93  1  0.80742178  0.94556321  0.17892221  1  -0.506717  -0.108288  3.197024  -0.131  -0.474445  -0.07029  3.53036  -0.09  -0.518331  -0.058532  3.550018  -0.08  -1.194364  -0.113766  -0.433424  -0.447279  -0.076485  3.518113  -0.095
N  N94  1  0.80741306  0.44557027  0.32106797  1  -0.506692  -0.108295  3.19673  -0.131  -0.474498  -0.070287  3.530231  -0.09  -0.518319  -0.058528  3.549799  -0.08  -1.194379  -0.113763  -0.433335  -0.447324  -0.076473  3.517937  -0.095
N  N95  1  0.19257257  0.05443186  0.82107913  1  -0.506786  0.108287  3.196987  0.131  -0.47461  0.070291  3.530283  0.09  -0.51853  0.05853  3.549978  0.08  -1.194214  0.113786  -0.433504  -0.44745  0.076504  3.51804  0.095
N  N96  1  0.09282537  0.56955979  0.79225555  1  -0.324401  0.076961  3.33189  0.094  -0.277041  0.056664  3.622604  0.073  -0.308586  0.048506  3.644468  0.066  -1.22683  0.088157  -0.349738  -0.259012  0.06077  3.610693  0.076
N  N97  1  0.90718056  0.93043873  0.29224573  1  -0.324383  -0.076957  3.331704  -0.094  -0.277134  -0.056668  3.622529  -0.073  -0.308683  -0.048508  3.644421  -0.066  -1.226906  -0.088145  -0.349761  -0.259124  -0.060754  3.610646  -0.076
N  N98  1  0.90717184  0.43044579  0.20774356  1  -0.324264  -0.076964  3.33189  -0.094  -0.276957  -0.056665  3.622532  -0.073  -0.308482  -0.048505  3.644372  -0.066  -1.227152  -0.088139  -0.349678  -0.258933  -0.060746  3.610613  -0.076
N  N99  1  0.09282234  0.06955635  0.70775249  1  -0.324358  0.076967  3.331724  0.094  -0.277068  0.056669  3.622475  0.073  -0.308638  0.048507  3.644384  0.066  -1.227066  0.088163  -0.349731  -0.259064  0.060773  3.610593  0.076
Cl  Cl100  1  0.74962548  0.30898905  0.73851296  1  -0.551818  0.078884  1.110519  0.092  -0.53909  0.056722  1.434877  0.069  -0.564937  0.044413  1.404308  0.056  -0.62664  0.094787  -0.280371  -0.522579  0.065002  1.45673  0.077
Cl  Cl101  1  0.25037155  0.19101308  0.23850939  1  -0.551863  -0.078874  1.110424  -0.092  -0.539173  -0.056714  1.434828  -0.069  -0.56498  -0.044404  1.404248  -0.056  -0.626651  -0.094722  -0.280398  -0.522639  -0.064951  1.456666  -0.077
Cl  Cl102  1  0.25037314  0.69100602  0.26148436  1  -0.55182  -0.078885  1.110491  -0.092  -0.539133  -0.056724  1.434904  -0.069  -0.564945  -0.044415  1.404328  -0.056  -0.626588  -0.094736  -0.280377  -0.522601  -0.064954  1.456749  -0.077
Cl  Cl103  1  0.74962993  0.80898856  0.76149105  1  -0.551825  0.078876  1.110475  0.092  -0.53914  0.056717  1.434891  0.069  -0.564978  0.044409  1.404314  0.056  -0.626668  0.094781  -0.280383  -0.522616  0.064997  1.456729  0.077
O  O104  1  0.41580894  0.56657534  0.60399072  1  -0.613365  0.026917  1.87221  0.033  -0.581827  0.0103  2.09102  0.014  -0.606554  0.005286  2.084743  0.007  -1.183752  0.025295  -0.34942  -0.562193  0.016544  2.093258  0.021
O  O105  1  0.58419130  0.93342581  0.10398268  1  -0.613245  -0.026925  1.872005  -0.033  -0.58175  -0.010302  2.090735  -0.014  -0.606468  -0.005287  2.084459  -0.007  -1.183673  -0.025246  -0.349419  -0.562115  -0.01652  2.092979  -0.021
O  O106  1  0.58418258  0.43343156  0.39600839  1  -0.613142  -0.026912  1.872186  -0.033  -0.581616  -0.010297  2.090932  -0.014  -0.606344  -0.005284  2.084657  -0.007  -1.183586  -0.025275  -0.349285  -0.561988  -0.016531  2.093174  -0.021
O  O107  1  0.41580305  0.06656795  0.89601732  1  -0.613247  0.026925  1.872172  0.033  -0.581753  0.010304  2.090881  0.014  -0.606471  0.005286  2.084605  0.007  -1.183627  0.025333  -0.349416  -0.562121  0.016563  2.093115  0.021
