# generated using pymatgen
data_FeH8(C3N)4
_symmetry_space_group_name_H-M   'P 1'
_cell_length_a   5.59654181
_cell_length_b   13.67578663
_cell_length_c   13.67570629
_cell_angle_alpha   87.60999400
_cell_angle_beta   72.25126328
_cell_angle_gamma   72.25008788
_symmetry_Int_Tables_number   1
_chemical_formula_structural   FeH8(C3N)4
_chemical_formula_sum   'Fe2 H16 C24 N8'
_cell_volume   947.90795614
_cell_formula_units_Z   2
loop_
 _symmetry_equiv_pos_site_id
 _symmetry_equiv_pos_as_xyz
  1  'x, y, z'
loop_
 _atom_site_type_symbol
 _atom_site_label
 _atom_site_symmetry_multiplicity
 _atom_site_fract_x
 _atom_site_fract_y
 _atom_site_fract_z
 _atom_site_occupancy
 _atom_site_hle17_ddec_charge
 _atom_site_hle17_ddec_spin_density
 _atom_site_hle17_ddec_sum_bond_order
 _atom_site_hle17_magmom
 _atom_site_hse06_10hf_bader_charge
 _atom_site_hse06_10hf_bader_spin_density
 _atom_site_hse06_10hf_ddec_charge
 _atom_site_hse06_10hf_ddec_spin_density
 _atom_site_hse06_10hf_ddec_sum_bond_order
 _atom_site_hse06_10hf_magmom
 _atom_site_hse06_ddec_charge
 _atom_site_hse06_ddec_spin_density
 _atom_site_hse06_ddec_sum_bond_order
 _atom_site_hse06_magmom
 _atom_site_pbe_cm5_charge
 _atom_site_pbe_ddec_charge
 _atom_site_pbe_ddec_spin_density
 _atom_site_pbe_ddec_sum_bond_order
 _atom_site_pbe_magmom
Fe  Fe0  1  0.75000999  0.47321783  0.52677248  1  0.718509  3.811889  2.38478  3.521  1.234157  3.569008  0.568234  3.804958  2.904792  3.505  0.653378  3.849296  2.824108  3.599  0.72507  0.504921  3.764036  2.964823  3.417
Fe  Fe1  1  0.25000633  0.52676582  0.47323306  1  0.718753  3.811755  2.385157  3.521  1.23401  3.568795  0.568409  3.804741  2.9052  3.505  0.653686  3.849158  2.824466  3.599  0.725382  0.505256  3.76427  2.965094  3.418
H  H2  1  0.75225842  0.40993636  0.29346348  1  0.097785  -0.000583  0.961575  0.0  0.113689  0.001134  0.106805  0.000245  1.027046  0.0  0.10876  6.5e-05  1.025386  0.0  0.117092  0.105168  0.000333  1.02913  0.0
H  H3  1  0.74778241  0.70653715  0.59005548  1  0.097789  -0.000583  0.961438  0.0  0.113372  0.001134  0.106699  0.000246  1.027068  0.0  0.108655  6.5e-05  1.025403  0.0  0.117023  0.10506  0.000334  1.029154  0.0
H  H4  1  0.24777379  0.58998601  0.70656880  1  0.097897  -0.000581  0.961757  0.0  0.11437  0.001133  0.106727  0.000247  1.027465  0.0  0.108673  6.6e-05  1.025811  0.0  0.1171  0.105109  0.000337  1.029536  0.0
H  H5  1  0.25226721  0.29342509  0.41000705  1  0.097911  -0.000579  0.961718  0.0  0.114601  0.001132  0.106702  0.000247  1.027468  0.0  0.108643  6.6e-05  1.025821  0.0  0.117083  0.105085  0.000337  1.029539  0.0
H  H6  1  0.31827215  0.58092965  0.21364780  1  0.09943  -0.000546  0.937744  0.0  0.108319  0.000673  0.112852  0.000107  0.99477  0.0  0.115007  4.1e-05  0.99261  0.0  0.120909  0.110857  4.3e-05  0.997257  0.0
H  H7  1  0.18172169  0.78634891  0.41908749  1  0.099437  -0.000547  0.937798  0.0  0.108577  0.000672  0.112921  0.000107  0.994751  0.0  0.115078  4.1e-05  0.992593  0.0  0.120896  0.110923  4.2e-05  0.997243  0.0
H  H8  1  0.68135436  0.41918675  0.78638581  1  0.099247  -0.000548  0.937637  0.0  0.109052  0.000671  0.112893  0.000106  0.994399  0.0  0.115066  4.1e-05  0.992253  0.0  0.120892  0.110908  4.5e-05  0.996906  0.0
H  H9  1  0.81857827  0.21360474  0.58085596  1  0.09925  -0.000551  0.937556  0.0  0.108819  0.000671  0.112871  0.000107  0.994375  0.0  0.115039  4.2e-05  0.992225  0.0  0.120884  0.110892  4.6e-05  0.996869  0.0
H  H10  1  0.76971252  0.39130933  0.94894787  1  0.09181  -0.000133  0.945754  0.0  0.05593  -1e-06  0.105686  -6.1e-05  1.000002  0.0  0.108462  -4e-05  0.999027  0.0  0.101285  0.10403  -6.7e-05  1.000316  0.0
H  H11  1  0.73028270  0.05103911  0.60869992  1  0.091872  -0.000131  0.94567  0.0  0.056004  -1e-06  0.105733  -6.1e-05  0.99993  0.0  0.108507  -4.1e-05  0.998958  0.0  0.101316  0.104076  -6.7e-05  1.000245  0.0
H  H12  1  0.22998557  0.60876332  0.05109180  1  0.091779  -0.00013  0.945744  0.0  0.058471  -1e-06  0.105591  -6.1e-05  1.0001  0.0  0.10829  -4.1e-05  0.999225  0.0  0.101221  0.103976  -7.2e-05  1.000353  0.0
H  H13  1  0.27004366  0.94889443  0.39123763  1  0.091892  -0.000132  0.945964  0.0  0.058464  -1e-06  0.105723  -6.1e-05  1.000261  0.0  0.108422  -4e-05  0.999385  0.0  0.101286  0.104108  -7.2e-05  1.000515  0.0
H  H14  1  0.80435544  0.38668872  0.12355274  1  0.088803  -0.000154  0.950653  0.0  0.058456  2.3e-05  0.102683  -7.9e-05  1.005765  0.0  0.105413  -5.4e-05  1.004692  0.0  0.099601  0.101073  -0.000109  1.006165  0.0
H  H15  1  0.69567636  0.87643442  0.61330947  1  0.088935  -0.000151  0.95031  0.0  0.060561  2.2e-05  0.102771  -7.9e-05  1.005469  0.0  0.105501  -5.4e-05  1.004397  0.0  0.099664  0.101162  -0.000109  1.005868  0.0
H  H16  1  0.19532704  0.61339825  0.87649087  1  0.088801  -0.000153  0.950357  0.0  0.061341  2.2e-05  0.102575  -7.9e-05  1.005566  0.0  0.105302  -5.4e-05  1.0045  0.0  0.099576  0.10097  -0.000109  1.005964  0.0
H  H17  1  0.30464911  0.12350274  0.38661168  1  0.088875  -0.000153  0.950277  0.0  0.059693  2.2e-05  0.102613  -7.9e-05  1.005522  0.0  0.105342  -5.4e-05  1.004454  0.0  0.099565  0.101004  -0.000109  1.005924  0.0
C  C18  1  0.89263182  0.45101002  0.28990198  1  0.003151  0.009327  3.691951  0.014  0.412991  0.024315  -0.042136  0.011875  3.959808  0.017  -0.03425  0.009612  3.977694  0.015  0.009819  -0.05053  0.010905  3.949871  0.015
C  C19  1  0.60738982  0.71009292  0.54898782  1  0.003335  0.00933  3.691621  0.014  0.413216  0.024326  -0.041868  0.01188  3.959512  0.017  -0.03398  0.009618  3.9774  0.015  0.009916  -0.050262  0.010915  3.949588  0.015
C  C20  1  0.10740195  0.54896196  0.71009484  1  0.002855  0.009314  3.692419  0.014  0.413628  0.02429  -0.042323  0.011864  3.960384  0.017  -0.03443  0.009602  3.978261  0.015  0.00981  -0.05071  0.010903  3.950457  0.015
C  C21  1  0.39262742  0.28989932  0.45103838  1  0.003004  0.009296  3.693034  0.014  0.414111  0.02426  -0.042134  0.01185  3.960979  0.017  -0.034233  0.009591  3.978862  0.015  0.009893  -0.050526  0.010889  3.951042  0.015
C  C22  1  0.17857352  0.53982212  0.24971875  1  0.011104  0.00976  3.682565  0.015  0.399418  0.024021  -0.03148  0.011763  3.944392  0.017  -0.022282  0.009537  3.961817  0.015  0.014371  -0.040169  0.009928  3.935534  0.014
C  C23  1  0.32140959  0.75027844  0.46018848  1  0.011039  0.009759  3.682547  0.015  0.398555  0.024025  -0.031583  0.011764  3.944389  0.017  -0.022388  0.009543  3.96182  0.015  0.014358  -0.040264  0.009938  3.935523  0.014
C  C24  1  0.82121576  0.46023432  0.75032552  1  0.011227  0.009758  3.681715  0.015  0.400672  0.024008  -0.031503  0.011761  3.943522  0.017  -0.022347  0.009537  3.960978  0.015  0.014506  -0.040189  0.009929  3.934685  0.014
C  C25  1  0.67876388  0.24967306  0.53978488  1  0.011311  0.00975  3.68132  0.015  0.401198  0.023998  -0.031436  0.011757  3.943193  0.017  -0.022267  0.009536  3.960642  0.015  0.014554  -0.040129  0.009918  3.93435  0.014
C  C26  1  0.03392700  0.49544319  0.20647350  1  -0.064476  0.007651  3.854847  0.011  0.010028  0.015752  -0.049395  0.006966  4.100946  0.009  -0.058329  0.004371  4.128242  0.006  -0.033528  -0.040736  0.012307  4.080383  0.016
C  C27  1  0.46607120  0.79352174  0.50456208  1  -0.064745  0.007657  3.854805  0.011  0.010749  0.015753  -0.049714  0.006968  4.101028  0.009  -0.058658  0.00437  4.128324  0.006  -0.033677  -0.041057  0.012306  4.080462  0.016
C  C28  1  0.96597509  0.50458350  0.79353551  1  -0.064196  0.007654  3.854697  0.011  0.008132  0.015762  -0.049266  0.006966  4.100838  0.009  -0.05819  0.004373  4.128138  0.006  -0.033661  -0.04061  0.012302  4.080281  0.016
C  C29  1  0.53401169  0.20645564  0.49541992  1  -0.064447  0.007664  3.854712  0.011  0.007688  0.015773  -0.049442  0.006971  4.100814  0.009  -0.058382  0.004372  4.128117  0.006  -0.033645  -0.040766  0.012311  4.080254  0.016
C  C30  1  0.02012012  0.49730458  0.10157768  1  0.061102  0.001411  3.851226  0.002  -0.063327  0.002688  0.074001  0.001206  4.084799  0.001  0.074986  0.000621  4.110961  0.001  -0.015613  0.074324  0.002651  4.06478  0.003
C  C31  1  0.47986372  0.89842628  0.50270671  1  0.061181  0.00142  3.85111  0.002  -0.063485  0.002693  0.074077  0.001209  4.084726  0.001  0.075085  0.000623  4.110853  0.001  -0.01556  0.074403  0.002654  4.064706  0.003
C  C32  1  0.97967236  0.50276376  0.89844040  1  0.060777  0.001413  3.851313  0.002  -0.061668  0.002689  0.073929  0.001207  4.084614  0.001  0.074883  0.000623  4.110836  0.001  -0.015864  0.074273  0.002654  4.064561  0.003
C  C33  1  0.52031756  0.10155441  0.49724544  1  0.060845  0.001405  3.85119  0.002  -0.06189  0.002686  0.073877  0.001206  4.08462  0.001  0.074857  0.000615  4.110806  0.001  -0.015912  0.07419  0.002651  4.064605  0.003
C  C34  1  0.86998906  0.43972305  0.97086826  1  -0.118006  0.000974  3.776595  0.001  -0.004923  0.002214  -0.137897  0.001007  4.026196  0.001  -0.140947  0.000556  4.048235  0.001  -0.096454  -0.135299  0.001995  4.009444  0.002
C  C35  1  0.62998701  0.02912898  0.56028569  1  -0.118078  0.000981  3.77671  0.001  -0.004545  0.002217  -0.137912  0.001009  4.02632  0.001  -0.14097  0.000562  4.048353  0.001  -0.096516  -0.135305  0.001998  4.00958  0.002
C  C36  1  0.12969271  0.56036917  0.02917503  1  -0.11811  0.000975  3.777279  0.001  -0.004265  0.002216  -0.137895  0.001008  4.026975  0.001  -0.140893  0.000557  4.049017  0.001  -0.096646  -0.135315  0.001993  4.010208  0.002
C  C37  1  0.37028126  0.97082395  0.43963468  1  -0.118074  0.000969  3.777522  0.001  -0.004327  0.002213  -0.137848  0.001007  4.027148  0.001  -0.140851  0.000555  4.049182  0.001  -0.096592  -0.135271  0.00199  4.010379  0.002
C  C38  1  0.89011958  0.43704293  0.06978593  1  -0.12128  0.00093  3.777828  0.001  -0.045512  0.002151  -0.140444  0.000954  4.026609  0.001  -0.143855  0.000525  4.048897  0.001  -0.09749  -0.137367  0.002059  4.009742  0.003
C  C39  1  0.60987434  0.93021277  0.56296357  1  -0.121368  0.000918  3.777847  0.001  -0.047909  0.002149  -0.14048  0.000952  4.026608  0.001  -0.143898  0.000523  4.048892  0.001  -0.097527  -0.137404  0.002057  4.009739  0.003
C  C40  1  0.10960796  0.56302283  0.93025915  1  -0.120934  0.000927  3.778212  0.001  -0.050903  0.002153  -0.14006  0.000954  4.026886  0.001  -0.143454  0.000524  4.049151  0.001  -0.097109  -0.136995  0.002057  4.010032  0.003
C  C41  1  0.39037806  0.06973447  0.43699097  1  -0.121183  0.000935  3.778326  0.001  -0.049069  0.002156  -0.140256  0.000955  4.027078  0.001  -0.14366  0.00053  4.049334  0.001  -0.097197  -0.13718  0.00206  4.010229  0.003
N  N42  1  0.94747381  0.46869801  0.37566103  1  -0.26225  0.032901  3.344007  0.051  -0.839752  0.071529  -0.199607  0.032298  3.640913  0.043  -0.227069  0.025798  3.664055  0.032  -0.292937  -0.177205  0.04047  3.625126  0.057
N  N43  1  0.55255296  0.62433308  0.53130057  1  -0.262277  0.032907  3.343745  0.051  -0.839566  0.071542  -0.199596  0.0323  3.64058  0.043  -0.227056  0.025796  3.663717  0.032  -0.292884  -0.177198  0.040465  3.624805  0.057
N  N44  1  0.05262486  0.53128874  0.62433960  1  -0.261776  0.03289  3.344892  0.051  -0.839949  0.071521  -0.199036  0.032284  3.641597  0.043  -0.226501  0.025788  3.664736  0.032  -0.292663  -0.176679  0.040416  3.625804  0.057
N  N45  1  0.44738866  0.37564712  0.46872253  1  -0.262171  0.032895  3.345154  0.051  -0.841187  0.071519  -0.199457  0.032292  3.641894  0.043  -0.226926  0.025795  3.665033  0.032  -0.292929  -0.177092  0.04043  3.626085  0.057
N  N46  1  0.12390298  0.52344484  0.35095189  1  -0.246528  0.032559  3.299125  0.044  -0.823911  0.071061  -0.185332  0.031306  3.599542  0.035  -0.212744  0.024366  3.622939  0.025  -0.289664  -0.166834  0.037421  3.590345  0.047
N  N47  1  0.37610103  0.64903874  0.47656121  1  -0.246425  0.032561  3.299051  0.044  -0.823961  0.071076  -0.185232  0.031309  3.599471  0.035  -0.212646  0.024367  3.622868  0.025  -0.289602  -0.16673  0.037422  3.59028  0.047
N  N48  1  0.87608964  0.47659700  0.64907347  1  -0.246855  0.032567  3.299503  0.044  -0.824411  0.071084  -0.185699  0.03131  3.599995  0.035  -0.213096  0.024364  3.623392  0.025  -0.289793  -0.167151  0.037455  3.590807  0.047
N  N49  1  0.62390631  0.35091876  0.52342489  1  -0.246524  0.032558  3.299134  0.044  -0.823711  0.071054  -0.185343  0.031298  3.59961  0.035  -0.212735  0.024353  3.623002  0.025  -0.289614  -0.166798  0.037442  3.590423  0.047
