# generated using pymatgen
data_Cu2H26C23(NO4)2
_symmetry_space_group_name_H-M   'P 1'
_cell_length_a   8.59399864
_cell_length_b   13.21252628
_cell_length_c   15.24777047
_cell_angle_alpha   115.65593094
_cell_angle_beta   103.16984319
_cell_angle_gamma   90.01421723
_symmetry_Int_Tables_number   1
_chemical_formula_structural   Cu2H26C23(NO4)2
_chemical_formula_sum   'Cu4 H52 C46 N4 O16'
_cell_volume   1509.94204212
_cell_formula_units_Z   2
loop_
 _symmetry_equiv_pos_site_id
 _symmetry_equiv_pos_as_xyz
  1  'x, y, z'
loop_
 _atom_site_type_symbol
 _atom_site_label
 _atom_site_symmetry_multiplicity
 _atom_site_fract_x
 _atom_site_fract_y
 _atom_site_fract_z
 _atom_site_occupancy
 _atom_site_pbe_bader_charge
 _atom_site_pbe_bader_spin_density
 _atom_site_pbe_cm5_charge
 _atom_site_pbe_ddec_charge
 _atom_site_pbe_ddec_spin_density
 _atom_site_pbe_ddec_sum_bond_order
 _atom_site_pbe_magmom
Cu  Cu0  1  0.91777951  0.00445943  0.42002443  1  1.066317  0.577713  0.6772  0.753472  0.732518  2.372104  0.579
Cu  Cu1  1  0.58226805  0.58444123  0.57994688  1  1.065442  0.577784  0.677316  0.753476  0.733455  2.372917  0.579
Cu  Cu2  1  0.08222217  0.99554356  0.57998161  1  1.067062  0.577745  0.677194  0.753425  0.732522  2.372159  0.579
Cu  Cu3  1  0.41772840  0.41554958  0.42004442  1  1.065616  0.577785  0.677289  0.753378  0.733455  2.372925  0.579
H  H4  1  0.79992260  0.19318834  0.36184985  1  0.106602  -2.2e-05  0.118354  0.095144  -8e-06  0.992566  0.0
H  H5  1  0.70032109  0.83128360  0.63817556  1  0.098576  -2.2e-05  0.118567  0.095297  -8e-06  0.992668  0.0
H  H6  1  0.20007347  0.80681252  0.63814898  1  0.106579  -2.2e-05  0.118357  0.095135  -8e-06  0.992586  0.0
H  H7  1  0.29967871  0.16872049  0.36182735  1  0.098687  -2.2e-05  0.118596  0.095383  -8e-06  0.992613  0.0
H  H8  1  0.58172167  0.22229906  0.23977996  1  0.111593  7.3e-05  0.106679  0.12902  0.000128  1.023412  0.0
H  H9  1  0.91854381  0.98240177  0.76023224  1  0.134394  6.8e-05  0.107144  0.129583  0.000127  1.023036  0.0
H  H10  1  0.41827665  0.77770197  0.76021819  1  0.111615  7.3e-05  0.106716  0.129091  0.000128  1.023439  0.0
H  H11  1  0.08145506  0.01760114  0.23977118  1  0.134894  6.8e-05  0.107143  0.129595  0.000127  1.023038  0.0
H  H12  1  0.43918077  0.86174854  0.09716359  1  0.049415  -9e-06  0.102776  0.108175  -8e-06  1.013487  0.0
H  H13  1  0.06062612  0.76455175  0.90307589  1  0.080251  -1.1e-05  0.102584  0.10834  -8e-06  1.012873  0.0
H  H14  1  0.56082231  0.13824982  0.90283189  1  0.050015  -9e-06  0.102821  0.1082  -7e-06  1.01344  0.0
H  H15  1  0.93937592  0.23544922  0.09692305  1  0.080238  -1.1e-05  0.102606  0.108345  -8e-06  1.012868  0.0
H  H16  1  0.66546910  0.84912947  0.22635861  1  0.116806  -3.3e-05  0.115246  0.090474  -6e-06  0.99525  0.0
H  H17  1  0.83432173  0.62278763  0.77386597  1  0.107464  -3.1e-05  0.115308  0.090387  -5e-06  0.995599  0.0
H  H18  1  0.33453188  0.15087150  0.77364116  1  0.116767  -3.3e-05  0.115252  0.09049  -7e-06  0.995236  0.0
H  H19  1  0.16567912  0.37721450  0.22613413  1  0.107438  -3.1e-05  0.115309  0.090398  -6e-06  0.995612  0.0
H  H20  1  0.29652520  0.12702903  0.11621053  1  0.028847  -2.9e-05  0.094877  0.096393  -2.4e-05  1.030508  0.0
H  H21  1  0.20351902  0.01072161  0.88374540  1  0.060602  -2.9e-05  0.095091  0.096858  -2.4e-05  1.030249  0.0
H  H22  1  0.70347683  0.87297129  0.88378775  1  0.028815  -2.9e-05  0.09491  0.096427  -2.4e-05  1.030487  0.0
H  H23  1  0.79648154  0.98927892  0.11625141  1  0.06053  -2.9e-05  0.09513  0.096922  -2.4e-05  1.030198  0.0
H  H24  1  0.42631103  0.09282938  0.03718914  1  0.036854  -3.2e-05  0.095409  0.098229  -2.8e-05  0.999216  0.0
H  H25  1  0.07374415  0.05554818  0.96276158  1  0.040469  -3.2e-05  0.095295  0.097954  -2.8e-05  1.000105  0.0
H  H26  1  0.57368954  0.90717115  0.96280767  1  0.036885  -3.2e-05  0.095449  0.098259  -2.8e-05  0.999197  0.0
H  H27  1  0.92625563  0.94445263  0.03723805  1  0.040144  -3.2e-05  0.095325  0.097994  -2.9e-05  1.00009  0.0
H  H28  1  0.18328551  0.92506935  0.03945675  1  -0.001958  -2e-06  0.087717  0.07541  -3e-06  1.009447  0.0
H  H29  1  0.31680101  0.88568330  0.96068430  1  0.019067  -2e-06  0.087192  0.074772  -3e-06  1.010038  0.0
H  H30  1  0.81671414  0.07493197  0.96054254  1  -0.002007  -2e-06  0.087722  0.075438  -3e-06  1.009515  0.0
H  H31  1  0.68319863  0.11431541  0.03931236  1  0.019033  -2e-06  0.087219  0.074794  -3e-06  1.010072  0.0
H  H32  1  0.32364305  0.85835744  0.28353235  1  0.066824  0.002178  0.093285  0.106527  0.001136  0.983287  0.001
H  H33  1  0.17639390  0.57469324  0.71645033  1  0.01861  0.002259  0.09324  0.106294  0.001138  0.982903  0.001
H  H34  1  0.67635900  0.14164746  0.71647052  1  0.066776  0.002179  0.093269  0.10652  0.001136  0.983304  0.001
H  H35  1  0.82361663  0.42530632  0.28354804  1  0.018626  0.002259  0.093278  0.106354  0.001138  0.982804  0.001
H  H36  1  0.46183129  0.96784597  0.38581753  1  0.07283  0.000307  0.105717  0.133197  9.1e-05  0.992608  0.0
H  H37  1  0.03827792  0.58198467  0.61417489  1  0.086584  0.000295  0.105529  0.132252  9e-05  0.992474  0.0
H  H38  1  0.53816639  0.03215745  0.61418640  1  0.07289  0.000307  0.105741  0.133244  9.1e-05  0.992571  0.0
H  H39  1  0.96171763  0.41801348  0.38582546  1  0.086713  0.000294  0.105547  0.132261  9e-05  0.992516  0.0
H  H40  1  0.55572743  0.78553353  0.36462535  1  0.042701  0.001102  0.089591  0.086603  0.000514  1.00271  0.001
H  H41  1  0.94424552  0.42080409  0.63533355  1  0.040753  0.001097  0.089853  0.086994  0.000514  1.002726  0.001
H  H42  1  0.44427687  0.21447088  0.63537618  1  0.04257  0.001102  0.089608  0.086602  0.000514  1.002731  0.001
H  H43  1  0.05575775  0.57919555  0.36467167  1  0.040819  0.001096  0.089849  0.086958  0.000513  1.002758  0.001
H  H44  1  0.50688898  0.85503363  0.48134016  1  0.049029  0.0004  0.093433  0.092687  0.000301  1.00162  0.0
H  H45  1  0.99307112  0.37371427  0.51860590  1  0.05196  0.000389  0.093491  0.092987  0.000301  1.001415  0.0
H  H46  1  0.49311347  0.14496712  0.51866110  1  0.049055  0.0004  0.093414  0.092655  0.000301  1.001656  0.0
H  H47  1  0.00693507  0.62628233  0.48139965  1  0.051895  0.000389  0.093473  0.092871  0.000301  1.001486  0.0
H  H48  1  0.29372268  0.65953534  0.29263778  1  0.074031  0.002045  0.09642  0.110721  0.001087  0.970863  0.001
H  H49  1  0.20620125  0.36676062  0.70727941  1  0.025213  0.00216  0.09618  0.110528  0.001093  0.97075  0.001
H  H50  1  0.70627973  0.34046754  0.70735800  1  0.074113  0.002044  0.096426  0.110742  0.001087  0.970781  0.001
H  H51  1  0.79380069  0.63324135  0.29272729  1  0.025379  0.002161  0.096213  0.11064  0.001093  0.970707  0.001
H  H52  1  0.23295111  0.74117744  0.40405916  1  0.072101  2e-05  0.105931  0.128909  -0.000214  0.984602  0.0
H  H53  1  0.26699843  0.33711288  0.59586829  1  0.073417  1.7e-05  0.105999  0.129507  -0.000214  0.984378  0.0
H  H54  1  0.76705226  0.25882121  0.59593830  1  0.072047  2e-05  0.105952  0.128957  -0.000213  0.984529  0.0
H  H55  1  0.73300791  0.66288648  0.40414088  1  0.073579  1.7e-05  0.105987  0.129544  -0.000214  0.984425  0.0
C  C56  1  0.71817321  0.12182074  0.30088778  1  0.456884  -0.000368  0.049548  0.1118  -0.000455  3.931333  0.0
C  C57  1  0.78196685  0.82086029  0.69916053  1  0.446297  -0.00037  0.04917  0.111683  -0.000458  3.931135  0.0
C  C58  1  0.28182538  0.87817991  0.69911169  1  0.456923  -0.000368  0.049561  0.111809  -0.000455  3.931393  0.0
C  C59  1  0.21803174  0.17914168  0.30084025  1  0.446123  -0.000371  0.049176  0.111607  -0.000459  3.931133  0.0
C  C60  1  0.59613126  0.13694021  0.23173661  1  -0.035078  0.00051  -0.086084  -0.185565  0.000319  3.916787  0.0
C  C61  1  0.90404897  0.90509364  0.76829014  1  -0.030684  0.000504  -0.086543  -0.18668  0.000315  3.918475  0.0
C  C62  1  0.40386852  0.86305929  0.76826170  1  -0.035074  0.00051  -0.086102  -0.185626  0.000319  3.916872  0.0
C  C63  1  0.09594737  0.09490751  0.23171067  1  -0.030883  0.000505  -0.086552  -0.186724  0.000316  3.918497  0.0
C  C64  1  0.49264034  0.04332939  0.15465254  1  0.01873  -0.000514  0.009566  0.161849  -0.000572  3.947885  0.0
C  C65  1  0.00743480  0.88859174  0.84543485  1  0.017509  -0.000514  0.008785  0.161319  -0.000571  3.949466  0.0
C  C66  1  0.50736156  0.95667144  0.84534541  1  0.018486  -0.000514  0.009608  0.161958  -0.000572  3.947846  0.0
C  C67  1  0.99256021  0.11140911  0.15456482  1  0.017316  -0.000514  0.008721  0.16134  -0.000572  3.949376  0.0
C  C68  1  0.51669542  0.93803226  0.15359526  1  -0.089932  0.000331  -0.096557  -0.208944  0.000213  3.983653  0.0
C  C69  1  0.98324588  0.78439754  0.84657720  1  -0.149732  0.000328  -0.095693  -0.20908  0.00021  3.983133  0.0
C  C70  1  0.48330886  0.06196821  0.84640233  1  -0.082692  0.000331  -0.096644  -0.209029  0.000213  3.983584  0.0
C  C71  1  0.01675404  0.21560342  0.15342341  1  -0.149714  0.000329  -0.095654  -0.209042  0.000211  3.982997  0.0
C  C72  1  0.64293763  0.92996133  0.22530827  1  0.487212  -0.000448  0.0425  0.092164  -0.000581  3.979782  0.0
C  C73  1  0.85698745  0.70462850  0.77485589  1  0.507765  -0.000451  0.042724  0.093287  -0.000583  3.979174  0.0
C  C74  1  0.35706442  0.07004226  0.77469329  1  0.479598  -0.000448  0.042489  0.092133  -0.000581  3.979587  0.0
C  C75  1  0.14301739  0.29537256  0.22514567  1  0.507609  -0.000451  0.042677  0.093191  -0.000583  3.979114  0.0
C  C76  1  0.36555868  0.05918749  0.07699241  1  0.00602  2.8e-05  -0.159781  -0.204003  -1e-06  3.94481  0.0
C  C77  1  0.13451967  0.98213329  0.92302945  1  -0.023526  2.8e-05  -0.15953  -0.2047  -1e-06  3.946758  0.0
C  C78  1  0.63444455  0.94081298  0.92300602  1  0.006008  2.9e-05  -0.159844  -0.20409  -0.0  3.944947  0.0
C  C79  1  0.86547998  0.01786738  0.07696918  1  -0.023117  2.8e-05  -0.159613  -0.204833  -1e-06  3.946731  0.0
C  C80  1  0.25004449  0.95523961  0.00004804  1  -0.005207  -7e-06  -0.167325  -0.143541  -1e-05  3.98014  0.0
C  C81  1  0.74995754  0.04476071  0.99995024  1  -0.005201  -7e-06  -0.167349  -0.143598  -1e-05  3.980288  0.0
C  C82  1  0.23627885  0.94320565  0.41483179  1  1.545555  -0.001082  0.212612  0.624374  -0.002113  4.11646  -0.004
C  C83  1  0.26376542  0.52834739  0.58514341  1  1.548246  -0.001131  0.212943  0.624444  -0.002102  4.115614  -0.004
C  C84  1  0.76372295  0.05679486  0.58517262  1  1.545771  -0.001085  0.212624  0.624431  -0.002114  4.116474  -0.004
C  C85  1  0.73623609  0.47164695  0.41485311  1  1.548295  -0.001132  0.212788  0.624311  -0.002101  4.115618  -0.004
C  C86  1  0.37238366  0.89651885  0.36552417  1  -0.051247  0.019125  -0.164053  -0.295407  0.013727  3.903382  0.015
C  C87  1  0.12766203  0.53092576  0.63445735  1  -0.019315  0.019092  -0.163464  -0.293204  0.013716  3.900185  0.015
C  C88  1  0.62761640  0.10348225  0.63447743  1  -0.051516  0.019128  -0.164089  -0.295513  0.013727  3.90344  0.015
C  C89  1  0.87234134  0.46907485  0.36554207  1  -0.019503  0.019091  -0.16353  -0.29328  0.013715  3.900153  0.015
C  C90  1  0.45517078  0.81253292  0.39980162  1  -0.000632  0.004644  -0.165175  -0.099207  0.003274  3.926141  0.003
C  C91  1  0.04480446  0.41265645  0.60014383  1  -0.006722  0.004659  -0.165695  -0.100787  0.00328  3.926759  0.003
C  C92  1  0.54482900  0.18746854  0.60019866  1  -0.000679  0.004645  -0.165176  -0.099141  0.003274  3.926121  0.003
C  C93  1  0.95519721  0.58734326  0.39985893  1  -0.006698  0.004658  -0.165599  -0.100486  0.003279  3.926749  0.003
C  C94  1  0.33836807  0.71073893  0.37430642  1  -0.089489  0.017731  -0.162569  -0.287227  0.012647  3.901023  0.014
C  C95  1  0.16158233  0.33634633  0.62560793  1  -0.024406  0.017505  -0.162567  -0.288041  0.012647  3.901776  0.014
C  C96  1  0.66163383  0.28925993  0.62568956  1  -0.089221  0.017732  -0.162589  -0.28737  0.012649  3.900858  0.014
C  C97  1  0.83842254  0.66365325  0.37439976  1  -0.024771  0.017505  -0.162608  -0.288328  0.012647  3.901967  0.014
C  C98  1  0.40272708  0.63284336  0.42020758  1  1.555898  -0.001326  0.215373  0.62692  -0.00219  4.1112  -0.004
C  C99  1  0.09727730  0.21256178  0.57971965  1  1.544992  -0.00116  0.216383  0.6282  -0.002186  4.110304  -0.004
C  C100  1  0.59727256  0.36715535  0.57978908  1  1.555707  -0.001326  0.21557  0.627309  -0.002191  4.110741  -0.004
C  C101  1  0.90272665  0.78743858  0.42029052  1  1.544962  -0.00116  0.216517  0.628418  -0.002186  4.110175  -0.004
N  N102  1  0.74388672  0.01972034  0.29739031  1  -1.217994  -0.000551  -0.338487  -0.253324  -1.3e-05  3.508008  0.001
N  N103  1  0.75614728  0.72227428  0.70269422  1  -1.213339  -0.000602  -0.339034  -0.253876  -5.2e-05  3.507118  0.001
N  N104  1  0.25611547  0.98028339  0.70261224  1  -1.217887  -0.000548  -0.338486  -0.253295  -1.2e-05  3.507908  0.001
N  N105  1  0.24385158  0.27772732  0.29730789  1  -1.213156  -0.000601  -0.339035  -0.253774  -5.1e-05  3.507183  0.001
O  O106  1  0.11103051  0.96142329  0.36245447  1  -1.124435  0.096091  -0.317066  -0.534584  0.060918  2.343212  0.088
O  O107  1  0.38900561  0.59895402  0.63747350  1  -1.121185  0.095977  -0.31722  -0.534806  0.060776  2.344196  0.087
O  O108  1  0.88897100  0.03858562  0.63754904  1  -1.124463  0.09608  -0.317056  -0.534571  0.060911  2.343332  0.088
O  O109  1  0.61099243  0.40103542  0.36251895  1  -1.121315  0.095985  -0.317243  -0.534799  0.060781  2.34392  0.087
O  O110  1  0.25711025  0.95965331  0.50553470  1  -1.122054  0.08838  -0.310024  -0.52366  0.055765  2.369451  0.081
O  O111  1  0.24293679  0.45403669  0.49446978  1  -1.125372  0.088535  -0.310288  -0.523548  0.055884  2.370159  0.081
O  O112  1  0.74288010  0.04034446  0.49446273  1  -1.121842  0.0884  -0.310001  -0.523683  0.055776  2.369255  0.081
O  O113  1  0.75704504  0.54595397  0.50551968  1  -1.125267  0.088527  -0.310147  -0.523439  0.05588  2.370466  0.081
O  O114  1  0.49628766  0.67717921  0.50849677  1  -1.122447  0.091345  -0.310841  -0.522342  0.058112  2.346203  0.083
O  O115  1  0.00384901  0.16859128  0.49138858  1  -1.126847  0.091306  -0.311301  -0.522729  0.058014  2.346141  0.083
O  O116  1  0.50369885  0.32280913  0.49149713  1  -1.122418  0.091357  -0.310908  -0.522485  0.058119  2.3458  0.083
O  O117  1  0.99614177  0.83141281  0.50861772  1  -1.127004  0.091301  -0.311323  -0.522725  0.05801  2.346515  0.083
O  O118  1  0.35339000  0.52780626  0.36714605  1  -1.115593  0.102351  -0.31764  -0.535235  0.065045  2.361553  0.093
O  O119  1  0.14656120  0.16063425  0.63284086  1  -1.115234  0.102378  -0.318071  -0.535674  0.065109  2.360917  0.093
O  O120  1  0.64660575  0.47218515  0.63284161  1  -1.115592  0.10234  -0.317769  -0.535462  0.065038  2.361759  0.093
O  O121  1  0.85344087  0.83936458  0.36716355  1  -1.114988  0.102379  -0.318223  -0.535902  0.065111  2.360538  0.093
