# generated using pymatgen
data_H12RhC16NO6
_symmetry_space_group_name_H-M   'P 1'
_cell_length_a   9.57453206
_cell_length_b   9.97869915
_cell_length_c   19.59702719
_cell_angle_alpha   98.13612988
_cell_angle_beta   89.99811581
_cell_angle_gamma   118.67023605
_symmetry_Int_Tables_number   1
_chemical_formula_structural   H12RhC16NO6
_chemical_formula_sum   'H48 Rh4 C64 N4 O24'
_cell_volume   1621.26417638
_cell_formula_units_Z   4
loop_
 _symmetry_equiv_pos_site_id
 _symmetry_equiv_pos_as_xyz
  1  'x, y, z'
loop_
 _atom_site_type_symbol
 _atom_site_label
 _atom_site_symmetry_multiplicity
 _atom_site_fract_x
 _atom_site_fract_y
 _atom_site_fract_z
 _atom_site_occupancy
 _atom_site_pbe_cm5_charge
 _atom_site_pbe_ddec_charge
 _atom_site_pbe_ddec_spin_density
 _atom_site_pbe_ddec_sum_bond_order
 _atom_site_pbe_magmom
H  H0  1  0.92245126  0.85374430  0.53085695  1  0.104186  0.107483  -0.000167  1.007438  0.0
H  H1  1  0.93122178  0.85366551  0.03087781  1  0.104364  0.108076  0.000167  1.007161  0.0
H  H2  1  0.07753484  0.14623876  0.46914263  1  0.104179  0.10746  0.000166  1.007501  0.0
H  H3  1  0.06877926  0.14633492  0.96912199  1  0.104376  0.108071  -0.000168  1.007195  0.0
H  H4  1  0.86170947  0.71492662  0.40955598  1  0.098513  0.098107  -0.001034  1.031871  0.0
H  H5  1  0.85316907  0.71493718  0.90955829  1  0.098468  0.098121  0.001032  1.031705  0.0
H  H6  1  0.13827350  0.28505644  0.59044360  1  0.098477  0.098052  0.001034  1.031754  0.0
H  H7  1  0.14683024  0.28505977  0.09044178  1  0.098448  0.098094  -0.001032  1.031764  0.0
H  H8  1  0.58053085  0.57288229  0.35749198  1  0.10038  0.097327  4.8e-05  1.001315  0.0
H  H9  1  0.99235549  0.57300326  0.85744677  1  0.100566  0.097379  -4.9e-05  1.00163  0.0
H  H10  1  0.41945522  0.42712161  0.64250655  1  0.100376  0.097316  -4.9e-05  1.001342  0.0
H  H11  1  0.00765100  0.42700180  0.14255489  1  0.100545  0.097382  4.9e-05  1.001588  0.0
H  H12  1  0.36230035  0.57361909  0.42679028  1  0.099063  0.096277  -0.000579  1.033356  0.0
H  H13  1  0.21124029  0.57358808  0.92673155  1  0.099203  0.096566  0.000575  1.032883  0.0
H  H14  1  0.63769000  0.42639753  0.57320661  1  0.099001  0.096171  0.00058  1.033291  0.0
H  H15  1  0.78876678  0.42641813  0.07326816  1  0.099227  0.096612  -0.000576  1.032767  0.0
H  H16  1  0.42495308  0.71541460  0.54691281  1  0.102103  0.100692  -0.001272  1.035468  0.0
H  H17  1  0.29030272  0.71521092  0.04688301  1  0.101924  0.100253  0.001272  1.035614  0.0
H  H18  1  0.57504087  0.28460087  0.45308348  1  0.102099  0.10068  0.001268  1.035485  0.0
H  H19  1  0.70970818  0.28479876  0.95311695  1  0.101945  0.100287  -0.001273  1.035577  0.0
H  H20  1  0.75655549  0.53096676  0.79505857  1  0.101797  0.101137  -8.8e-05  1.03093  0.0
H  H21  1  0.77428022  0.53089263  0.29506388  1  0.101806  0.101365  8.8e-05  1.030517  0.0
H  H22  1  0.24343895  0.46902672  0.20494176  1  0.101772  0.101096  8.8e-05  1.030981  0.0
H  H23  1  0.22571816  0.46910663  0.70493380  1  0.101813  0.101345  -8.9e-05  1.030488  0.0
H  H24  1  0.63272815  0.28695184  0.84570314  1  0.100349  0.107281  -7.9e-05  1.043794  0.0
H  H25  1  0.65411864  0.28685223  0.34567751  1  0.100213  0.107343  7.9e-05  1.043736  0.0
H  H26  1  0.36727071  0.71304628  0.15430211  1  0.100358  0.107286  7.9e-05  1.043803  0.0
H  H27  1  0.34588148  0.71314009  0.65431508  1  0.100196  0.107355  -8e-05  1.043701  0.0
H  H28  1  0.36476078  0.19467646  0.89099828  1  0.092918  0.080495  -0.003047  1.048179  0.0
H  H29  1  0.82976033  0.19454739  0.39092206  1  0.092672  0.080277  0.003052  1.04848  0.0
H  H30  1  0.63524386  0.80533325  0.10901392  1  0.092902  0.080518  0.00305  1.048267  0.0
H  H31  1  0.17024328  0.80544145  0.60906466  1  0.092658  0.080311  -0.003052  1.048437  0.0
H  H32  1  0.21191550  0.33289684  0.87802854  1  0.098918  0.103016  -8.2e-05  1.027524  0.0
H  H33  1  0.12084424  0.33276407  0.37801113  1  0.099181  0.103435  8.2e-05  1.026544  0.0
H  H34  1  0.78808740  0.66710939  0.12197934  1  0.098915  0.102986  8.1e-05  1.027462  0.0
H  H35  1  0.87916098  0.66723635  0.62198154  1  0.099156  0.103398  -8.3e-05  1.026582  0.0
H  H36  1  0.33862162  0.57933127  0.82798157  1  0.10169  0.099363  0.000285  1.029975  0.0
H  H37  1  0.24059956  0.57922969  0.32796288  1  0.101876  0.099712  -0.000285  1.030136  0.0
H  H38  1  0.66137572  0.42066801  0.17202070  1  0.101698  0.099349  -0.000286  1.030047  0.0
H  H39  1  0.75940485  0.42077536  0.67203216  1  0.101915  0.099811  0.000284  1.030045  0.0
H  H40  1  0.07434863  0.86364107  0.82744884  1  0.121544  0.098302  -0.000157  1.020699  0.0
H  H41  1  0.78919810  0.86355089  0.32746627  1  0.121427  0.098082  0.000157  1.020793  0.0
H  H42  1  0.92565183  0.13636862  0.17255419  1  0.121534  0.098268  0.000157  1.020756  0.0
H  H43  1  0.21079183  0.13643564  0.67252846  1  0.121454  0.098148  -0.000157  1.020822  0.0
H  H44  1  0.33813232  0.86295288  0.82726059  1  0.125465  0.106047  7.8e-05  0.98851  0.0
H  H45  1  0.52472366  0.86281164  0.32727248  1  0.125449  0.105945  -8e-05  0.989514  0.0
H  H46  1  0.66186756  0.13705565  0.17274235  1  0.125486  0.106032  -7.9e-05  0.988468  0.0
H  H47  1  0.47526348  0.13717141  0.67272149  1  0.125479  0.106029  8e-05  0.989475  0.0
Rh  Rh48  1  0.90181797  0.00005565  0.75000304  1  0.653388  0.554872  0.026643  3.764821  0.018
Rh  Rh49  1  0.09816881  0.99994130  0.24999499  1  0.653414  0.554922  -0.026701  3.764723  -0.018
Rh  Rh50  1  0.64882530  0.00007938  0.75000218  1  0.650402  0.545898  0.036582  3.769607  0.024
Rh  Rh51  1  0.35117830  0.99991989  0.24999550  1  0.650437  0.545953  -0.03662  3.769559  -0.024
C  C52  1  0.71433335  0.87326995  0.61901546  1  0.212257  0.531157  0.000316  4.132921  -0.001
C  C53  1  0.15882965  0.87307385  0.11900439  1  0.211942  0.530254  -0.000323  4.133632  0.001
C  C54  1  0.28565959  0.12672468  0.38098291  1  0.212342  0.531273  -0.000317  4.132737  0.001
C  C55  1  0.84117151  0.12692889  0.88099610  1  0.211933  0.530245  0.000323  4.133717  -0.001
C  C56  1  0.67728462  0.79265018  0.54627535  1  -0.02375  -0.046992  0.002076  4.012329  0.001
C  C57  1  0.11519216  0.79243436  0.04626751  1  -0.023607  -0.046483  -0.00205  4.011931  -0.001
C  C58  1  0.32270076  0.20735024  0.45372343  1  -0.0236  -0.04689  -0.002069  4.012307  -0.001
C  C59  1  0.88481005  0.20756838  0.95373144  1  -0.023617  -0.046523  0.002036  4.012054  0.001
C  C60  1  0.80027719  0.79218934  0.50740887  1  -0.085307  -0.097231  -4e-05  3.969949  0.0
C  C61  1  0.99176651  0.79203889  0.00743027  1  -0.086039  -0.0989  4.2e-05  3.97042  0.0
C  C62  1  0.19970786  0.20780414  0.49259094  1  -0.085305  -0.097253  4e-05  3.969966  0.0
C  C63  1  0.00823570  0.20796385  0.99256817  1  -0.085998  -0.098789  -2.2e-05  3.970572  0.0
C  C64  1  0.76572296  0.71459320  0.43955729  1  -0.092774  -0.087475  0.000539  4.006079  0.0
C  C65  1  0.94872614  0.71449516  0.93957527  1  -0.092434  -0.087009  -0.000533  4.005023  0.0
C  C66  1  0.23426023  0.28539450  0.56044160  1  -0.09286  -0.087531  -0.00054  4.006057  0.0
C  C67  1  0.05127804  0.28550526  0.06042301  1  -0.092434  -0.08705  0.000516  4.005064  0.0
C  C68  1  0.60804630  0.63554588  0.41035542  1  -0.085665  -0.070128  -0.000282  3.986373  0.0
C  C69  1  0.02738041  0.63550968  0.91033652  1  -0.08593  -0.070174  0.000285  3.986986  0.0
C  C70  1  0.39193966  0.36445570  0.58964396  1  -0.085643  -0.070078  0.000284  3.986403  0.0
C  C71  1  0.97262447  0.36449421  0.08966303  1  -0.085943  -0.07024  -0.000271  3.986904  0.0
C  C72  1  0.48549252  0.63606753  0.44889815  1  -0.092469  -0.085253  0.000708  4.004682  0.0
C  C73  1  0.15040979  0.63592768  0.94886626  1  -0.09291  -0.08646  -0.000699  4.005076  0.0
C  C74  1  0.51449482  0.36394100  0.55109969  1  -0.092372  -0.085113  -0.000702  4.004467  0.0
C  C75  1  0.84959718  0.36407622  0.05113379  1  -0.092916  -0.086438  0.000687  4.005002  0.0
C  C76  1  0.51982798  0.71500791  0.51650581  1  -0.085106  -0.094264  0.001557  3.97702  0.001
C  C77  1  0.19498822  0.71476360  0.01648176  1  -0.084396  -0.092615  -0.001542  3.976355  -0.001
C  C78  1  0.48016133  0.28499830  0.48349135  1  -0.085187  -0.094318  -0.001554  3.976969  -0.001
C  C79  1  0.80501932  0.28524145  0.98351684  1  -0.084423  -0.092681  0.001547  3.976345  0.001
C  C80  1  0.63466073  0.72332278  0.78572539  1  0.212093  0.531903  -0.000173  4.129842  0.0
C  C81  1  0.08853932  0.72324595  0.28572840  1  0.211398  0.531762  0.000173  4.129835  0.0
C  C82  1  0.36533650  0.27667418  0.21427570  1  0.212077  0.531825  0.000172  4.129903  0.0
C  C83  1  0.91145639  0.27675216  0.71426920  1  0.21149  0.532007  -0.000172  4.12959  0.0
C  C84  1  0.55639177  0.57146509  0.81031238  1  -0.026196  -0.050664  0.000455  4.009797  0.0
C  C85  1  0.01494646  0.57136975  0.31029923  1  -0.025646  -0.050506  -0.000453  4.009696  0.0
C  C86  1  0.44360673  0.42853650  0.18969109  1  -0.026183  -0.050732  -0.00045  4.009853  0.0
C  C87  1  0.98504752  0.42862488  0.68969659  1  -0.025761  -0.05082  0.000465  4.009705  0.0
C  C88  1  0.63850542  0.48796665  0.81438618  1  -0.086178  -0.096661  -0.000259  3.972852  0.0
C  C89  1  0.84933823  0.48790077  0.31438594  1  -0.085912  -0.096271  0.000258  3.973144  0.0
C  C90  1  0.36149145  0.51203378  0.18561719  1  -0.086148  -0.096561  0.000257  3.972783  0.0
C  C91  1  0.15066201  0.51209386  0.68560784  1  -0.085828  -0.09599  -0.000263  3.972855  0.0
C  C92  1  0.56940687  0.35245061  0.84313930  1  -0.094091  -0.086733  0.000571  3.987783  0.0
C  C93  1  0.78293712  0.35237777  0.34311098  1  -0.094292  -0.087396  -0.000568  3.988409  0.0
C  C94  1  0.43059209  0.64754982  0.15686612  1  -0.094084  -0.08665  -0.000566  3.987785  0.0
C  C95  1  0.21706510  0.64761454  0.65687957  1  -0.094312  -0.087535  0.000575  3.988447  0.0
C  C96  1  0.41784715  0.29959385  0.86768799  1  -0.089923  -0.069786  -0.002425  3.98964  -0.002
C  C97  1  0.88164046  0.29948794  0.36763028  1  -0.089358  -0.068808  0.002429  3.9888  0.002
C  C98  1  0.58215146  0.70041006  0.13231870  1  -0.089973  -0.06999  0.002424  3.989625  0.002
C  C99  1  0.11835851  0.70050205  0.63235857  1  -0.089401  -0.0689  -0.002443  3.988968  -0.002
C  C100  1  0.33256218  0.37869224  0.86123751  1  -0.091684  -0.078438  0.000811  3.986585  0.0
C  C101  1  0.04604239  0.37860790  0.36122106  1  -0.092044  -0.079336  -0.000809  3.985433  0.0
C  C102  1  0.66743968  0.62131398  0.13876934  1  -0.091669  -0.078344  -0.000809  3.986416  0.0
C  C103  1  0.95396330  0.62139136  0.63877151  1  -0.091995  -0.079296  0.000819  3.985492  0.0
C  C104  1  0.40165705  0.51437640  0.83268322  1  -0.087404  -0.101791  0.001113  3.98227  0.0
C  C105  1  0.11261030  0.51428276  0.33266000  1  -0.088089  -0.102516  -0.001117  3.98292  0.0
C  C106  1  0.59834192  0.48562404  0.16732169  1  -0.087417  -0.101776  -0.001119  3.982367  0.0
C  C107  1  0.88738854  0.48571534  0.66733453  1  -0.088077  -0.102498  0.001108  3.982771  0.0
C  C108  1  0.16441297  0.92467500  0.79287088  1  0.05402  0.037315  -0.00019  3.912765  0.0
C  C109  1  0.76013178  0.92455970  0.29288287  1  0.053738  0.036662  0.000183  3.913571  0.0
C  C110  1  0.83558402  0.07532774  0.20713063  1  0.05406  0.037335  0.000181  3.912692  0.0
C  C111  1  0.23986104  0.07543262  0.70711227  1  0.053695  0.036608  -0.000189  3.913651  0.0
C  C112  1  0.30933307  0.92451045  0.79282678  1  0.05438  0.036957  -0.000336  3.91294  0.0
C  C113  1  0.61506647  0.92436075  0.29283149  1  0.05418  0.037111  0.000336  3.915278  0.0
C  C114  1  0.69066147  0.07549577  0.20717600  1  0.05427  0.036959  0.00034  3.912894  0.0
C  C115  1  0.38492275  0.07563273  0.70716526  1  0.054173  0.037029  -0.00033  3.91528  0.0
N  N116  1  0.12895364  0.00005266  0.74998863  1  -0.319275  -0.139601  -0.000354  3.560871  0.0
N  N117  1  0.87104092  0.99994314  0.25000982  1  -0.319274  -0.139555  0.000355  3.560998  0.0
N  N118  1  0.42038413  0.00006740  0.75000367  1  -0.319497  -0.147509  -7.5e-05  3.564169  0.0
N  N119  1  0.57961054  0.99993071  0.24999648  1  -0.319478  -0.147525  7.4e-05  3.564465  0.0
O  O120  1  0.85123465  0.91024112  0.64767018  1  -0.295614  -0.440733  0.001766  2.456496  0.001
O  O121  1  0.05892406  0.91010242  0.14765900  1  -0.295481  -0.440625  -0.001763  2.455271  -0.001
O  O122  1  0.14875342  0.08975004  0.35232998  1  -0.295642  -0.440761  -0.001765  2.456359  -0.001
O  O123  1  0.94107617  0.08990264  0.85234012  1  -0.295472  -0.440575  0.001762  2.455193  0.001
O  O124  1  0.60728012  0.89854364  0.64826480  1  -0.294666  -0.444864  0.003701  2.451594  0.003
O  O125  1  0.29113693  0.89832140  0.14825094  1  -0.294553  -0.444239  -0.003669  2.452766  -0.003
O  O126  1  0.39271478  0.10145910  0.35173518  1  -0.294741  -0.445008  -0.003697  2.45159  -0.003
O  O127  1  0.70886123  0.10167325  0.85175050  1  -0.294576  -0.44427  0.00367  2.452737  0.003
O  O128  1  0.78347906  0.78158895  0.77507399  1  -0.295157  -0.443329  0.002559  2.427857  0.002
O  O129  1  0.99798880  0.78149068  0.27506170  1  -0.294991  -0.443654  -0.002564  2.428664  -0.002
O  O130  1  0.21651619  0.21841032  0.22492879  1  -0.295133  -0.443292  -0.002563  2.427753  -0.002
O  O131  1  0.00200795  0.21850743  0.72493335  1  -0.295013  -0.443736  0.002564  2.428505  0.002
O  O132  1  0.54778791  0.78695277  0.77835349  1  -0.297172  -0.445844  0.00456  2.473568  0.003
O  O133  1  0.23904202  0.78684866  0.27837560  1  -0.296663  -0.445098  -0.004566  2.473861  -0.003
O  O134  1  0.45220769  0.21304303  0.22164650  1  -0.297206  -0.445841  -0.004569  2.473697  -0.003
O  O135  1  0.76095392  0.21315408  0.72162437  1  -0.296673  -0.445114  0.004566  2.47369  0.003
O  O136  1  0.31955231  0.91521781  0.50755964  1  0.006729  -0.003965  -0.954938  1.902792  -0.786
O  O137  1  0.59562906  0.91524388  0.00761088  1  0.0066  -0.004299  0.955531  1.902504  0.786
O  O138  1  0.68046819  0.08473168  0.49242835  1  0.006823  -0.003971  0.954968  1.902585  0.786
O  O139  1  0.40445763  0.08478786  0.99243352  1  0.006698  -0.004259  -0.955527  1.902586  -0.786
O  O140  1  0.23434189  0.83010516  0.45509664  1  0.004436  0.004654  -0.961082  1.857923  -0.783
O  O141  1  0.59584659  0.83016349  0.95516624  1  0.004645  0.005025  0.96128  1.857722  0.783
O  O142  1  0.76562767  0.16991376  0.54488816  1  0.004382  0.004713  0.96113  1.857708  0.783
O  O143  1  0.40421654  0.16986709  0.04487298  1  0.004547  0.004982  -0.961252  1.857846  -0.783
