# generated using pymatgen
data_CoH14(C5O2)2
_symmetry_space_group_name_H-M   'P 1'
_cell_length_a   6.78229396
_cell_length_b   12.41013109
_cell_length_c   12.59321393
_cell_angle_alpha   90.06310096
_cell_angle_beta   103.82776186
_cell_angle_gamma   89.95112191
_symmetry_Int_Tables_number   1
_chemical_formula_structural   CoH14(C5O2)2
_chemical_formula_sum   'Co4 H56 C40 O16'
_cell_volume   1029.24024478
_cell_formula_units_Z   4
loop_
 _symmetry_equiv_pos_site_id
 _symmetry_equiv_pos_as_xyz
  1  'x, y, z'
loop_
 _atom_site_type_symbol
 _atom_site_label
 _atom_site_symmetry_multiplicity
 _atom_site_fract_x
 _atom_site_fract_y
 _atom_site_fract_z
 _atom_site_occupancy
 _atom_site_hle17_ddec_charge
 _atom_site_hle17_ddec_spin_density
 _atom_site_hle17_ddec_sum_bond_order
 _atom_site_hle17_magmom
 _atom_site_hse06_10hf_ddec_charge
 _atom_site_hse06_10hf_ddec_spin_density
 _atom_site_hse06_10hf_ddec_sum_bond_order
 _atom_site_hse06_10hf_magmom
 _atom_site_hse06_ddec_charge
 _atom_site_hse06_ddec_spin_density
 _atom_site_hse06_ddec_sum_bond_order
 _atom_site_hse06_magmom
 _atom_site_pbe_cm5_charge
 _atom_site_pbe_ddec_charge
 _atom_site_pbe_ddec_spin_density
 _atom_site_pbe_ddec_sum_bond_order
 _atom_site_pbe_magmom
Co  Co0  1  0.30181489  0.07069211  0.24162799  1  1.076445  2.80669  1.879606  2.543  1.047799  2.814437  2.314137  2.613  1.134064  2.866179  2.235502  2.7  0.6606  0.968684  2.763912  2.3874  2.528
Co  Co1  1  0.69826818  0.57150585  0.75930657  1  1.077104  2.79887  1.881505  2.538  1.047864  2.804895  2.316991  2.605  1.134853  2.862276  2.237982  2.698  0.659666  0.966677  2.737731  2.391357  2.507
Co  Co2  1  0.80654050  0.97627848  0.24195260  1  1.101189  2.81955  1.859609  2.555  1.073606  2.831708  2.290139  2.628  1.159813  2.878762  2.210544  2.712  0.671134  0.997227  2.783929  2.358126  2.546
Co  Co3  1  0.19333126  0.47726089  0.75763761  1  1.100829  -2.851217  1.863166  -2.552  1.070408  -2.813298  2.295711  -2.62  1.157534  -2.880781  2.215775  -2.708  0.668898  0.991803  -2.737581  2.365325  -2.525
H  H4  1  0.28839513  0.74892616  0.78341543  1  0.094226  1.5e-05  0.952319  0.0  0.103598  3.6e-05  1.015494  0.0  0.105408  1e-05  1.015543  0.0  0.105674  0.102036  5.9e-05  1.015888  0.0
H  H5  1  0.71040529  0.24929262  0.21614607  1  0.0938  -6.5e-05  0.95271  0.0  0.103441  -1e-06  1.015136  0.0  0.105277  -8e-05  1.015137  0.0  0.105397  0.101915  5.7e-05  1.015505  0.0
H  H6  1  0.93272379  0.89719834  0.76255583  1  0.082554  0.000169  0.946477  0.0  0.102332  0.000124  1.003211  0.0  0.103648  5.5e-05  1.003608  0.0  0.093982  0.101249  0.000193  1.003039  0.0
H  H7  1  0.06758393  0.39632755  0.23609414  1  0.082949  0.000113  0.946918  0.0  0.102424  0.000107  1.003629  0.0  0.103737  4.1e-05  1.004025  0.0  0.094158  0.101374  0.000179  1.003457  0.0
H  H8  1  0.14385637  0.90896687  0.70476807  1  0.065339  -1.1e-05  0.945051  0.0  0.083068  2e-06  1.00793  0.0  0.08331  -2e-06  1.008865  0.0  0.08825  0.082913  1.3e-05  1.007281  0.0
H  H9  1  0.85875606  0.40844401  0.29569313  1  0.06545  1.5e-05  0.946362  0.0  0.083238  2.5e-05  1.008843  0.0  0.083522  1.7e-05  1.009712  0.0  0.088241  0.083065  3.7e-05  1.008225  0.0
H  H10  1  0.08711459  0.99941877  0.91781594  1  0.083241  2.1e-05  0.945044  0.0  0.098173  -2.5e-05  1.006767  0.0  0.100014  -6.2e-05  1.005913  0.0  0.092803  0.096853  2.8e-05  1.007329  0.0
H  H11  1  0.91145265  0.50012425  0.08284411  1  0.083593  7.8e-05  0.944884  0.0  0.098473  -1.4e-05  1.006878  0.0  0.100341  -4.9e-05  1.005971  0.0  0.092435  0.097094  2.8e-05  1.007557  0.0
H  H12  1  0.25726318  0.04407646  0.84134770  1  0.074006  5e-06  0.932243  0.0  0.095141  1.8e-05  0.98636  0.0  0.095559  1.1e-05  0.987193  0.0  0.091277  0.094866  2.8e-05  0.985802  0.0
H  H13  1  0.74142539  0.54365044  0.16002776  1  0.073406  2.5e-05  0.933582  0.0  0.094671  1.1e-05  0.987755  0.0  0.095072  4e-06  0.988571  0.0  0.091124  0.094402  2.2e-05  0.987196  0.0
H  H14  1  0.61232349  0.99044159  0.89783842  1  0.096704  1e-06  0.958309  0.0  0.117551  1e-06  1.022907  0.0  0.118493  -1e-06  1.023193  0.0  0.086617  0.116888  5e-06  1.022718  0.0
H  H15  1  0.38694250  0.49097147  0.10238032  1  0.096211  -2.6e-05  0.958733  0.0  0.117097  -3e-06  1.02339  0.0  0.11801  -3e-06  1.023697  0.0  0.086458  0.116454  -3e-06  1.023194  0.0
H  H16  1  0.52930663  0.87188802  0.82195867  1  0.106489  0.000278  0.958409  0.001  0.128825  0.000157  1.019761  0.0  0.130103  8.1e-05  1.019815  0.0  0.090157  0.127938  0.000251  1.019752  0.0
H  H17  1  0.46852686  0.37181665  0.17739871  1  0.106991  0.000228  0.95805  0.0  0.129292  0.00012  1.019327  0.0  0.130461  4.6e-05  1.019505  0.0  0.090314  0.128508  0.000216  1.0192  0.0
H  H18  1  0.68323362  0.86214183  0.95689311  1  0.111206  -7.1e-05  0.97374  0.0  0.1304  -0.000118  1.036127  0.0  0.132065  -0.000136  1.035871  0.0  0.09186  0.129276  -8.3e-05  1.036207  0.0
H  H19  1  0.31544443  0.36316699  0.04212185  1  0.111648  1e-06  0.972517  0.0  0.130866  4.1e-05  1.034856  0.0  0.132587  6.5e-05  1.034512  0.0  0.091896  0.129706  6e-06  1.034988  0.0
H  H20  1  0.54353682  0.69699719  0.93742503  1  0.107197  0.000132  0.962311  0.0  0.126422  0.000345  1.027986  0.0  0.12765  0.000249  1.028093  0.0  0.089396  0.125739  0.000446  1.027732  0.0
H  H21  1  0.45507583  0.19757566  0.06214355  1  0.107316  8.4e-05  0.962466  0.0  0.126616  0.00028  1.027943  0.0  0.127792  0.000187  1.028181  0.0  0.089289  0.125916  0.000365  1.027692  0.0
H  H22  1  0.35716593  0.62490134  0.98556879  1  0.101822  0.000161  0.972683  0.0  0.123023  0.000162  1.035986  0.0  0.123777  0.000141  1.036867  0.0  0.086925  0.122441  0.000175  1.0354  0.0
H  H23  1  0.64056914  0.12530853  0.01318749  1  0.101296  -0.000153  0.972523  0.0  0.123089  -0.000131  1.035317  0.0  0.123837  -0.000147  1.036196  0.0  0.08668  0.12252  -0.000116  1.034733  0.0
H  H24  1  0.51736638  0.71896751  0.07256182  1  0.10815  -3.4e-05  0.953125  0.0  0.130305  -7.2e-05  1.01403  0.0  0.132025  -8.9e-05  1.013611  0.0  0.08847  0.128939  -4.3e-05  1.014496  0.0
H  H25  1  0.48052122  0.21999584  0.92698482  1  0.107142  6.3e-05  0.954121  0.0  0.129386  0.000115  1.015131  0.0  0.131135  0.000115  1.014665  0.0  0.088108  0.128007  0.000112  1.015628  0.0
H  H26  1  0.18880536  0.79604177  0.10398238  1  0.103526  -0.000175  0.971133  0.0  0.126154  -0.000158  1.032381  0.0  0.126781  -0.000153  1.033694  0.0  0.087904  0.125547  -0.000171  1.031791  0.0
H  H27  1  0.80937872  0.29631476  0.89556555  1  0.104479  4.9e-05  0.971307  0.0  0.126528  4.2e-05  1.033301  0.0  0.127145  4e-05  1.034631  0.0  0.088071  0.125915  4.7e-05  1.032742  0.0
H  H28  1  0.03909786  0.70790222  0.00748793  1  0.110569  -9e-05  0.942244  0.0  0.135485  -0.000115  0.996872  0.0  0.137048  -9.5e-05  0.996557  0.0  0.091909  0.134256  -0.000128  0.997265  0.0
H  H29  1  0.95927572  0.20786842  0.99159354  1  0.11078  -5.6e-05  0.940904  0.0  0.136246  -7.4e-05  0.994911  0.0  0.137782  -8e-05  0.994644  0.0  0.092117  0.135053  -6.8e-05  0.995231  0.0
H  H30  1  0.00081825  0.84960415  0.99514386  1  0.112327  -4e-05  0.957803  0.0  0.135988  -5.6e-05  1.014269  0.0  0.13746  -5.9e-05  1.014347  0.0  0.092694  0.134844  -4.8e-05  1.014364  0.0
H  H31  1  0.99776747  0.34955457  0.00440963  1  0.113414  5e-06  0.957652  0.0  0.137259  -9e-06  1.013666  0.0  0.138761  -1.3e-05  1.013704  0.0  0.093289  0.136115  -5e-06  1.013746  0.0
H  H32  1  0.51768021  0.61636939  0.51561662  1  0.087748  0.000244  0.921624  0.0  0.098277  0.000528  0.979946  0.0  0.100173  0.000387  0.978685  0.0  0.107606  0.0969  0.0007  0.981085  0.0
H  H33  1  0.48333946  0.11762389  0.48453161  1  0.087199  0.000404  0.921242  0.0  0.097224  0.000821  0.979789  0.001  0.099031  0.000593  0.978614  0.001  0.107517  0.095881  0.001038  0.980858  0.001
H  H34  1  0.11848454  0.51647609  0.40240060  1  0.079122  -9.9e-05  0.953197  0.0  0.095833  -7.3e-05  1.015885  0.0  0.097777  -2.9e-05  1.015088  0.0  0.092252  0.094353  -0.000114  1.016505  0.0
H  H35  1  0.88150904  0.01666294  0.59773210  1  0.078706  0.000215  0.953595  0.0  0.095333  0.000216  1.016242  0.0  0.097233  0.000119  1.015455  0.0  0.092034  0.09385  0.000325  1.016884  0.0
H  H36  1  0.35493836  0.50537921  0.36924178  1  0.069719  5.9e-05  0.951585  0.0  0.090485  6.2e-05  1.009588  0.0  0.091031  4.1e-05  1.010318  0.0  0.090577  0.089978  8.7e-05  1.009248  0.0
H  H37  1  0.64481805  0.00675925  0.63082911  1  0.069457  1.5e-05  0.951048  0.0  0.089118  3.4e-05  1.01022  0.0  0.089572  2.1e-05  1.011061  0.0  0.090213  0.088692  5.2e-05  1.009776  0.0
H  H38  1  0.23027424  0.63419256  0.22920145  1  0.072685  -4.2e-05  0.936692  0.0  0.093384  -3.4e-05  0.993216  0.0  0.093804  -2.4e-05  0.994248  0.0  0.090255  0.093011  -4.4e-05  0.992606  0.0
H  H39  1  0.77178686  0.13525225  0.77110435  1  0.073496  2.5e-05  0.937158  0.0  0.093828  5.2e-05  0.994012  0.0  0.09421  3.5e-05  0.995097  0.0  0.090597  0.093502  7.2e-05  0.993355  0.0
H  H40  1  0.02125546  0.66436099  0.28401546  1  0.081012  -2e-06  0.948016  0.0  0.096252  -2.6e-05  1.009397  0.0  0.098065  -6.2e-05  1.008577  0.0  0.092097  0.094839  2.1e-05  1.010086  0.0
H  H41  1  0.98006045  0.16511768  0.71567789  1  0.080976  -8.1e-05  0.948856  0.0  0.096277  -1.1e-05  1.010021  0.0  0.098133  3.2e-05  1.009141  0.0  0.091998  0.094849  -5.8e-05  1.010758  0.0
H  H42  1  0.50940115  0.76760358  0.25732909  1  0.103044  -1.6e-05  0.966706  0.0  0.121583  4.9e-05  1.03578  0.0  0.123137  7e-06  1.035414  0.0  0.087691  0.120457  9.5e-05  1.03608  0.0
H  H43  1  0.49167171  0.26848013  0.74299568  1  0.103603  5e-06  0.967589  0.0  0.12198  -7.6e-05  1.036637  0.0  0.123515  -4.1e-05  1.036297  0.0  0.088085  0.120892  -0.00011  1.036888  0.0
H  H44  1  0.59100791  0.68218770  0.37180019  1  0.100877  0.000211  0.95178  0.0  0.125984  0.00013  1.007657  0.0  0.12718  7.8e-05  1.007676  0.0  0.089552  0.125122  0.000191  1.007686  0.0
H  H45  1  0.41011871  0.18322478  0.62827408  1  0.100451  -0.000186  0.950621  0.0  0.125369  -0.000114  1.00671  0.0  0.126558  -6.8e-05  1.006718  0.0  0.089352  0.124499  -0.000165  1.006739  0.0
H  H46  1  0.60043649  0.82460850  0.38875828  1  0.108242  8.6e-05  0.969749  0.0  0.125779  0.000271  1.038072  0.0  0.127133  0.000175  1.038213  0.0  0.089822  0.124892  0.000379  1.037853  0.0
H  H47  1  0.40066306  0.32564898  0.61175474  1  0.108623  -9.4e-05  0.96967  0.0  0.125608  -0.000335  1.038501  0.0  0.126976  -0.00029  1.03857  0.0  0.089888  0.124742  -0.000366  1.038328  0.0
H  H48  1  0.38700599  0.90096432  0.54100597  1  0.108411  1.4e-05  0.952824  0.0  0.130674  -4e-05  1.012479  0.0  0.132197  -6.1e-05  1.012378  0.0  0.087679  0.129426  -1.2e-05  1.012745  0.0
H  H49  1  0.61448179  0.40175639  0.45942360  1  0.108553  2.2e-05  0.953567  0.0  0.130827  -1e-06  1.013057  0.0  0.13233  -2.3e-05  1.012973  0.0  0.088088  0.129615  2.7e-05  1.013298  0.0
H  H50  1  0.58945348  0.80615868  0.55867687  1  0.109664  -5.8e-05  0.948531  0.0  0.133493  -7.2e-05  1.006569  0.0  0.134729  -7e-05  1.006918  0.0  0.090738  0.132556  -7.2e-05  1.006387  0.0
H  H51  1  0.41188415  0.30716836  0.44172224  1  0.109657  -6e-06  0.948471  0.0  0.133289  1.9e-05  1.006746  0.0  0.134452  -0.0  1.007191  0.0  0.090489  0.132416  4.2e-05  1.006466  0.0
H  H52  1  0.42190415  0.80197096  0.64612108  1  0.101539  -0.000136  0.978033  0.0  0.121803  -0.000141  1.045867  0.0  0.123306  -0.000129  1.045593  0.0  0.085632  0.120666  -0.000148  1.046087  0.0
H  H53  1  0.57942173  0.30261724  0.35424321  1  0.102631  -7.2e-05  0.977235  0.0  0.122477  -8.4e-05  1.04528  0.0  0.123969  -0.00011  1.044999  0.0  0.085997  0.121339  -5e-05  1.045534  0.0
H  H54  1  0.06549187  0.73886651  0.58313207  1  0.100754  4.7e-05  0.961966  0.0  0.124283  7.1e-05  1.021866  0.0  0.124817  5e-05  1.023067  0.0  0.086694  0.123776  9.7e-05  1.021256  0.0
H  H55  1  0.93585328  0.23976002  0.41716819  1  0.100812  -0.000111  0.963139  0.0  0.124183  -0.0001  1.022823  0.0  0.124697  -0.000111  1.024059  0.0  0.086406  0.1237  -9e-05  1.022162  0.0
H  H56  1  0.96044531  0.70343624  0.44498268  1  0.106826  -1.8e-05  0.958001  0.0  0.131148  -2.7e-05  1.014854  0.0  0.132411  -2.5e-05  1.015232  0.0  0.090519  0.13019  -2.8e-05  1.014638  0.0
H  H57  1  0.04088389  0.20397257  0.55516506  1  0.106951  6e-06  0.957812  0.0  0.130803  2.3e-05  1.01498  0.0  0.132049  1.8e-05  1.015377  0.0  0.090137  0.129838  2.7e-05  1.014765  0.0
H  H58  1  0.01857685  0.83996844  0.48123138  1  0.116671  -0.0001  0.964818  0.0  0.138333  -8.3e-05  1.025771  0.0  0.140429  -0.000116  1.025152  0.0  0.091095  0.13669  -4.3e-05  1.026444  0.0
H  H59  1  0.98274836  0.34056519  0.51950740  1  0.117346  0.000189  0.965934  0.0  0.138315  0.000233  1.027363  0.0  0.140479  0.000219  1.026677  0.0  0.091019  0.136663  0.000243  1.028012  0.0
C  C60  1  0.36841520  0.90788991  0.94931302  1  -0.020976  0.008115  3.525457  0.012  0.007885  0.004566  3.745284  0.007  0.00027  0.002961  3.763491  0.005  -0.009034  0.013495  0.006319  3.733304  0.009
C  C61  1  0.63076465  0.40821378  0.05080204  1  -0.02008  0.000962  3.52198  0.002  0.009112  0.000526  3.741539  0.001  0.001381  0.000428  3.759691  0.001  -0.009086  0.014864  0.000604  3.729575  0.001
C  C62  1  0.27484140  0.79065794  0.94815670  1  0.182303  -0.000464  3.474544  -0.001  0.211857  0.000122  3.699619  0.0  0.213139  7.9e-05  3.719453  0.0  0.000353  0.210548  0.000111  3.686596  0.0
C  C63  1  0.72398348  0.29080660  0.05149903  1  0.182344  0.000411  3.474495  0.0  0.211967  0.000523  3.699119  0.001  0.213216  0.00036  3.719006  0.001  -8.2e-05  0.210749  0.000657  3.686028  0.001
C  C64  1  0.17088166  0.77879205  0.82295526  1  -0.190619  0.001404  3.583298  0.002  -0.18948  0.000555  3.804754  0.0  -0.197671  0.000231  3.817934  0.0  -0.086135  -0.183825  0.000937  3.796736  0.001
C  C65  1  0.82814517  0.27865087  0.17660317  1  -0.191229  0.000847  3.583103  0.001  -0.189265  0.000372  3.803475  0.0  -0.197439  -8.3e-05  3.816722  0.0  -0.085121  -0.183766  0.000928  3.79553  0.001
C  C66  1  0.09869919  0.89231552  0.78121714  1  -0.109324  0.000994  3.631652  0.001  -0.158595  0.000912  3.893292  0.001  -0.158807  0.000607  3.906526  0.001  -0.166295  -0.158149  0.001247  3.884074  0.002
C  C67  1  0.90165628  0.39189441  0.21857426  1  -0.110723  0.00045  3.634208  0.001  -0.159395  0.00062  3.894674  0.001  -0.159652  0.00042  3.907912  0.001  -0.167233  -0.158917  0.000848  3.885484  0.001
C  C68  1  0.19728077  0.97169812  0.87271842  1  -0.144291  0.000913  3.635041  0.001  -0.191157  0.000798  3.891453  0.001  -0.191688  0.000494  3.904744  0.001  -0.166257  -0.190712  0.001151  3.882223  0.001
C  C69  1  0.80182689  0.47171396  0.12787305  1  -0.143562  -0.000892  3.6334  -0.001  -0.191574  -0.00045  3.890908  -0.001  -0.19203  -0.000341  3.904121  0.0  -0.165816  -0.191179  -0.000571  3.881761  -0.001
C  C70  1  0.42116979  0.95093853  0.06656748  1  0.67505  -0.004733  3.758566  -0.01  0.637069  0.003931  4.053782  0.003  0.677488  0.003384  4.046991  0.003  0.23717  0.606079  0.003436  4.057084  0.001
C  C71  1  0.57892724  0.45150499  0.93368248  1  0.673238  -0.002898  3.761286  -0.004  0.63455  -0.001516  4.056448  -0.002  0.675042  -0.000984  4.049671  -0.001  0.235703  0.603796  -0.002242  4.059499  -0.003
C  C72  1  0.00821794  0.69426150  0.80116560  1  0.689915  -0.006015  3.765193  -0.01  0.647017  -0.002831  4.065703  -0.006  0.68759  -0.002331  4.058  -0.005  0.224289  0.616204  -0.003378  4.069055  -0.007
C  C73  1  0.99008728  0.19351774  0.19833898  1  0.696547  -0.001357  3.758926  -0.004  0.652126  0.005686  4.061896  0.006  0.692315  0.00434  4.054111  0.005  0.225616  0.621988  0.006451  4.065412  0.006
C  C74  1  0.55967212  0.90751157  0.90408665  1  -0.316291  0.000138  3.674849  0.0  -0.402043  0.000233  3.915673  0.0  -0.403524  6.5e-05  3.926105  0.0  -0.243821  -0.400928  0.000436  3.90841  0.0
C  C75  1  0.43902725  0.40796508  0.09558569  1  -0.317396  0.000505  3.67472  0.001  -0.403366  0.000345  3.915739  0.0  -0.404836  0.000257  3.926304  0.0  -0.244036  -0.402312  0.000448  3.908453  0.001
C  C76  1  0.43317037  0.70318292  0.98802455  1  -0.343448  0.000291  3.663002  0.0  -0.428605  0.000436  3.903247  0.001  -0.43164  0.000314  3.914783  0.0  -0.249972  -0.426269  0.000564  3.895297  0.001
C  C77  1  0.56505594  0.20373143  0.01133885  1  -0.341887  -5.9e-05  3.66394  0.0  -0.427481  0.000149  3.903726  0.0  -0.430521  8.3e-05  3.915282  0.0  -0.249385  -0.425167  0.000205  3.895791  0.0
C  C78  1  0.11630323  0.78641385  0.01691759  1  -0.344652  -0.000235  3.647122  0.0  -0.427729  -0.000231  3.880132  0.0  -0.430514  -0.000233  3.890351  0.0  -0.246799  -0.425718  -0.000222  3.87364  0.0
C  C79  1  0.88223362  0.28646009  0.98254385  1  -0.347366  -2.5e-05  3.646607  0.0  -0.430883  2.8e-05  3.879767  0.0  -0.433716  -3e-06  3.889978  0.0  -0.247992  -0.428841  6.1e-05  3.873258  0.0
C  C80  1  0.29325543  0.75537671  0.35923878  1  -0.021648  0.006966  3.521564  0.011  0.00873  0.004045  3.739007  0.006  0.001411  0.002667  3.756765  0.004  -0.009996  0.013968  0.005547  3.727493  0.008
C  C81  1  0.70789955  0.25626483  0.64105716  1  -0.020096  -0.0003  3.522116  -0.001  0.00911  -0.000124  3.741976  -0.001  0.00172  -0.000248  3.759806  -0.001  -0.009715  0.01441  0.000185  3.730381  0.0
C  C82  1  0.28723330  0.74129010  0.48357838  1  0.18109  0.000398  3.472599  0.0  0.210049  0.000725  3.698892  0.001  0.211153  0.000503  3.719029  0.001  -4.4e-05  0.208916  0.000943  3.685575  0.001
C  C83  1  0.71404390  0.24206966  0.51670614  1  0.181257  -4.5e-05  3.473718  0.0  0.210092  0.00041  3.699596  0.001  0.211109  0.000265  3.719893  0.0  0.000174  0.209028  0.00057  3.686223  0.001
C  C84  1  0.35097477  0.61967174  0.50040969  1  -0.181239  -0.000942  3.593083  -0.001  -0.180276  0.000239  3.817381  0.0  -0.18805  0.000347  3.831146  0.001  -0.08245  -0.174867  0.00011  3.808526  0.0
C  C85  1  0.65007182  0.12053741  0.49971044  1  -0.181858  0.001273  3.593174  0.002  -0.179651  0.001176  3.816694  0.001  -0.187295  0.000577  3.830383  0.001  -0.082364  -0.174279  0.00189  3.80777  0.002
C  C86  1  0.24972541  0.56303998  0.39211588  1  -0.116233  -0.000476  3.635927  -0.001  -0.166251  -0.00061  3.896041  -0.001  -0.166591  -0.000459  3.908858  -0.001  -0.16764  -0.16578  -0.000724  3.887289  -0.001
C  C87  1  0.75077141  0.06384490  0.60795222  1  -0.114206  0.000901  3.636442  0.001  -0.163328  0.00085  3.895678  0.001  -0.163574  0.000524  3.90843  0.001  -0.166996  -0.162898  0.001245  3.886949  0.002
C  C88  1  0.18614978  0.65265019  0.30564796  1  -0.14348  0.000854  3.632066  0.001  -0.191279  0.00072  3.888272  0.001  -0.191946  0.000446  3.901557  0.001  -0.165357  -0.190641  0.001028  3.879212  0.001
C  C89  1  0.81516046  0.15351308  0.69445133  1  -0.146007  0.000906  3.635119  0.001  -0.193513  0.000544  3.891596  0.001  -0.194157  0.000389  3.904815  0.001  -0.16625  -0.192944  0.000732  3.88256  0.001
C  C90  1  0.18469344  0.85965224  0.31395577  1  0.673866  -0.003912  3.750865  -0.009  0.635986  0.004931  4.043642  0.004  0.676638  0.003923  4.035808  0.004  0.234903  0.605072  0.005037  4.047553  0.003
C  C91  1  0.81644601  0.36052866  0.68638263  1  0.673133  0.004783  3.753153  0.006  0.634069  0.003199  4.047289  0.004  0.674717  0.002132  4.03965  0.003  0.234216  0.603491  0.004554  4.050624  0.005
C  C92  1  0.30067947  0.57223652  0.60028153  1  0.686356  0.009111  3.770712  0.014  0.641536  0.005965  4.071966  0.01  0.681167  0.004156  4.064656  0.007  0.222087  0.611721  0.008425  4.075279  0.013
C  C93  1  0.69983311  0.07288983  0.39963329  1  0.687934  -0.001894  3.769266  -0.005  0.642438  0.005209  4.071746  0.005  0.68171  0.003907  4.064708  0.004  0.222046  0.613077  0.006234  4.07492  0.005
C  C94  1  0.51168061  0.75803630  0.34428233  1  -0.320486  0.000163  3.678991  0.0  -0.40957  0.000719  3.925026  0.001  -0.411129  0.000476  3.935428  0.0  -0.244573  -0.40831  0.000981  3.917726  0.001
C  C95  1  0.48948651  0.25900567  0.65602366  1  -0.320934  -0.000379  3.676839  0.0  -0.408878  -0.000657  3.92337  0.0  -0.410307  -0.000544  3.933628  0.0  -0.244646  -0.407751  -0.000746  3.916216  0.0
C  C96  1  0.43024799  0.81686170  0.56145760  1  -0.343978  -9.1e-05  3.670356  0.0  -0.432191  -0.000128  3.914051  0.0  -0.435087  -0.000138  3.924365  0.0  -0.248713  -0.42986  -9.4e-05  3.907061  0.0
C  C97  1  0.57109145  0.31767783  0.43889922  1  -0.345078  8.7e-05  3.671386  0.0  -0.432798  0.000135  3.915446  0.0  -0.435617  3.9e-05  3.925788  0.0  -0.249383  -0.430547  0.000248  3.908468  0.0
C  C98  1  0.07032458  0.75658312  0.49833849  1  -0.348215  5.6e-05  3.641654  0.0  -0.431588  0.000132  3.874744  0.0  -0.434689  6.7e-05  3.885455  0.0  -0.249363  -0.429234  0.000212  3.867717  0.0
C  C99  1  0.93097335  0.25724857  0.50203109  1  -0.349209  0.000101  3.643725  0.0  -0.431196  0.000175  3.876212  0.0  -0.434366  0.000126  3.886951  0.0  -0.248726  -0.428807  0.000225  3.869191  0.0
O  O100  1  0.29342829  0.01209097  0.09625502  1  -0.606768  0.051963  2.131309  0.09  -0.57803  0.036919  2.417064  0.059  -0.617839  0.028198  2.402551  0.044  -0.301126  -0.544965  0.046002  2.426633  0.074
O  O101  1  0.70782108  0.51199578  0.90440494  1  -0.607138  0.043036  2.130341  0.073  -0.577456  0.028976  2.415711  0.043  -0.617335  0.02283  2.401286  0.033  -0.301095  -0.544331  0.034721  2.424963  0.053
O  O102  1  0.58872930  0.91848538  0.12879101  1  -0.638463  0.049463  2.128677  0.081  -0.608264  0.037184  2.426081  0.054  -0.649555  0.027649  2.408668  0.038  -0.315319  -0.573304  0.047382  2.436622  0.07
O  O103  1  0.41099847  0.41982908  0.87132420  1  -0.637543  -0.048774  2.129351  -0.077  -0.606994  -0.0352  2.427388  -0.05  -0.648236  -0.026815  2.409722  -0.036  -0.31439  -0.571895  -0.043701  2.437819  -0.064
O  O104  1  0.82027694  0.71858662  0.76918323  1  -0.583788  0.039652  2.000048  0.063  -0.549967  0.028678  2.266932  0.04  -0.590007  0.02228  2.255374  0.03  -0.295901  -0.516546  0.034004  2.273864  0.048
O  O105  1  0.17806386  0.21751647  0.23109532  1  -0.586839  0.056854  1.997282  0.092  -0.552246  0.042221  2.26404  0.063  -0.591856  0.031804  2.252352  0.047  -0.297021  -0.519857  0.052278  2.271204  0.078
O  O106  1  0.05058789  0.59316042  0.81650548  1  -0.679099  -0.012999  2.178445  -0.017  -0.649103  -0.008887  2.487527  -0.007  -0.69308  -0.007461  2.467699  -0.005  -0.316382  -0.609965  -0.010482  2.498954  -0.01
O  O107  1  0.94654086  0.09271266  0.18231642  1  -0.68151  0.053255  2.172149  0.09  -0.652957  0.045441  2.482095  0.069  -0.695892  0.035675  2.461732  0.052  -0.318777  -0.615646  0.055869  2.494527  0.086
O  O108  1  0.28854665  0.94700927  0.33495824  1  -0.64582  0.047363  2.10603  0.078  -0.618634  0.034995  2.404468  0.051  -0.659416  0.026241  2.38779  0.036  -0.31966  -0.583367  0.044576  2.414065  0.066
O  O109  1  0.71286975  0.44797713  0.66530474  1  -0.646258  0.044998  2.10542  0.073  -0.618187  0.031818  2.403257  0.045  -0.659246  0.024336  2.386984  0.033  -0.319217  -0.582618  0.039452  2.412559  0.057
O  O110  1  0.00049661  0.85532970  0.26037927  1  -0.59931  0.050016  2.085619  0.085  -0.564304  0.038595  2.357106  0.06  -0.603119  0.029943  2.34177  0.045  -0.298637  -0.532809  0.047367  2.367023  0.073
O  O111  1  0.00068851  0.35592139  0.73994742  1  -0.59803  -0.041256  2.083926  -0.067  -0.562163  -0.029225  2.355539  -0.042  -0.601037  -0.023424  2.340242  -0.033  -0.298406  -0.530532  -0.034399  2.365281  -0.05
O  O112  1  0.40460039  0.59875604  0.69725876  1  -0.689331  0.009866  2.177334  0.01  -0.656322  0.008415  2.488986  0.003  -0.699216  0.007625  2.470915  0.003  -0.321684  -0.618688  0.00887  2.499099  0.003
O  O113  1  0.59560394  0.09975754  0.30289447  1  -0.688345  0.049642  2.168757  0.081  -0.656781  0.04372  2.48025  0.062  -0.699138  0.034831  2.462501  0.048  -0.32242  -0.62016  0.052946  2.49028  0.076
O  O114  1  0.15366162  0.50741880  0.59497997  1  -0.582607  -0.038769  2.013002  -0.063  -0.548588  -0.026595  2.275129  -0.039  -0.586619  -0.020965  2.264021  -0.03  -0.291322  -0.518257  -0.031316  2.282326  -0.047
O  O115  1  0.84628343  0.00765171  0.40475316  1  -0.583847  0.054651  2.010277  0.091  -0.550219  0.040672  2.272561  0.064  -0.588087  0.030903  2.261465  0.048  -0.291739  -0.520317  0.050147  2.279704  0.078
