# generated using pymatgen
data_ThH12(C3O)8
_symmetry_space_group_name_H-M   'P 1'
_cell_length_a   12.43800017
_cell_length_b   14.28833611
_cell_length_c   14.28833934
_cell_angle_alpha   102.30099278
_cell_angle_beta   101.64027903
_cell_angle_gamma   101.64028567
_symmetry_Int_Tables_number   1
_chemical_formula_structural   ThH12(C3O)8
_chemical_formula_sum   'Th4 H48 C96 O32'
_cell_volume   2349.15441987
_cell_formula_units_Z   4
loop_
 _symmetry_equiv_pos_site_id
 _symmetry_equiv_pos_as_xyz
  1  'x, y, z'
loop_
 _atom_site_type_symbol
 _atom_site_label
 _atom_site_symmetry_multiplicity
 _atom_site_fract_x
 _atom_site_fract_y
 _atom_site_fract_z
 _atom_site_occupancy
 _atom_site_pbe_bader_charge
 _atom_site_pbe_bader_spin_density
 _atom_site_pbe_cm5_charge
 _atom_site_pbe_ddec_charge
 _atom_site_pbe_ddec_spin_density
 _atom_site_pbe_ddec_sum_bond_order
 _atom_site_pbe_magmom
Th  Th0  1  0.54284260  0.78586727  0.28455180  1  2.883187  0  1.653884  2.31668  0  3.369853  0
Th  Th1  1  0.04284328  0.28455194  0.78586803  1  2.883168  0  1.653863  2.316632  0  3.369901  0
Th  Th2  1  0.77143471  0.05851460  0.55695306  1  2.889666  0  1.654457  2.315764  0  3.376727  0
Th  Th3  1  0.27143382  0.55695175  0.05851505  1  2.889638  0  1.654438  2.315728  0  3.376795  0
H  H4  1  0.46357578  0.48386393  0.94963366  1  0.074081  0  0.10948  0.106896  0  1.064366  0
H  H5  1  0.96357637  0.94963436  0.48386416  1  0.074077  0  0.109481  0.106898  0  1.064359  0
H  H6  1  0.80122238  0.63236428  0.12959377  1  0.111303  0  0.107926  0.113324  0  1.005846  0
H  H7  1  0.30122323  0.12959508  0.63236412  1  0.111283  0  0.107927  0.113329  0  1.005824  0
H  H8  1  0.88232867  0.52279435  0.01750688  1  0.09206  0  0.107914  0.118623  0  0.989031  0
H  H9  1  0.38232937  0.01750786  0.52279355  1  0.092059  0  0.107896  0.118603  0  0.989055  0
H  H10  1  0.43256893  0.34624917  0.79916806  1  0.053026  0  0.107329  0.117287  0  0.99392  0
H  H11  1  0.93256881  0.79916909  0.34624946  1  0.053035  0  0.107314  0.11728  0  0.993941  0
H  H12  1  0.51322607  0.23346126  0.69023004  1  0.110444  0  0.107463  0.113421  0  1.004967  0
H  H13  1  0.01322514  0.69023093  0.23346110  1  0.110448  0  0.107459  0.113433  0  1.004948  0
H  H14  1  0.85055943  0.38151108  0.87111829  1  0.122769  0  0.110031  0.108288  0  1.068317  0
H  H15  1  0.35055856  0.87111870  0.38151001  1  0.122782  0  0.110014  0.108282  0  1.068361  0
H  H16  1  0.52298323  0.99243172  0.11599855  1  0.070231  0  0.109095  0.11333  0  1.011522  0
H  H17  1  0.02298475  0.11599903  0.99243321  1  0.070216  0  0.109098  0.113348  0  1.011466  0
H  H18  1  0.20789274  0.79817434  0.92756944  1  0.107572  0  0.105096  0.110328  0  1.029261  0
H  H19  1  0.70789239  0.92757155  0.79817481  1  0.107588  0  0.105038  0.110308  0  1.029283  0
H  H20  1  0.14714007  0.94135249  0.88018194  1  0.085846  0  0.103265  0.10672  0  1.002455  0
H  H21  1  0.64714002  0.88018439  0.94135271  1  0.085875  0  0.103284  0.106771  0  1.002474  0
H  H22  1  0.56340904  0.17485562  0.12994587  1  0.05253  0  0.100159  0.099112  0  1.014681  0
H  H23  1  0.06340882  0.12994529  0.17485619  1  0.05253  0  0.100146  0.0991  0  1.014713  0
H  H24  1  0.49474650  0.31922834  0.09474484  1  0.104917  0  0.108419  0.115722  0  0.991507  0
H  H25  1  0.99474469  0.09474426  0.31922797  1  0.104899  0  0.108405  0.115708  0  0.991563  0
H  H26  1  0.18199310  0.12298689  0.90308006  1  0.118716  0  0.111062  0.116864  0  1.038189  0
H  H27  1  0.68199297  0.90308017  0.12298642  1  0.118694  0  0.111061  0.116871  0  1.038203  0
H  H28  1  0.62694576  0.22108679  0.44794292  1  0.101368  0  0.111011  0.117412  0  1.035156  0
H  H29  1  0.12694514  0.44794316  0.22108676  1  0.101382  0  0.110995  0.117399  0  1.035173  0
H  H30  1  0.32328803  0.02376147  0.24275424  1  0.076997  0  0.107952  0.114971  0  0.99196  0
H  H31  1  0.82328842  0.24275306  0.02376194  1  0.076998  0  0.107947  0.114973  0  0.991995  0
H  H32  1  0.25421063  0.16791466  0.20747027  1  0.086701  0  0.100371  0.098792  0  1.015827  0
H  H33  1  0.75421094  0.20746913  0.16791540  1  0.086692  0  0.100359  0.098791  0  1.015836  0
H  H34  1  0.65808055  0.40341404  0.47596008  1  0.06735  0  0.104157  0.109307  0  0.996936  0
H  H35  1  0.15807948  0.47596093  0.40341493  1  0.067361  0  0.104165  0.109304  0  0.996937  0
H  H36  1  0.60022240  0.54626010  0.42543023  1  0.095898  0  0.105671  0.110719  0  1.022887  0
H  H37  1  0.10022096  0.42543063  0.54626040  1  0.095911  0  0.105665  0.110722  0  1.022827  0
H  H38  1  0.29342690  0.35058225  0.22424208  1  0.083422  0  0.10949  0.114262  0  1.007793  0
H  H39  1  0.79342677  0.22424170  0.35058265  1  0.083413  0  0.109486  0.114265  0  1.00779  0
H  H40  1  0.46605831  0.67128822  0.49256321  1  0.122493  0  0.109575  0.117032  0  1.027245  0
H  H41  1  0.96605820  0.49256251  0.67128874  1  0.122482  0  0.109571  0.116984  0  1.027327  0
H  H42  1  0.50895513  0.93678888  0.72045456  1  0.062988  0  0.112284  0.118544  0  0.988222  0
H  H43  1  0.00895370  0.72045515  0.93678773  1  0.063005  0  0.112274  0.118533  0  0.98828  0
H  H44  1  0.42861700  0.83673265  0.82575337  1  0.0563  0  0.100979  0.102235  0  1.017424  0
H  H45  1  0.92861536  0.82575294  0.83673023  1  0.056417  0  0.100996  0.102249  0  1.017416  0
H  H46  1  0.39012961  0.50573366  0.51853091  1  0.113061  0  0.10016  0.101063  0  1.023067  0
H  H47  1  0.89012972  0.51852888  0.50573303  1  0.113017  0  0.10018  0.101098  0  1.023114  0
H  H48  1  0.30650916  0.40600370  0.62247122  1  0.104017  0  0.111349  0.117163  0  0.98923  0
H  H49  1  0.80651088  0.62246907  0.40600198  1  0.103974  0  0.111354  0.117152  0  0.989227  0
H  H50  1  0.35210226  0.67140336  0.85136276  1  0.112705  0  0.109338  0.117607  0  1.024483  0
H  H51  1  0.85210277  0.85136154  0.67140137  1  0.112613  0  0.109348  0.117652  0  1.024421  0
C  C52  1  0.55458488  0.49200251  0.96355972  1  0.036243  0  -0.06959  -0.121119  0  3.906162  0
C  C53  1  0.05458434  0.96355993  0.49200262  1  0.036224  0  -0.069576  -0.121063  0  3.906132  0
C  C54  1  0.62745524  0.56303296  0.04551206  1  -0.087013  0  -0.014862  -0.03715  0  3.984963  0
C  C55  1  0.12745497  0.04551245  0.56303348  1  -0.087029  0  -0.014874  -0.03725  0  3.985063  0
C  C56  1  0.74684128  0.57505766  0.06473634  1  -0.018216  0  -0.082257  -0.094056  0  3.985132  0
C  C57  1  0.24684190  0.06473730  0.57505865  1  -0.018226  0  -0.082252  -0.094025  0  3.98508  0
C  C58  1  0.79080904  0.51467584  0.00270319  1  -0.082449  0  -0.0838  -0.125576  0  3.965717  0
C  C59  1  0.29080830  0.00270455  0.51467487  1  -0.082805  0  -0.083781  -0.125549  0  3.965676  0
C  C60  1  0.71757614  0.44015865  0.91870889  1  0.008372  0  -0.000539  0.080938  0  3.986696  0
C  C61  1  0.21757599  0.91870875  0.44015847  1  0.008782  0  -0.000552  0.080924  0  3.986733  0
C  C62  1  0.59710105  0.42904057  0.89826363  1  -0.026381  0  -0.001336  0.076426  0  3.987522  0
C  C63  1  0.09710143  0.89826511  0.42904090  1  -0.026458  0  -0.00132  0.07645  0  3.987515  0
C  C64  1  0.52406396  0.35419142  0.81438786  1  -0.007325  0  -0.083458  -0.123192  0  3.966231  0
C  C65  1  0.02406322  0.81438789  0.35419196  1  -0.007339  0  -0.08343  -0.12321  0  3.966236  0
C  C66  1  0.56782305  0.29169143  0.75424538  1  -0.073133  0  -0.083426  -0.096113  0  3.987204  0
C  C67  1  0.06782309  0.75424606  0.29169146  1  -0.0731  0  -0.083437  -0.096119  0  3.987161  0
C  C68  1  0.68692501  0.30146534  0.77555567  1  -0.052558  0  -0.016254  -0.04053  0  3.989342  0
C  C69  1  0.18692430  0.77555568  0.30146527  1  -0.052599  0  -0.016239  -0.040463  0  3.989369  0
C  C70  1  0.75982457  0.37497054  0.85545242  1  0.005597  0  -0.070854  -0.122836  0  3.908263  0
C  C71  1  0.25982337  0.85545267  0.37496981  1  0.005662  0  -0.070849  -0.122879  0  3.908384  0
C  C72  1  0.58227913  0.62705717  0.11525578  1  1.536268  0  0.238294  0.624308  0  4.125724  0
C  C73  1  0.08227962  0.11525691  0.62705804  1  1.536303  0  0.238287  0.624324  0  4.125729  0
C  C74  1  0.73188125  0.23000571  0.71327926  1  1.540083  0  0.23814  0.624748  0  4.123533  0
C  C75  1  0.23188076  0.71327955  0.23000568  1  1.54008  0  0.238141  0.624697  0  4.12358  0
C  C76  1  0.44228986  0.98227067  0.06302548  1  -0.010789  0  -0.070264  -0.123334  0  3.914909  0
C  C77  1  0.94229120  0.06302621  0.98227188  1  -0.010791  0  -0.070288  -0.123414  0  3.914881  0
C  C78  1  0.36941005  0.88812285  0.02463989  1  -0.039629  0  -0.018286  -0.049031  0  3.9856  0
C  C79  1  0.86941162  0.02464053  0.88812385  1  -0.039606  0  -0.018337  -0.049053  0  3.985559  0
C  C80  1  0.26290672  0.87307352  0.95665721  1  -0.003902  0  -0.087806  -0.102021  0  3.990455  0
C  C81  1  0.76290693  0.95665882  0.87307482  1  -0.003874  0  -0.08774  -0.102032  0  3.990516  0
C  C82  1  0.22975555  0.95228470  0.93095082  1  -0.122876  0  -0.084575  -0.121705  0  3.971659  0
C  C83  1  0.72975502  0.93095243  0.95228569  1  -0.123164  0  -0.084604  -0.121784  0  3.971728  0
C  C84  1  0.30105291  0.05012183  0.97187282  1  0.011678  0  -0.003535  0.077219  0  3.989935  0
C  C85  1  0.80105327  0.97187412  0.05012292  1  0.011928  0  -0.003533  0.077291  0  3.989908  0
C  C86  1  0.41057518  0.06525153  0.03787733  1  0.04967  0  -0.004243  0.070752  0  3.995091  0
C  C87  1  0.91057511  0.03787774  0.06525151  1  0.049674  0  -0.004217  0.070776  0  3.99509  0
C  C88  1  0.48046060  0.16356136  0.07965666  1  -0.093895  0  -0.084575  -0.12282  0  3.979348  0
C  C89  1  0.98046092  0.07965724  0.16356160  1  -0.093922  0  -0.084586  -0.122838  0  3.979443  0
C  C90  1  0.44296844  0.24358685  0.06073505  1  -0.004402  0  -0.081832  -0.090207  0  3.981048  0
C  C91  1  0.94296948  0.06073530  0.24358688  1  -0.004389  0  -0.081793  -0.090148  0  3.981172  0
C  C92  1  0.33376345  0.22861748  0.99717913  1  -0.03832  0  -0.015662  -0.043441  0  3.979017  0
C  C93  1  0.83376495  0.99717803  0.22861788  1  -0.038362  0  -0.01565  -0.043439  0  3.979043  0
C  C94  1  0.26543434  0.13348431  0.95222952  1  -0.053137  0  -0.071566  -0.130243  0  3.903514  0
C  C95  1  0.76543395  0.95222952  0.13348541  1  -0.053098  0  -0.071586  -0.130318  0  3.903524  0
C  C96  1  0.39816122  0.80293023  0.05984239  1  1.550488  0  0.242231  0.629815  0  4.13756  0
C  C97  1  0.89816219  0.05984260  0.80292995  1  1.55048  0  0.242304  0.629937  0  4.137349  0
C  C98  1  0.28879305  0.31467740  0.98131723  1  1.566674  0  0.246497  0.640622  0  4.113578  0
C  C99  1  0.78879376  0.98131810  0.31467734  1  1.566653  0  0.246513  0.640708  0  4.113697  0
C  C100  1  0.54515748  0.21036443  0.39616612  1  -0.010116  0  -0.071427  -0.128964  0  3.898765  0
C  C101  1  0.04515547  0.39616610  0.21036468  1  -0.010147  0  -0.071387  -0.128892  0  3.89866  0
C  C102  1  0.47996947  0.11499514  0.34682133  1  -0.048707  0  -0.017783  -0.050238  0  3.984139  0
C  C103  1  0.97996985  0.34682088  0.11499478  1  -0.048733  0  -0.017796  -0.050251  0  3.984041  0
C  C104  1  0.37281197  0.09955253  0.27987758  1  -0.039577  0  -0.082637  -0.08922  0  3.983871  0
C  C105  1  0.87281211  0.27987658  0.09955260  1  -0.039548  0  -0.082671  -0.089305  0  3.983914  0
C  C106  1  0.33497718  0.17941233  0.26098350  1  -0.048655  0  -0.085137  -0.124405  0  3.9792  0
C  C107  1  0.83497705  0.26098304  0.17941257  1  -0.04865  0  -0.085117  -0.124381  0  3.979119  0
C  C108  1  0.40244888  0.27803966  0.30643788  1  0.019015  0  -0.003484  0.071906  0  3.989922  0
C  C109  1  0.90244861  0.30643768  0.27804112  1  0.019006  0  -0.003484  0.071945  0  3.98978  0
C  C110  1  0.50907138  0.29364986  0.37686997  1  -0.034072  0  -0.002103  0.080098  0  3.987865  0
C  C111  1  0.00907126  0.37687056  0.29365073  1  -0.034097  0  -0.002088  0.080079  0  3.987819  0
C  C112  1  0.57800130  0.39196825  0.42142282  1  -0.054587  0  -0.084528  -0.125519  0  3.972485  0
C  C113  1  0.07800094  0.42142355  0.39196817  1  -0.054495  0  -0.084537  -0.12552  0  3.972503  0
C  C114  1  0.54627877  0.47108978  0.39412762  1  -0.007471  0  -0.085863  -0.099092  0  3.990196  0
C  C115  1  0.04627760  0.39412829  0.47108982  1  -0.007504  0  -0.08585  -0.099065  0  3.990147  0
C  C116  1  0.44300760  0.45553320  0.32158149  1  -0.001533  0  -0.018971  -0.050774  0  3.984382  0
C  C117  1  0.94300690  0.32158199  0.45553324  1  -0.001542  0  -0.018962  -0.050788  0  3.984424  0
C  C118  1  0.37169483  0.36100075  0.28039929  1  -0.066073  0  -0.070246  -0.121357  0  3.909198  0
C  C119  1  0.87169398  0.28039924  0.36100076  1  -0.066084  0  -0.070235  -0.121363  0  3.9092  0
C  C120  1  0.52652480  0.02926566  0.36098301  1  1.566621  0  0.246174  0.636669  0  4.121384  0
C  C121  1  0.02652421  0.36098159  0.02926556  1  1.566637  0  0.246159  0.636738  0  4.121298  0
C  C122  1  0.41586830  0.54015978  0.28424903  1  1.571502  0  0.242638  0.631744  0  4.132824  0
C  C123  1  0.91586770  0.28424921  0.54015958  1  1.571501  0  0.242635  0.63174  0  4.132881  0
C  C124  1  0.45751615  0.70613804  0.56553022  1  0.029227  0  -0.071628  -0.125456  0  3.899673  0
C  C125  1  0.95751639  0.56552956  0.70613832  1  0.029206  0  -0.071632  -0.125454  0  3.899735  0
C  C126  1  0.49110865  0.80841443  0.60071481  1  -0.118054  0  -0.016195  -0.045025  0  3.993595  0
C  C127  1  0.99110805  0.60071484  0.80841417  1  -0.118072  0  -0.016225  -0.045036  0  3.993611  0
C  C128  1  0.48165619  0.85614866  0.69559018  1  0.059674  0  -0.082197  -0.095459  0  3.989285  0
C  C129  1  0.98165574  0.69558992  0.85614829  1  0.059664  0  -0.082197  -0.095488  0  3.989395  0
C  C130  1  0.43828858  0.80072419  0.75351649  1  -0.02157  0  -0.083787  -0.122596  0  3.973315  0
C  C131  1  0.93828842  0.75351616  0.80072300  1  -0.021881  0  -0.083793  -0.122565  0  3.973312  0
C  C132  1  0.40470729  0.69546336  0.72014494  1  -0.054438  0  -0.001821  0.078103  0  3.993262  0
C  C133  1  0.90470699  0.72014307  0.69546233  1  -0.054223  0  -0.001756  0.078179  0  3.993316  0
C  C134  1  0.41462996  0.64713297  0.62420613  1  0.046352  0  -0.001582  0.077506  0  3.987998  0
C  C135  1  0.91463038  0.62420481  0.64713264  1  0.046305  0  -0.001565  0.077565  0  3.988065  0
C  C136  1  0.38036062  0.54185728  0.59066475  1  -0.112506  0  -0.084935  -0.122833  0  3.969869  0
C  C137  1  0.88036143  0.59066292  0.54185664  1  -0.111908  0  -0.085019  -0.122957  0  3.970009  0
C  C138  1  0.33532183  0.48656535  0.64796815  1  -0.05447  0  -0.082984  -0.096482  0  3.990875  0
C  C139  1  0.83532339  0.64796688  0.48656421  1  -0.054996  0  -0.082993  -0.096476  0  3.990883  0
C  C140  1  0.32560399  0.53444365  0.74269389  1  -0.111777  0  -0.016357  -0.045312  0  3.998551  0
C  C141  1  0.82560333  0.74269154  0.53444179  1  -0.111681  0  -0.016308  -0.045208  0  3.998551  0
C  C142  1  0.36092651  0.63659204  0.77848899  1  0.01656  0  -0.07124  -0.125745  0  3.903345  0
C  C143  1  0.86092813  0.77848802  0.63659065  1  0.016723  0  -0.071291  -0.125901  0  3.903418  0
C  C144  1  0.54332126  0.86866838  0.54095332  1  1.558966  0  0.247118  0.640307  0  4.129846  0
C  C145  1  0.04331986  0.54095390  0.86866811  1  1.559334  0  0.247114  0.640341  0  4.129741  0
C  C146  1  0.27038041  0.47499313  0.80150454  1  1.567367  0  0.246785  0.635777  0  4.141068  0
C  C147  1  0.77038231  0.80150511  0.47499222  1  1.567258  0  0.246766  0.635746  0  4.141035  0
O  O148  1  0.47446494  0.60934694  0.10771401  1  -1.216558  0  -0.376983  -0.676954  0  2.429481  0
O  O149  1  0.97446555  0.10771353  0.60934725  1  -1.216537  0  -0.376986  -0.676949  0  2.42947  0
O  O150  1  0.65086144  0.69888733  0.18318557  1  -1.1738  0  -0.338052  -0.561571  0  2.23094  0
O  O151  1  0.15086250  0.18318731  0.69888697  1  -1.173842  0  -0.33805  -0.561575  0  2.230938  0
O  O152  1  0.83923214  0.23489882  0.73378337  1  -1.228218  0  -0.375307  -0.676346  0  2.420907  0
O  O153  1  0.33923206  0.73378365  0.23489952  1  -1.228208  0  -0.375299  -0.676316  0  2.420894  0
O  O154  1  0.66355321  0.16296292  0.64049332  1  -1.173491  0  -0.338326  -0.563489  0  2.233411  0
O  O155  1  0.16355253  0.64049345  0.16296343  1  -1.173474  0  -0.338336  -0.563493  0  2.233455  0
O  O156  1  0.49201344  0.81880171  0.12441474  1  -1.197549  0  -0.364835  -0.619699  0  2.352379  0
O  O157  1  0.99201355  0.12441439  0.81880075  1  -1.197569  0  -0.364841  -0.619658  0  2.352317  0
O  O158  1  0.32616174  0.71884675  0.02509513  1  -1.204265  0  -0.35313  -0.613295  0  2.340331  0
O  O159  1  0.82616275  0.02509377  0.71884665  1  -1.204249  0  -0.353148  -0.613369  0  2.340264  0
O  O160  1  0.19723404  0.29617270  0.91291232  1  -1.208871  0  -0.391228  -0.643056  0  2.448247  0
O  O161  1  0.69723572  0.91291207  0.29617460  1  -1.208838  0  -0.3912  -0.64307  0  2.448216  0
O  O162  1  0.33988053  0.40086736  0.03614623  1  -1.187536  0  -0.331742  -0.589375  0  2.296884  0
O  O163  1  0.83987884  0.03614467  0.40086642  1  -1.187523  0  -0.331775  -0.589441  0  2.297019  0
O  O164  1  0.61844172  0.04764618  0.42887585  1  -1.217156  0  -0.390946  -0.641809  0  2.453683  0
O  O165  1  0.11844297  0.42887524  0.04764624  1  -1.217149  0  -0.390964  -0.641819  0  2.453633  0
O  O166  1  0.47630715  0.94325206  0.30523791  1  -1.180224  0  -0.331701  -0.589016  0  2.305348  0
O  O167  1  0.97630772  0.30523667  0.94325306  1  -1.180266  0  -0.331661  -0.589066  0  2.305342  0
O  O168  1  0.32310007  0.52367386  0.21820287  1  -1.20391  0  -0.365702  -0.620623  0  2.356356  0
O  O169  1  0.82310000  0.21820257  0.52367454  1  -1.203922  0  -0.365695  -0.620615  0  2.356338  0
O  O170  1  0.48800341  0.62417165  0.31868853  1  -1.20456  0  -0.352236  -0.613992  0  2.33803  0
O  O171  1  0.98800416  0.31868921  0.62417124  1  -1.20455  0  -0.352231  -0.613982  0  2.33806  0
O  O172  1  0.52734707  0.82888939  0.44813964  1  -1.214331  0  -0.384533  -0.649825  0  2.41143  0
O  O173  1  0.02734591  0.44813979  0.82889102  1  -1.214667  0  -0.384499  -0.649818  0  2.411383  0
O  O174  1  0.60284989  0.95587663  0.58488316  1  -1.181569  0  -0.341447  -0.584382  0  2.317479  0
O  O175  1  0.10284805  0.58488315  0.95587815  1  -1.181559  0  -0.341465  -0.584399  0  2.317419  0
O  O176  1  0.28498071  0.51494667  0.89409644  1  -1.221491  0  -0.384546  -0.650222  0  2.419235  0
O  O177  1  0.78498126  0.89409516  0.51494790  1  -1.221475  0  -0.384539  -0.650221  0  2.419307  0
O  O178  1  0.20993214  0.38827432  0.75705604  1  -1.188824  0  -0.341454  -0.582875  0  2.328485  0
O  O179  1  0.70993189  0.75705540  0.38827316  1  -1.188851  0  -0.341443  -0.582856  0  2.328385  0
