# generated using pymatgen
data_CuMo2H6C7N4O7
_symmetry_space_group_name_H-M   'P 1'
_cell_length_a   5.18913903
_cell_length_b   9.48733815
_cell_length_c   12.30067734
_cell_angle_alpha   109.81145477
_cell_angle_beta   92.96100120
_cell_angle_gamma   91.35526708
_symmetry_Int_Tables_number   1
_chemical_formula_structural   CuMo2H6C7N4O7
_chemical_formula_sum   'Cu2 Mo4 H12 C14 N8 O14'
_cell_volume   568.42701987
_cell_formula_units_Z   2
loop_
 _symmetry_equiv_pos_site_id
 _symmetry_equiv_pos_as_xyz
  1  'x, y, z'
loop_
 _atom_site_type_symbol
 _atom_site_label
 _atom_site_symmetry_multiplicity
 _atom_site_fract_x
 _atom_site_fract_y
 _atom_site_fract_z
 _atom_site_occupancy
 _atom_site_hle17_ddec_charge
 _atom_site_hle17_ddec_spin_density
 _atom_site_hle17_ddec_sum_bond_order
 _atom_site_hle17_magmom
 _atom_site_hse06_10hf_ddec_charge
 _atom_site_hse06_10hf_ddec_spin_density
 _atom_site_hse06_10hf_ddec_sum_bond_order
 _atom_site_hse06_10hf_magmom
 _atom_site_hse06_ddec_charge
 _atom_site_hse06_ddec_spin_density
 _atom_site_hse06_ddec_sum_bond_order
 _atom_site_hse06_magmom
 _atom_site_pbe_cm5_charge
 _atom_site_pbe_ddec_charge
 _atom_site_pbe_ddec_spin_density
 _atom_site_pbe_ddec_sum_bond_order
 _atom_site_pbe_magmom
Cu  Cu0  1  0.74838354  0.06868462  0.11778239  1  0.86365  0.68285  1.885611  0.486  0.833378  0.780694  2.295044  0.608  0.915518  0.870532  2.230486  0.7  0.778984  0.78277  0.662728  2.339356  0.508
Cu  Cu1  1  0.25163177  0.93132079  0.88222292  1  0.863641  -0.682856  1.885668  -0.486  0.83338  -0.780686  2.29502  -0.608  0.915478  -0.870525  2.230465  -0.7  0.778908  0.782753  -0.662742  2.339345  -0.508
Mo  Mo2  1  0.88466087  0.12585032  0.44275400  1  2.256216  -0.001174  3.993166  -0.001  2.263923  -0.000517  4.527428  -0.001  2.365306  -0.000465  4.489315  -0.001  1.505733  2.187384  -0.000515  4.562719  -0.001
Mo  Mo3  1  0.11534643  0.87414956  0.55724313  1  2.256261  0.001183  3.993334  0.001  2.263947  0.000511  4.5276  0.001  2.365331  0.00048  4.489487  0.001  1.505738  2.187406  0.000515  4.562881  0.001
Mo  Mo4  1  0.31847151  0.92598051  0.27501813  1  2.22773  -0.003762  4.070926  -0.003  2.246336  0.011673  4.591132  0.017  2.350121  0.009089  4.555491  0.014  1.51086  2.170313  0.014991  4.621924  0.02
Mo  Mo5  1  0.68153971  0.07402047  0.72498102  1  2.227943  0.003782  4.070624  0.003  2.246553  -0.011662  4.590803  -0.017  2.350339  -0.009089  4.555155  -0.014  1.51091  2.170553  -0.014989  4.621542  -0.02
H  H6  1  0.89454367  0.62782499  0.21608209  1  0.144902  0.000525  0.96078  0.001  0.150384  0.000424  1.02063  0.001  0.154643  0.000286  1.017282  0.0  0.136463  0.146909  0.000414  1.023736  0.001
H  H7  1  0.10545221  0.37218024  0.78393084  1  0.144855  -0.000526  0.960912  -0.001  0.150339  -0.000424  1.020739  -0.001  0.154594  -0.000286  1.017387  0.0  0.136466  0.146862  -0.000414  1.023845  -0.001
H  H8  1  0.34027036  0.25417313  0.29642519  1  0.132886  0.001168  0.951243  0.002  0.136427  0.001024  1.010362  0.002  0.139508  0.000717  1.00734  0.001  0.131036  0.133817  0.001056  1.013052  0.002
H  H9  1  0.65972443  0.74581218  0.70356446  1  0.132988  -0.001169  0.951211  -0.002  0.136529  -0.001024  1.010328  -0.002  0.13961  -0.000717  1.007307  -0.001  0.131086  0.133913  -0.001056  1.013012  -0.002
H  H10  1  0.57678341  0.71061458  0.33808103  1  0.335045  -6.3e-05  0.918513  0.0  0.307779  3e-06  0.991361  0.0  0.319454  -2.4e-05  0.981718  0.0  0.305486  0.299348  0.000146  0.998406  0.0
H  H11  1  0.42320020  0.28937947  0.66192452  1  0.334996  6.2e-05  0.918431  0.0  0.307663  -4e-06  0.991419  0.0  0.319339  2.4e-05  0.981775  0.0  0.305465  0.299227  -0.000146  0.998469  0.0
H  H12  1  0.28627730  0.53678881  0.39413614  1  0.128352  0.000512  0.936351  0.001  0.132952  0.000533  0.999845  0.001  0.136165  0.000381  0.997616  0.0  0.135827  0.130239  0.000501  1.002074  0.001
H  H13  1  0.71370200  0.46319747  0.60586153  1  0.12826  -0.000512  0.936514  -0.001  0.132881  -0.000532  0.999973  -0.001  0.136094  -0.000381  0.997746  0.0  0.135823  0.130223  -0.000501  1.002129  -0.001
H  H14  1  0.46707944  0.25850542  0.92489520  1  0.095393  0.000988  0.998161  0.001  0.10014  0.000633  1.068692  0.001  0.101955  0.000498  1.067427  0.0  0.114836  0.098611  0.000642  1.069807  0.001
H  H15  1  0.53291435  0.74149442  0.07510159  1  0.095404  -0.000988  0.99818  -0.001  0.100159  -0.000633  1.068689  -0.001  0.101974  -0.000497  1.067425  0.0  0.114817  0.09863  -0.000642  1.069807  -0.001
H  H16  1  0.23917349  0.50721083  0.07198432  1  0.13866  2.4e-05  0.96711  0.0  0.148888  -8.6e-05  1.024744  0.0  0.151416  -7.4e-05  1.025166  0.0  0.10767  0.147265  -9.9e-05  1.02375  0.0
H  H17  1  0.76081680  0.49279354  0.92800954  1  0.138572  -2.2e-05  0.967118  0.0  0.148855  8.7e-05  1.024709  0.0  0.151386  7.4e-05  1.025124  0.0  0.107668  0.147235  9.9e-05  1.02371  0.0
C  C18  1  0.77576513  0.54163760  0.23303917  1  0.072337  0.004892  3.516867  0.005  0.035841  0.002666  3.751342  0.003  0.039028  0.002374  3.762813  0.003  0.08207  0.032798  0.00244  3.745757  0.003
C  C19  1  0.22422851  0.45836208  0.76696815  1  0.072281  -0.004911  3.517011  -0.006  0.035855  -0.002659  3.751423  -0.003  0.03904  -0.002391  3.76291  -0.003  0.082083  0.032807  -0.00244  3.745826  -0.003
C  C20  1  0.46708063  0.33717107  0.28062497  1  0.131103  -0.005389  3.595278  -0.006  0.107498  -0.000604  3.84605  -0.002  0.115319  -0.001652  3.859549  -0.003  0.079607  0.102099  5.1e-05  3.837862  -0.001
C  C21  1  0.53291454  0.66282090  0.71937137  1  0.130946  0.00543  3.59517  0.006  0.107305  0.000604  3.845983  0.002  0.115114  0.001653  3.859489  0.003  0.079548  0.101936  -5.2e-05  3.837811  0.001
C  C22  1  0.99870193  0.32621195  0.10065641  1  0.092587  0.000568  3.858292  0.001  0.085816  0.00035  4.11511  0.0  0.087213  0.000134  4.140453  0.0  0.080717  0.086684  0.000316  4.096985  0.001
C  C23  1  0.00129797  0.67379345  0.89934609  1  0.09251  -0.000567  3.858532  -0.001  0.085843  -0.000357  4.115198  0.0  0.087243  -0.000115  4.140537  0.0  0.080714  0.086716  -0.000317  4.097058  -0.001
C  C24  1  0.43457312  0.49070761  0.33361557  1  0.092171  0.009562  3.521039  0.01  0.051617  0.00477  3.773113  0.005  0.055106  0.004468  3.786224  0.005  0.079936  0.049403  0.004321  3.76504  0.005
C  C25  1  0.56541214  0.50928094  0.66638205  1  0.092088  -0.009594  3.521154  -0.01  0.051618  -0.004775  3.773167  -0.005  0.055107  -0.004462  3.786281  -0.005  0.07996  0.049366  -0.004321  3.765052  -0.005
C  C26  1  0.30653878  0.26481307  0.97881414  1  0.049755  0.003287  3.692745  0.004  0.01147  0.000792  3.970014  0.001  0.017062  0.001323  3.989719  0.002  0.009099  0.008989  0.000499  3.956581  0.001
C  C27  1  0.69345729  0.73519236  0.02118583  1  0.049514  -0.003298  3.692899  -0.004  0.011223  -0.000792  3.970238  -0.001  0.016816  -0.001319  3.989943  -0.002  0.008995  0.008736  -0.000499  3.956822  -0.001
C  C28  1  0.19292272  0.38888812  0.05337528  1  -0.214932  -0.007202  3.715299  -0.007  -0.234044  -0.003066  3.966965  -0.003  -0.24253  -0.00307  3.989764  -0.003  -0.110266  -0.227816  -0.002741  3.949585  -0.003
C  C29  1  0.80707158  0.61111956  0.94662445  1  -0.214695  0.007218  3.715338  0.007  -0.233877  0.003065  3.966946  0.003  -0.242361  0.003067  3.989744  0.003  -0.110164  -0.227653  0.002741  3.949564  0.003
C  C30  1  0.80906948  0.38813486  0.18250544  1  0.15968  -0.004759  3.793518  -0.006  0.156581  -0.001376  4.041888  -0.002  0.164228  -0.0023  4.060044  -0.003  0.135978  0.15018  -0.000716  4.031351  -0.001
C  C31  1  0.19093041  0.61187052  0.81749787  1  0.159681  0.004779  3.793579  0.006  0.156571  0.001372  4.041908  0.002  0.164209  0.002311  4.060065  0.003  0.135981  0.150197  0.000715  4.03137  0.001
N  N32  1  0.00022210  0.17397602  0.05535591  1  -0.238732  0.070612  3.293663  0.088  -0.213421  0.052355  3.622709  0.07  -0.237998  0.045716  3.648118  0.064  -0.264801  -0.198203  0.050534  3.607509  0.066
N  N33  1  0.99978547  0.82602935  0.94465002  1  -0.238842  -0.070623  3.29368  -0.088  -0.213543  -0.052355  3.622685  -0.07  -0.238106  -0.045733  3.648074  -0.064  -0.264806  -0.198321  -0.050531  3.607473  -0.066
N  N34  1  0.65409098  0.28769371  0.20775199  1  -0.274639  0.068601  3.228392  0.085  -0.233682  0.052519  3.50645  0.07  -0.256956  0.044243  3.523561  0.061  -0.307317  -0.219813  0.052153  3.496925  0.067
N  N35  1  0.34591034  0.71230388  0.79224682  1  -0.274578  -0.068632  3.22837  -0.085  -0.233679  -0.052514  3.506488  -0.07  -0.256929  -0.044249  3.523578  -0.061  -0.30732  -0.21989  -0.052148  3.497028  -0.067
N  N36  1  0.59092707  0.58716300  0.30714324  1  -0.140711  -0.00374  3.448706  -0.005  -0.070418  -0.001609  3.669773  -0.002  -0.080293  -0.00196  3.684263  -0.003  -0.304282  -0.064034  -0.001415  3.660671  -0.002
N  N37  1  0.40905863  0.41283331  0.69286216  1  -0.140325  0.003756  3.448698  0.005  -0.070094  0.001607  3.669827  0.002  -0.079971  0.001965  3.684317  0.003  -0.304296  -0.063711  0.001415  3.660737  0.002
N  N38  1  0.18572467  0.13696037  0.98180037  1  -0.173173  -0.079032  3.285304  -0.099  -0.14484  -0.056675  3.618789  -0.076  -0.171853  -0.049901  3.644982  -0.07  -0.253991  -0.128221  -0.054116  3.603487  -0.071
N  N39  1  0.81427721  0.86304613  0.01820410  1  -0.172911  0.079036  3.285092  0.099  -0.144637  0.056673  3.618652  0.076  -0.17166  0.049892  3.64485  0.07  -0.253959  -0.128021  0.054119  3.603356  0.071
O  O40  1  0.15015298  0.95174826  0.42994666  1  -1.012172  0.001292  1.900368  0.002  -1.000892  0.000713  2.210587  0.001  -1.04449  0.0004  2.203338  0.001  -0.621909  -0.966583  0.001063  2.214479  0.002
O  O41  1  0.84985456  0.04825499  0.57005056  1  -1.012183  -0.001292  1.900374  -0.002  -1.000879  -0.00072  2.210532  -0.001  -1.044515  -0.000394  2.203365  -0.001  -0.621891  -0.966578  -0.001064  2.214426  -0.002
O  O42  1  0.45027914  0.99792113  0.17124688  1  -0.834413  0.069938  1.779416  0.091  -0.849646  0.041792  2.135233  0.058  -0.897284  0.032935  2.121937  0.047  -0.58043  -0.817696  0.043419  2.145577  0.058
O  O43  1  0.54974217  0.00208766  0.82875949  1  -0.834453  -0.069941  1.779348  -0.091  -0.849692  -0.041787  2.135159  -0.058  -0.897316  -0.032942  2.121834  -0.047  -0.580472  -0.817744  -0.043415  2.145488  -0.058
O  O44  1  0.02360029  0.07648167  0.29549088  1  -0.948603  0.002056  1.678148  0.004  -0.955773  0.000798  1.997408  0.002  -0.995922  0.000106  1.983684  0.001  -0.591928  -0.925406  0.001368  2.00729  0.002
O  O45  1  0.97640902  0.92351935  0.70450578  1  -0.948621  -0.002044  1.678218  -0.004  -0.955795  -0.000802  1.997515  -0.002  -0.995919  -0.000102  1.983747  -0.001  -0.591889  -0.925419  -0.001368  2.007375  -0.002
O  O46  1  0.01808239  0.30275895  0.51560519  1  -0.728089  -7.9e-05  1.401604  0.0  -0.717246  -0.0  1.63582  0.0  -0.741776  1.5e-05  1.624175  0.0  -0.540968  -0.698208  7.7e-05  1.645147  0.0
O  O47  1  0.98191940  0.69724433  0.48438866  1  -0.728141  7.2e-05  1.401749  0.0  -0.717253  1e-05  1.635958  0.0  -0.741794  -2.1e-05  1.624325  0.0  -0.54097  -0.698218  -7.7e-05  1.645287  0.0
O  O48  1  0.59574750  0.86219979  0.33449625  1  -0.818847  0.023297  1.648213  0.03  -0.825599  0.010798  1.933642  0.015  -0.862021  0.007664  1.926929  0.011  -0.54572  -0.799536  0.011647  1.93813  0.015
O  O49  1  0.40425759  0.13779667  0.66550316  1  -0.819007  -0.023307  1.648177  -0.03  -0.825709  -0.010805  1.93365  -0.015  -0.86213  -0.007659  1.926937  -0.011  -0.545783  -0.799654  -0.011647  1.938131  -0.015
O  O50  1  0.56134815  0.15772502  0.41407248  1  -0.801049  -0.000345  1.573251  0.0  -0.801195  -0.000346  1.852761  0.0  -0.833292  -0.000312  1.845653  0.0  -0.540213  -0.776681  -0.000221  1.857934  0.0
O  O51  1  0.43865707  0.84227261  0.58592399  1  -0.801058  0.000339  1.573322  0.0  -0.801212  0.000345  1.852845  0.0  -0.833317  0.0003  1.845753  0.0  -0.540202  -0.776698  0.000221  1.858006  0.0
O  O52  1  0.16798311  0.75749009  0.18977057  1  -0.735127  -0.002041  1.499542  -0.003  -0.722305  -0.000998  1.749112  -0.001  -0.74764  -0.00123  1.740175  -0.002  -0.532462  -0.704618  -0.000746  1.7565  -0.001
O  O53  1  0.83202448  0.24251321  0.81022342  1  -0.735104  0.002037  1.499466  0.003  -0.722319  0.000997  1.749094  0.001  -0.747646  0.001225  1.740143  0.002  -0.532428  -0.704646  0.000746  1.756482  0.001
