# generated using pymatgen
data_SnP2H14C6(NO3)2
_symmetry_space_group_name_H-M   'P 1'
_cell_length_a   7.06573696
_cell_length_b   8.03858974
_cell_length_c   10.33857377
_cell_angle_alpha   90.00005777
_cell_angle_beta   90.00037975
_cell_angle_gamma   110.83482327
_symmetry_Int_Tables_number   1
_chemical_formula_structural   SnP2H14C6(NO3)2
_chemical_formula_sum   'Sn2 P4 H28 C12 N4 O12'
_cell_volume   548.81785809
_cell_formula_units_Z   2
loop_
 _symmetry_equiv_pos_site_id
 _symmetry_equiv_pos_as_xyz
  1  'x, y, z'
loop_
 _atom_site_type_symbol
 _atom_site_label
 _atom_site_symmetry_multiplicity
 _atom_site_fract_x
 _atom_site_fract_y
 _atom_site_fract_z
 _atom_site_occupancy
 _atom_site_pbe_bader_spin_density
 _atom_site_pbe_cm5_charge
 _atom_site_pbe_ddec_charge
 _atom_site_pbe_ddec_spin_density
 _atom_site_pbe_ddec_sum_bond_order
 _atom_site_pbe_magmom
Sn  Sn0  1  0.61684014  0.19425308  0.95661891  1  0  0.528074  0.918637  0  2.688848  0
Sn  Sn1  1  0.38325593  0.80576161  0.45660188  1  0  0.528075  0.918668  0  2.688847  0
P  P2  1  0.13886815  0.19339189  0.04169376  1  0  0.314853  1.258112  0  5.489344  0
P  P3  1  0.86114439  0.80660898  0.54169594  1  0  0.314759  1.257928  0  5.489419  0
P  P4  1  0.63738753  0.17698241  0.29117417  1  0  0.353975  1.250771  0  5.39077  0
P  P5  1  0.36260970  0.82302007  0.79117410  1  0  0.353937  1.250662  0  5.39083  0
H  H6  1  0.09583141  0.86081781  0.97048839  1  0  0.313779  0.269828  0  0.958789  0
H  H7  1  0.90416793  0.13918556  0.47048575  1  0  0.313798  0.269901  0  0.958685  0
H  H8  1  0.73210451  0.43733176  0.10724679  1  0  0.297658  0.163596  0  1.043106  0
H  H9  1  0.26788916  0.56266985  0.60724803  1  0  0.297642  0.163607  0  1.04308  0
H  H10  1  0.21853321  0.00555165  0.19988493  1  0  0.117493  0.137482  0  1.032567  0
H  H11  1  0.78146523  0.99445571  0.69988883  1  0  0.117454  0.137432  0  1.032544  0
H  H12  1  0.96104388  0.98838946  0.21519085  1  0  0.118879  0.15649  0  1.002053  0
H  H13  1  0.03895045  0.01160464  0.71518868  1  0  0.118895  0.156514  0  1.001988  0
H  H14  1  0.24901084  0.74629435  0.14254760  1  0  0.123807  0.112814  0  0.974817  0
H  H15  1  0.75098491  0.25370471  0.64254400  1  0  0.123801  0.112808  0  0.974832  0
H  H16  1  0.08054635  0.59530300  0.03357662  1  0  0.118263  0.10013  0  1.001254  0
H  H17  1  0.91945067  0.40469815  0.53357583  1  0  0.118265  0.100166  0  1.001212  0
H  H18  1  0.00945728  0.47511665  0.25198661  1  0  0.121182  0.129171  0  1.0196  0
H  H19  1  0.99054143  0.52488023  0.75198625  1  0  0.12118  0.129179  0  1.019615  0
H  H20  1  0.97564389  0.67420156  0.31196523  1  0  0.116453  0.112366  0  1.055978  0
H  H21  1  0.02435692  0.32579558  0.81196518  1  0  0.116427  0.112323  0  1.056015  0
H  H22  1  0.68984201  0.75049960  0.23126103  1  0  0.120884  0.122273  0  1.008845  0
H  H23  1  0.31015479  0.24949989  0.73126124  1  0  0.120883  0.122294  0  1.008845  0
H  H24  1  0.51535912  0.60111702  0.11900138  1  0  0.122485  0.129096  0  0.994096  0
H  H25  1  0.48464056  0.39888184  0.61900540  1  0  0.122491  0.129154  0  0.994071  0
H  H26  1  0.78620841  0.66398449  0.95105198  1  0  0.117135  0.092203  0  0.995097  0
H  H27  1  0.21378592  0.33601754  0.45105413  1  0  0.117126  0.092188  0  0.995131  0
H  H28  1  0.75606533  0.86518639  0.99800818  1  0  0.127415  0.140311  0  1.004519  0
H  H29  1  0.24393319  0.13481446  0.49800643  1  0  0.127417  0.140359  0  1.00449  0
H  H30  1  0.45259222  0.37847147  0.26274921  1  0  0.123639  0.161738  0  1.0243  0
H  H31  1  0.54740270  0.62152957  0.76275176  1  0  0.12364  0.161711  0  1.024325  0
H  H32  1  0.64847925  0.46374380  0.38466012  1  0  0.123062  0.151739  0  0.994774  0
H  H33  1  0.35151960  0.53625376  0.88466075  1  0  0.123062  0.151754  0  0.994735  0
C  C34  1  0.08163742  0.99617559  0.14623448  1  0  -0.080662  -0.36443  0  3.710358  0
C  C35  1  0.91835557  0.00382354  0.64623531  1  0  -0.080644  -0.364352  0  3.710323  0
C  C36  1  0.08945207  0.68638220  0.11431895  1  0  -0.055968  -0.08005  0  3.800958  0
C  C37  1  0.91054195  0.31361675  0.61431806  1  0  -0.055947  -0.080078  0  3.800939  0
C  C38  1  0.96375094  0.58822957  0.22724168  1  0  -0.071019  -0.133508  0  3.770896  0
C  C39  1  0.03624466  0.41176725  0.72724079  1  0  -0.070997  -0.133456  0  3.770844  0
C  C40  1  0.67538066  0.66369675  0.14685667  1  0  -0.059898  -0.108203  0  3.738199  0
C  C41  1  0.32461795  0.33630227  0.64685508  1  0  -0.059924  -0.108259  0  3.738333  0
C  C42  1  0.80201752  0.75653802  0.03224931  1  0  -0.058923  -0.088294  0  3.759902  0
C  C43  1  0.19798114  0.24346041  0.53224997  1  0  -0.05891  -0.088366  0  3.760039  0
C  C44  1  0.60927970  0.39657510  0.29067315  1  0  -0.075334  -0.39075  0  3.723328  0
C  C45  1  0.39071779  0.60342469  0.79067401  1  0  -0.075324  -0.390629  0  3.723213  0
N  N46  1  0.02347704  0.83152648  0.06318511  1  0  -0.342405  0.024113  0  3.542031  0
N  N47  1  0.97651975  0.16847349  0.56318440  1  0  -0.342427  0.024018  0  3.542035  0
N  N48  1  0.74377109  0.51518125  0.18988301  1  0  -0.340474  0.07586  0  3.59273  0
N  N49  1  0.25622465  0.48481672  0.68988220  1  0  -0.340439  0.075773  0  3.592794  0
O  O50  1  0.28805092  0.16437426  0.94041573  1  0  -0.371461  -0.764239  0  2.329913  0
O  O51  1  0.71194894  0.83563432  0.44042149  1  0  -0.371478  -0.764104  0  2.330149  0
O  O52  1  0.23194314  0.36054597  0.12155902  1  0  -0.397252  -0.767424  0  2.115586  0
O  O53  1  0.76804593  0.63945447  0.62155774  1  0  -0.397204  -0.7674  0  2.11558  0
O  O54  1  0.93758699  0.17164224  0.97307064  1  0  -0.371951  -0.755967  0  2.315519  0
O  O55  1  0.06240339  0.82835999  0.47305895  1  0  -0.371917  -0.755961  0  2.31519  0
O  O56  1  0.56926763  0.09756102  0.15459808  1  0  -0.340382  -0.685821  0  2.28867  0
O  O57  1  0.43072068  0.90243691  0.65459646  1  0  -0.340379  -0.685827  0  2.288583  0
O  O58  1  0.85270460  0.20145649  0.32604117  1  0  -0.362962  -0.720609  0  2.215243  0
O  O59  1  0.14728879  0.79853955  0.82603819  1  0  -0.362968  -0.72059  0  2.215367  0
O  O60  1  0.47582036  0.07311983  0.39249335  1  0  -0.330317  -0.647463  0  2.299814  0
O  O61  1  0.52418393  0.92688034  0.89249506  1  0  -0.330321  -0.647388  0  2.299636  0
