# generated using pymatgen
data_AgH6C3SNO5
_symmetry_space_group_name_H-M   'P 1'
_cell_length_a   8.24927213
_cell_length_b   9.16494693
_cell_length_c   9.64768142
_cell_angle_alpha   89.99985021
_cell_angle_beta   89.99993619
_cell_angle_gamma   98.60908053
_symmetry_Int_Tables_number   1
_chemical_formula_structural   AgH6C3SNO5
_chemical_formula_sum   'Ag4 H24 C12 S4 N4 O20'
_cell_volume   721.18622498
_cell_formula_units_Z   4
loop_
 _symmetry_equiv_pos_site_id
 _symmetry_equiv_pos_as_xyz
  1  'x, y, z'
loop_
 _atom_site_type_symbol
 _atom_site_label
 _atom_site_symmetry_multiplicity
 _atom_site_fract_x
 _atom_site_fract_y
 _atom_site_fract_z
 _atom_site_occupancy
 _atom_site_pbe_bader_spin_density
 _atom_site_pbe_cm5_charge
 _atom_site_pbe_ddec_charge
 _atom_site_pbe_ddec_spin_density
 _atom_site_pbe_ddec_sum_bond_order
 _atom_site_pbe_magmom
Ag  Ag0  1  0.76773749  0.81508534  0.08368814  1  0  0.418265  0.472068  0  1.820236  0
Ag  Ag1  1  0.23226735  0.18491523  0.58368704  1  0  0.418253  0.472022  0  1.820285  0
Ag  Ag2  1  0.38756804  0.39214586  0.76941942  1  0  0.412886  0.484966  0  1.814913  0
Ag  Ag3  1  0.61243656  0.60786188  0.26942222  1  0  0.412851  0.48493  0  1.815043  0
H  H4  1  0.56888929  0.03526994  0.65853302  1  0  0.315843  0.314979  0  0.932678  0
H  H5  1  0.43111682  0.96473151  0.15852890  1  0  0.315851  0.314998  0  0.932591  0
H  H6  1  0.77438005  0.06314247  0.63364607  1  0  0.314225  0.318568  0  0.932406  0
H  H7  1  0.22562489  0.93685906  0.13364431  1  0  0.314229  0.31861  0  0.93244  0
H  H8  1  0.66016214  0.90339830  0.58159217  1  0  0.329898  0.327527  0  0.875775  0
H  H9  1  0.33984205  0.09660558  0.08159237  1  0  0.329888  0.327559  0  0.875732  0
H  H10  1  0.04331486  0.66127042  0.24523217  1  0  0.315273  0.310676  0  0.941291  0
H  H11  1  0.95668691  0.33872746  0.74523618  1  0  0.315253  0.31066  0  0.941292  0
H  H12  1  0.95568651  0.51648757  0.34404838  1  0  0.314406  0.315809  0  0.934868  0
H  H13  1  0.04430940  0.48351223  0.84405503  1  0  0.314429  0.315805  0  0.934924  0
H  H14  1  0.12475522  0.50334209  0.24609471  1  0  0.336407  0.334311  0  0.862875  0
H  H15  1  0.87524310  0.49665690  0.74610048  1  0  0.336406  0.334263  0  0.862926  0
H  H16  1  0.73096691  0.23937754  0.30425067  1  0  0.115563  0.162895  0  0.990873  0
H  H17  1  0.26903616  0.76062127  0.80424915  1  0  0.115561  0.162904  0  0.99088  0
H  H18  1  0.86899260  0.21406962  0.44192102  1  0  0.113443  0.16441  0  0.99768  0
H  H19  1  0.13100994  0.78593429  0.94191854  1  0  0.113448  0.16443  0  0.997647  0
H  H20  1  0.50290360  0.08392604  0.44360363  1  0  0.124658  0.10499  0  1.009308  0
H  H21  1  0.49709773  0.91607787  0.94359735  1  0  0.124697  0.105033  0  1.009386  0
H  H22  1  0.15890980  0.79262161  0.58846986  1  0  0.119235  0.165485  0  0.980385  0
H  H23  1  0.84108721  0.20737564  0.08847342  1  0  0.119222  0.165474  0  0.980317  0
H  H24  1  0.96169753  0.71872098  0.51852839  1  0  0.115342  0.165788  0  0.978739  0
H  H25  1  0.03830015  0.28127979  0.01853155  1  0  0.115283  0.165698  0  0.978758  0
H  H26  1  0.29044302  0.67836293  0.38318538  1  0  0.127351  0.107478  0  0.965422  0
H  H27  1  0.70955676  0.32163123  0.88318553  1  0  0.127376  0.107486  0  0.965539  0
C  C28  1  0.74003196  0.21496436  0.41501099  1  0  -0.159698  -0.391638  0  3.818872  0
C  C29  1  0.25997147  0.78503742  0.91501045  1  0  -0.159709  -0.391637  0  3.818778  0
C  C30  1  0.63296075  0.06992523  0.44918524  1  0  0.012432  0.069253  0  3.748958  0
C  C31  1  0.36704262  0.93007645  0.94918320  1  0  0.012426  0.069158  0  3.749198  0
C  C32  1  0.64749732  0.94244647  0.34820756  1  0  0.215408  0.575944  0  4.145962  0
C  C33  1  0.35250828  0.05755331  0.84820665  1  0  0.215394  0.575995  0  4.146044  0
C  C34  1  0.09136223  0.75517181  0.49400891  1  0  -0.156094  -0.395489  0  3.822772  0
C  C35  1  0.90863706  0.24482753  0.99401216  1  0  -0.156024  -0.395331  0  3.822505  0
C  C36  1  0.16922655  0.63304813  0.42515309  1  0  0.015824  0.078807  0  3.743786  0
C  C37  1  0.83076886  0.36694921  0.92515405  1  0  0.015818  0.078851  0  3.743667  0
C  C38  1  0.19593483  0.50737076  0.52396247  1  0  0.205717  0.561027  0  4.187382  0
C  C39  1  0.80405277  0.49262778  0.02396121  1  0  0.205637  0.560918  0  4.187635  0
S  S40  1  0.67271161  0.36850103  0.50304960  1  0  0.491992  1.205366  0  6.113631  0
S  S41  1  0.32728955  0.63149868  0.00304745  1  0  0.492024  1.205442  0  6.113498  0
S  S42  1  0.09996579  0.91614186  0.38618279  1  0  0.496171  1.200991  0  6.110942  0
S  S43  1  0.90003975  0.08385781  0.88618645  1  0  0.496161  1.200992  0  6.111025  0
N  N44  1  0.66195916  0.01639772  0.59196985  1  0  -0.606713  -0.446834  0  3.389703  0
N  N45  1  0.33804501  0.98360614  0.09196786  1  0  -0.606705  -0.446912  0  3.389627  0
N  N46  1  0.06581266  0.57207973  0.30539181  1  0  -0.607946  -0.457945  0  3.416392  0
N  N47  1  0.93418677  0.42791907  0.80539561  1  0  -0.607933  -0.457837  0  3.416317  0
O  O48  1  0.52483570  0.39985638  0.43064364  1  0  -0.347979  -0.596467  0  2.277655  0
O  O49  1  0.47516510  0.60014426  0.93064438  1  0  -0.347929  -0.596456  0  2.277769  0
O  O50  1  0.64054918  0.32122085  0.64843279  1  0  -0.353082  -0.624098  0  2.30575  0
O  O51  1  0.35945107  0.67878173  0.14843153  1  0  -0.353149  -0.624152  0  2.305515  0
O  O52  1  0.81201685  0.49028996  0.49341494  1  0  -0.353799  -0.632103  0  2.239851  0
O  O53  1  0.18798318  0.50971380  0.99341620  1  0  -0.353813  -0.632129  0  2.239867  0
O  O54  1  0.65457036  0.97446150  0.21968544  1  0  -0.322055  -0.526558  0  2.32497  0
O  O55  1  0.34543668  0.02553866  0.71968048  1  0  -0.322034  -0.52655  0  2.32482  0
O  O56  1  0.64150649  0.81607418  0.40241245  1  0  -0.317429  -0.526072  0  2.330999  0
O  O57  1  0.35848774  0.18392323  0.90240916  1  0  -0.317493  -0.526147  0  2.330987  0
O  O58  1  0.04736275  0.86115481  0.24510754  1  0  -0.34547  -0.62545  0  2.283929  0
O  O59  1  0.95263696  0.13884528  0.74510686  1  0  -0.345441  -0.625432  0  2.283865  0
O  O60  1  0.98913000  0.00705367  0.44973967  1  0  -0.335616  -0.574856  0  2.25355  0
O  O61  1  0.01086815  0.99294580  0.94974302  1  0  -0.335637  -0.574875  0  2.25393  0
O  O62  1  0.27225699  0.98716636  0.38429408  1  0  -0.352224  -0.604994  0  2.238396  0
O  O63  1  0.72774734  0.01283331  0.88429291  1  0  -0.352225  -0.605063  0  2.238275  0
O  O64  1  0.25703618  0.54765630  0.64062358  1  0  -0.327348  -0.53364  0  2.328805  0
O  O65  1  0.74294079  0.45233749  0.14062249  1  0  -0.327332  -0.533682  0  2.329116  0
O  O66  1  0.15798121  0.37796840  0.47637609  1  0  -0.324855  -0.50514  0  2.342477  0
O  O67  1  0.84201738  0.62202658  0.97637847  1  0  -0.324809  -0.505077  0  2.342468  0
