# generated using pymatgen
data_ZnH27C32N2ClO4
_symmetry_space_group_name_H-M   'P 1'
_cell_length_a   9.95626830
_cell_length_b   10.31945478
_cell_length_c   16.14200000
_cell_angle_alpha   81.09250771
_cell_angle_beta   75.25500643
_cell_angle_gamma   81.67551101
_symmetry_Int_Tables_number   1
_chemical_formula_structural   ZnH27C32N2ClO4
_chemical_formula_sum   'Zn2 H54 C64 N4 Cl2 O8'
_cell_volume   1574.85557234
_cell_formula_units_Z   2
loop_
 _symmetry_equiv_pos_site_id
 _symmetry_equiv_pos_as_xyz
  1  'x, y, z'
loop_
 _atom_site_type_symbol
 _atom_site_label
 _atom_site_symmetry_multiplicity
 _atom_site_fract_x
 _atom_site_fract_y
 _atom_site_fract_z
 _atom_site_occupancy
 _atom_site_pbe_bader_charge
 _atom_site_pbe_bader_spin_density
 _atom_site_pbe_cm5_charge
 _atom_site_pbe_ddec_charge
 _atom_site_pbe_ddec_spin_density
 _atom_site_pbe_ddec_sum_bond_order
 _atom_site_pbe_magmom
Zn  Zn0  1  0.35024736  0.88276737  0.53856828  1  1.317412  0  0.692711  0.822447  0  2.335733  0
Zn  Zn1  1  0.64975177  0.11723407  0.46143147  1  1.317383  0  0.692721  0.822511  0  2.335673  0
H  H2  1  0.39338343  0.94936295  0.34027630  1  0.114399  0  0.117551  0.094801  0  0.989612  0
H  H3  1  0.60661686  0.05063751  0.65972213  1  0.11443  0  0.117519  0.094796  0  0.989671  0
H  H4  1  0.49162873  0.83210421  0.20955366  1  0.067119  0  0.103324  0.110476  0  0.996686  0
H  H5  1  0.50837155  0.16789625  0.79044539  1  0.067143  0  0.10333  0.11048  0  0.996685  0
H  H6  1  0.61993110  0.49578274  0.37983434  1  0.164135  0  0.109891  0.135732  0  1.05228  0
H  H7  1  0.38006803  0.50421870  0.62016603  1  0.164116  0  0.109885  0.1357  0  1.052313  0
H  H8  1  0.51283916  0.62657672  0.50135368  1  0.109383  0  0.116287  0.089257  0  1.031672  0
H  H9  1  0.48716101  0.37342472  0.49864590  1  0.109357  0  0.116289  0.089265  0  1.031665  0
H  H10  1  0.60278160  0.63165429  0.14633192  1  0.047552  0  0.098246  0.099515  0  1.008775  0
H  H11  1  0.39721903  0.36834320  0.85366737  1  0.047515  0  0.098231  0.099509  0  1.008795  0
H  H12  1  0.72099447  0.41534993  0.27135096  1  0.152172  0  0.108324  0.116698  0  1.044355  0
H  H13  1  0.27900385  0.58464954  0.72864911  1  0.152167  0  0.108305  0.116703  0  1.04436  0
H  H14  1  0.93519338  0.27400112  0.84450771  1  0.090273  0  0.09918  0.089319  0  1.030427  0
H  H15  1  0.06480702  0.72599835  0.15549327  1  0.090281  0  0.099161  0.089288  0  1.03041  0
H  H16  1  0.11043631  0.07467725  0.94770820  1  0.025174  0  0.103273  0.107884  0  0.994684  0
H  H17  1  0.88956513  0.92532222  0.05229200  1  0.025155  0  0.103271  0.10789  0  0.99469  0
H  H18  1  0.08080853  0.24945510  0.72420414  1  0.049868  0  0.098056  0.101223  0  1.045709  0
H  H19  1  0.91919187  0.75054437  0.27579622  1  0.04987  0  0.098078  0.101229  0  1.045592  0
H  H20  1  0.18978371  0.14666521  0.59054202  1  0.121122  0  0.117667  0.090752  0  1.015162  0
H  H21  1  0.81021554  0.85333525  0.40945781  1  0.121136  0  0.117675  0.090776  0  1.015149  0
H  H22  1  0.34397388  0.80905926  0.72591573  1  0.113532  0  0.117295  0.09575  0  1.016762  0
H  H23  1  0.65602537  0.19094120  0.27408286  1  0.113531  0  0.117312  0.095794  0  1.016716  0
H  H24  1  0.23112339  0.89183199  0.86780761  1  0.096019  0  0.09937  0.101346  0  1.057722  0
H  H25  1  0.76887690  0.10816846  0.13219205  1  0.096009  0  0.099357  0.101324  0  1.057757  0
H  H26  1  0.47982971  0.43742279  0.05837691  1  0.030952  0  0.086374  0.116861  0  1.03374  0
H  H27  1  0.52017057  0.56257766  0.94162276  1  0.031133  0  0.086372  0.116875  0  1.033735  0
H  H28  1  0.48697043  0.40911967  0.16858317  1  0.062931  0  0.089393  0.129893  0  1.024069  0
H  H29  1  0.51302777  0.59088078  0.83141744  1  0.062948  0  0.08942  0.129929  0  1.02405  0
H  H30  1  0.49133235  0.27511927  0.11073536  1  0.035352  0  0.089527  0.122264  0  0.997481  0
H  H31  1  0.50866493  0.72488020  0.88926487  1  0.035462  0  0.089531  0.122261  0  0.99752  0
H  H32  1  0.59633960  0.19609772  0.98846379  1  0.017683  0  0.08864  0.11978  0  1.004365  0
H  H33  1  0.40365884  0.80390076  0.01153698  1  0.017736  0  0.088628  0.119773  0  1.004301  0
H  H34  1  0.73738368  0.21088138  0.89658644  1  0.052009  0  0.087951  0.121736  0  1.031078  0
H  H35  1  0.26261684  0.78911710  0.10341400  1  0.052062  0  0.087949  0.121714  0  1.031067  0
H  H36  1  0.61078740  0.34777239  0.92118302  1  0.0306  0  0.090138  0.124676  0  1.017955  0
H  H37  1  0.38921300  0.65222707  0.07881858  1  0.030709  0  0.090123  0.124655  0  1.01794  0
H  H38  1  0.18350854  0.21436413  0.05322992  1  0.028156  0  0.088095  0.118918  0  0.996138  0
H  H39  1  0.81649289  0.78563534  0.94676904  1  0.028145  0  0.088088  0.118903  0  0.996189  0
H  H40  1  0.17777840  0.38783830  0.02811240  1  0.027902  0  0.089659  0.123855  0  1.022519  0
H  H41  1  0.82222199  0.61216117  0.97188672  1  0.028092  0  0.089663  0.123858  0  1.022493  0
H  H42  1  0.18292348  0.28875419  0.94659987  1  0.026185  0  0.083803  0.116831  0  1.051514  0
H  H43  1  0.81707565  0.71124725  0.05339926  1  0.026211  0  0.083819  0.116835  0  1.051521  0
H  H44  1  0.92904975  0.40912658  0.23838682  1  0.064899  0  0.090981  0.13022  0  1.046982  0
H  H45  1  0.07095145  0.59087486  0.76161322  1  0.064887  0  0.090999  0.130224  0  1.047039  0
H  H46  1  0.03848915  0.49349709  0.14842569  1  0.042725  0  0.088903  0.126024  0  1.017396  0
H  H47  1  0.96151125  0.50650237  0.85157343  1  0.0427  0  0.088908  0.126024  0  1.017387  0
H  H48  1  0.08100075  0.32351258  0.17901144  1  0.029929  0  0.092524  0.131894  0  0.991327  0
H  H49  1  0.91899850  0.67648788  0.82098838  1  0.029934  0  0.09252  0.131884  0  0.991252  0
H  H50  1  0.63417926  0.55894886  0.62969581  1  0.105662  0  0.10234  0.117003  0  1.039391  0
H  H51  1  0.36581998  0.44105160  0.37030401  1  0.105668  0  0.102343  0.117006  0  1.039411  0
H  H52  1  0.07608840  0.48767146  0.62190298  1  0.114354  0  0.107347  0.122703  0  1.001201  0
H  H53  1  0.92391073  0.51232998  0.37809676  1  0.114333  0  0.107369  0.122707  0  1.001202  0
H  H54  1  0.89212552  0.87900139  0.54988871  1  0.162394  0  0.112097  0.132893  0  1.00268  0
H  H55  1  0.10787476  0.12099907  0.45011034  1  0.162401  0  0.112103  0.132911  0  1.002661  0
C  C56  1  0.44380289  0.84842940  0.34541337  1  0.493739  0  0.045218  0.099474  0  3.96437  0
C  C57  1  0.55619739  0.15157105  0.65458568  1  0.493726  0  0.04522  0.099458  0  3.964408  0
C  C58  1  0.49890961  0.78243879  0.27331951  1  -0.024031  0  -0.094416  -0.202998  0  3.983382  0
C  C59  1  0.50109068  0.21756166  0.72667954  1  -0.024017  0  -0.094412  -0.202956  0  3.983306  0
C  C60  1  0.56330314  0.65221128  0.28280713  1  -0.061581  0  0.005755  0.153847  0  4.042552  0
C  C61  1  0.43669622  0.34778818  0.71719215  1  -0.061578  0  0.005757  0.153871  0  4.042521  0
C  C62  1  0.56913244  0.59528529  0.36707662  1  -0.013189  0  -0.08672  -0.188233  0  3.913189  0
C  C63  1  0.43086773  0.40471615  0.63292296  1  -0.013591  0  -0.086728  -0.188264  0  3.913199  0
C  C64  1  0.51085934  0.66764136  0.43535327  1  0.43557  0  0.041524  0.093625  0  3.947673  0
C  C65  1  0.48913968  0.33236107  0.56464639  1  0.435926  0  0.041567  0.093762  0  3.947535  0
C  C66  1  0.62098203  0.58124377  0.20799579  1  -0.049269  0  -0.09422  -0.151697  0  3.976951  0
C  C67  1  0.37901733  0.41875570  0.79200412  1  -0.049196  0  -0.094215  -0.151709  0  3.976964  0
C  C68  1  0.69814420  0.46247015  0.21006563  1  -0.092863  0  -0.06987  -0.076236  0  3.920932  0
C  C69  1  0.30185712  0.53753031  0.78993387  1  -0.092867  0  -0.069903  -0.076312  0  3.920964  0
C  C70  1  0.76430613  0.39539988  0.13335714  1  -0.048655  0  -0.011859  -0.008691  0  3.982191  0
C  C71  1  0.23569519  0.60460058  0.86664298  1  -0.048686  0  -0.011862  -0.008704  0  3.982154  0
C  C72  1  0.68581063  0.36105697  0.07985177  1  -0.088154  0  -0.017173  0.045432  0  3.953448  0
C  C73  1  0.31418896  0.63894052  0.92015016  1  -0.087982  0  -0.017158  0.045502  0  3.95348  0
C  C74  1  0.75632754  0.30472015  0.00437942  1  0.031284  0  -0.016392  0.047743  0  3.950995  0
C  C75  1  0.24367412  0.69527734  0.99562156  1  0.031253  0  -0.016387  0.047754  0  3.951095  0
C  C76  1  0.90436010  0.28270354  0.98247436  1  -0.03851  0  -0.02114  -0.024775  0  4.008816  0
C  C77  1  0.09564250  0.71729494  0.01752700  1  -0.038642  0  -0.021099  -0.024779  0  4.00893  0
C  C78  1  0.98221315  0.31397425  0.03763857  1  0.005164  0  -0.009414  0.065059  0  3.919305  0
C  C79  1  0.01778805  0.68602719  0.96236085  1  0.005315  0  -0.009427  0.065067  0  3.919402  0
C  C80  1  0.91135751  0.36711057  0.11410040  1  0.010945  0  -0.008644  0.06849  0  3.917773  0
C  C81  1  0.08864404  0.63288791  0.88590050  1  0.01095  0  -0.008636  0.068488  0  3.917747  0
C  C82  1  0.97357927  0.22890600  0.90131195  1  -0.068738  0  -0.078591  -0.086595  0  3.985395  0
C  C83  1  0.02642021  0.77109248  0.09868927  1  -0.068873  0  -0.078598  -0.08656  0  3.985405  0
C  C84  1  0.07672156  0.12799417  0.89111804  1  0.000452  0  -0.092211  -0.1458  0  3.981325  0
C  C85  1  0.92327988  0.87200530  0.10888216  1  0.000539  0  -0.092199  -0.145815  0  3.981354  0
C  C86  1  0.14427964  0.07850442  0.80905588  1  -0.034176  0  0.004078  0.15216  0  4.031603  0
C  C87  1  0.85572064  0.92149603  0.19094379  1  -0.034183  0  0.004111  0.152225  0  4.031549  0
C  C88  1  0.13576498  0.15037691  0.72865037  1  0.02088  0  -0.088066  -0.18069  0  3.944758  0
C  C89  1  0.86423426  0.84962354  0.27134945  1  0.020876  0  -0.088107  -0.180711  0  3.944641  0
C  C90  1  0.19778696  0.09454933  0.65344769  1  0.457028  0  0.047221  0.105155  0  3.935878  0
C  C91  1  0.80221344  0.90545013  0.34655144  1  0.457016  0  0.047208  0.105104  0  3.93586  0
C  C92  1  0.28290487  0.90539289  0.72941491  1  0.531265  0  0.044047  0.095606  0  3.942299  0
C  C93  1  0.71709542  0.09460756  0.27058537  1  0.531276  0  0.044036  0.095562  0  3.9423  0
C  C94  1  0.22141549  0.95316446  0.80774254  1  -0.0893  0  -0.090264  -0.188178  0  3.948534  0
C  C95  1  0.77858583  0.04683599  0.19225696  1  -0.089296  0  -0.090264  -0.188185  0  3.94858  0
C  C96  1  0.52833178  0.37225229  0.10597553  1  -0.057845  0  -0.241273  -0.398072  0  3.978894  0
C  C97  1  0.47166654  0.62774718  0.89402516  1  -0.058132  0  -0.241281  -0.398119  0  3.978937  0
C  C98  1  0.67205341  0.26284330  0.94949946  1  -0.061486  0  -0.242351  -0.399715  0  3.984776  0
C  C99  1  0.32794618  0.73715419  0.05050122  1  -0.061691  0  -0.242351  -0.399705  0  3.984775  0
C  C100  1  0.13972292  0.30025545  0.01480670  1  -0.08577  0  -0.242969  -0.402911  0  3.989933  0
C  C101  1  0.86027944  0.69974501  0.98519201  1  -0.085935  0  -0.242971  -0.402896  0  3.989967  0
C  C102  1  0.99350893  0.39960306  0.17323410  1  -0.070296  0  -0.243731  -0.403285  0  3.951343  0
C  C103  1  0.00649251  0.60039641  0.82676609  1  -0.070246  0  -0.243746  -0.40326  0  3.951244  0
C  C104  1  0.75025977  0.72821590  0.58900828  1  0.014802  0  -0.022796  -0.029674  0  3.999069  0
C  C105  1  0.24974028  0.27178653  0.41099184  1  0.014838  0  -0.022843  -0.029745  0  3.999086  0
C  C106  1  0.73606468  0.59441485  0.61731743  1  -0.030569  0  -0.08987  -0.162573  0  3.951107  0
C  C107  1  0.26393457  0.40558560  0.38268239  1  -0.030585  0  -0.089842  -0.162518  0  3.951152  0
C  C108  1  0.85378331  0.50874953  0.62793799  1  -0.044812  0  0.008858  0.145305  0  4.067183  0
C  C109  1  0.14621698  0.49125092  0.37206106  1  -0.044801  0  0.008856  0.145281  0  4.067149  0
C  C110  1  0.98403487  0.55420289  0.61296517  1  -0.014667  0  -0.086583  -0.162507  0  3.95705  0
C  C111  1  0.01596438  0.44579757  0.38703404  1  -0.014665  0  -0.086596  -0.162481  0  3.957038  0
C  C112  1  0.99709795  0.68838586  0.58578650  1  0.078054  0  -0.013849  -0.006331  0  3.977317  0
C  C113  1  0.00290233  0.31161459  0.41421316  1  0.078076  0  -0.013841  -0.006324  0  3.977237  0
C  C114  1  0.88077985  0.77508742  0.57254949  1  -0.086158  0  -0.079203  -0.12047  0  3.916458  0
C  C115  1  0.11922043  0.22491303  0.42745203  1  -0.086147  0  -0.079229  -0.120504  0  3.91629  0
C  C116  1  0.62562106  0.82040853  0.57296684  1  1.574653  0  0.211412  0.575553  0  4.217122  0
C  C117  1  0.37437692  0.17959390  0.42703361  1  1.574368  0  0.211433  0.575511  0  4.217234  0
C  C118  1  0.13612178  0.73854177  0.57344970  1  1.580293  0  0.191183  0.550016  0  4.246031  0
C  C119  1  0.86387746  0.26145869  0.42654951  1  1.58082  0  0.19119  0.550012  0  4.246062  0
N  N120  1  0.44899060  0.79243503  0.42565220  1  -1.244889  0  -0.324071  -0.23321  0  3.535678  0
N  N121  1  0.55100945  0.20756739  0.57434668  1  -1.24483  0  -0.324085  -0.233366  0  3.535821  0
N  N122  1  0.27116984  0.97407871  0.65313792  1  -1.243144  0  -0.319728  -0.22573  0  3.522164  0
N  N123  1  0.72882952  0.02592076  0.34686199  1  -1.243143  0  -0.319717  -0.225708  0  3.522125  0
Cl  Cl124  1  0.83740886  0.34171583  0.65996314  1  -0.239371  0  0.000801  -0.077994  0  1.516738  0
Cl  Cl125  1  0.16259131  0.65828561  0.34003644  1  -0.239392  0  0.000814  -0.077983  0  1.51673  0
O  O126  1  0.50695632  0.77585128  0.59601652  1  -1.171471  0  -0.312151  -0.55233  0  2.363648  0
O  O127  1  0.49304304  0.22414819  0.40398277  1  -1.171471  0  -0.31213  -0.552274  0  2.363666  0
O  O128  1  0.64705714  0.93556025  0.53624733  1  -1.214016  0  -0.317795  -0.569015  0  2.446631  0
O  O129  1  0.35293876  0.06444217  0.46375406  1  -1.213772  0  -0.317814  -0.568993  0  2.446724  0
O  O130  1  0.23024747  0.66649459  0.60428062  1  -1.200245  0  -0.325856  -0.566832  0  2.194761  0
O  O131  1  0.76975085  0.33350487  0.39571945  1  -1.200271  0  -0.325868  -0.566852  0  2.194784  0
O  O132  1  0.15125779  0.85475144  0.53318071  1  -1.160914  0  -0.32784  -0.543689  0  2.25908  0
O  O133  1  0.84874145  0.14524901  0.46681974  1  -1.161406  0  -0.327848  -0.543684  0  2.259077  0
