# generated using pymatgen
data_CdH11C16NO5
_symmetry_space_group_name_H-M   'P 1'
_cell_length_a   8.89842964
_cell_length_b   15.25438115
_cell_length_c   25.77562581
_cell_angle_alpha   80.96724783
_cell_angle_beta   80.07219760
_cell_angle_gamma   73.02238117
_symmetry_Int_Tables_number   1
_chemical_formula_structural   CdH11C16NO5
_chemical_formula_sum   'Cd8 H88 C128 N8 O40'
_cell_volume   3275.00360400
_cell_formula_units_Z   8
loop_
 _symmetry_equiv_pos_site_id
 _symmetry_equiv_pos_as_xyz
  1  'x, y, z'
loop_
 _atom_site_type_symbol
 _atom_site_label
 _atom_site_symmetry_multiplicity
 _atom_site_fract_x
 _atom_site_fract_y
 _atom_site_fract_z
 _atom_site_occupancy
 _atom_site_pbe_bader_charge
 _atom_site_pbe_bader_spin_density
 _atom_site_pbe_cm5_charge
 _atom_site_pbe_ddec_charge
 _atom_site_pbe_ddec_spin_density
 _atom_site_pbe_ddec_sum_bond_order
 _atom_site_pbe_magmom
Cd  Cd0  1  0.16035651  0.37641238  0.49395909  1  1.308695  0  0.775518  1.012194  0  2.056045  0
Cd  Cd1  1  0.03063618  0.12354454  0.00606246  1  1.310015  0  0.775269  1.011615  0  2.05772  0
Cd  Cd2  1  0.83964446  0.62358920  0.50604078  1  1.308721  0  0.775493  1.012187  0  2.056064  0
Cd  Cd3  1  0.96936576  0.87645498  0.99393793  1  1.310033  0  0.775275  1.011588  0  2.057718  0
Cd  Cd4  1  0.86770127  0.23810686  0.53488983  1  1.296885  0  0.78028  0.933336  0  2.142481  0
Cd  Cd5  1  0.64047655  0.26188981  0.96504458  1  1.297777  0  0.780492  0.933504  0  2.141331  0
Cd  Cd6  1  0.13229789  0.76189610  0.46510886  1  1.296834  0  0.780299  0.933382  0  2.142467  0
Cd  Cd7  1  0.35952375  0.73810833  0.03495565  1  1.297696  0  0.780494  0.933495  0  2.141344  0
H  H8  1  0.82051952  0.40208726  0.58437411  1  0.639971  0  0.295734  0.404364  0  0.917332  0
H  H9  1  0.80710968  0.09770101  0.91570954  1  0.6497  0  0.29497  0.402326  0  0.919245  0
H  H10  1  0.17948242  0.59791226  0.41562628  1  0.639927  0  0.295746  0.404356  0  0.91735  0
H  H11  1  0.19289079  0.90229920  0.08429049  1  0.6497  0  0.294955  0.402298  0  0.919291  0
H  H12  1  0.65581560  0.39038522  0.57730148  1  0.644234  0  0.319802  0.410098  0  0.871551  0
H  H13  1  0.62356410  0.10958332  0.92278596  1  0.623563  0  0.320127  0.41099  0  0.873182  0
H  H14  1  0.34418651  0.60961637  0.42269871  1  0.644242  0  0.319783  0.410103  0  0.871492  0
H  H15  1  0.37643588  0.89041550  0.07721423  1  0.623546  0  0.320119  0.410963  0  0.873144  0
H  H16  1  0.57624308  0.31039176  0.48672663  1  0.674399  0  0.294457  0.409078  0  0.917363  0
H  H17  1  0.37367770  0.18922156  0.01324962  1  0.664321  0  0.294168  0.408726  0  0.917926  0
H  H18  1  0.42375960  0.68960844  0.51326978  1  0.674481  0  0.29452  0.409214  0  0.917185  0
H  H19  1  0.62632277  0.81077864  0.98675041  1  0.664326  0  0.294173  0.408724  0  0.917918  0
H  H20  1  0.51679975  0.25998473  0.53994055  1  0.664365  0  0.291492  0.39679  0  0.936397  0
H  H21  1  0.31671821  0.23968791  0.96009128  1  0.669474  0  0.291901  0.397476  0  0.935122  0
H  H22  1  0.48320053  0.74001822  0.46005690  1  0.664309  0  0.291507  0.396875  0  0.93628  0
H  H23  1  0.68328144  0.76031161  0.03990849  1  0.669499  0  0.291929  0.39748  0  0.935111  0
H  H24  1  0.46980630  0.08729411  0.60951426  1  0.067964  0  0.097796  0.09163  0  1.052462  0
H  H25  1  0.16658677  0.41268775  0.89070999  1  0.058255  0  0.097713  0.09128  0  1.053465  0
H  H26  1  0.53019300  0.91270609  0.39048468  1  0.068047  0  0.097801  0.091653  0  1.05244  0
H  H27  1  0.83341141  0.58731245  0.10928980  1  0.058234  0  0.097766  0.091375  0  1.053469  0
H  H28  1  0.47991171  0.98223565  0.69324221  1  0.058772  0  0.096192  0.092231  0  1.05354  0
H  H29  1  0.15564443  0.51770360  0.80696264  1  0.065698  0  0.097303  0.094076  0  1.052712  0
H  H30  1  0.52008791  0.01776386  0.30675639  1  0.059583  0  0.096184  0.092189  0  1.053544  0
H  H31  1  0.84435458  0.48229730  0.19303780  1  0.065719  0  0.097307  0.094086  0  1.052706  0
H  H32  1  0.99124064  0.11777472  0.74431993  1  0.045607  0  0.101128  0.101852  0  1.003292  0
H  H33  1  0.85367345  0.38237027  0.75570963  1  0.056316  0  0.100758  0.101414  0  1.005097  0
H  H34  1  0.00875996  0.88222272  0.25567958  1  0.045673  0  0.101132  0.101862  0  1.003323  0
H  H35  1  0.14632785  0.61763063  0.24429067  1  0.056311  0  0.100753  0.101394  0  1.00509  0
H  H36  1  0.98260330  0.22178987  0.65930168  1  0.080954  0  0.102773  0.107217  0  1.01336  0
H  H37  1  0.86390830  0.27833627  0.84071201  1  0.076146  0  0.103326  0.107857  0  1.012422  0
H  H38  1  0.01739439  0.77820895  0.34069826  1  0.080952  0  0.102769  0.107237  0  1.013384  0
H  H39  1  0.13608988  0.72166394  0.15928777  1  0.076147  0  0.103323  0.107862  0  1.012431  0
H  H40  1  0.44846077  0.77028082  0.83060886  1  0.090566  0  0.103576  0.104687  0  1.026218  0
H  H41  1  0.04938128  0.72962042  0.66940691  1  0.050706  0  0.104599  0.10573  0  1.025502  0
H  H42  1  0.55153547  0.22971870  0.16939189  1  0.090557  0  0.103564  0.104735  0  1.026154  0
H  H43  1  0.95061919  0.27037978  0.33059313  1  0.050728  0  0.104603  0.105731  0  1.025508  0
H  H44  1  0.11471330  0.09265132  0.82219895  1  0.082671  0  0.104993  0.113052  0  0.999454  0
H  H45  1  0.02997013  0.40724881  0.67793617  1  0.089188  0  0.10526  0.111989  0  1.000827  0
H  H46  1  0.88528797  0.90734958  0.17780019  1  0.082678  0  0.104981  0.113017  0  0.999497  0
H  H47  1  0.97003604  0.59275139  0.32206350  1  0.08915  0  0.105263  0.111957  0  1.000824  0
H  H48  1  0.64836178  0.79812082  0.74770572  1  0.065303  0  0.094349  0.095875  0  1.041466  0
H  H49  1  0.19445699  0.70187326  0.75238719  1  0.075367  0  0.094191  0.096367  0  1.041933  0
H  H50  1  0.35163397  0.20188214  0.25229396  1  0.06525  0  0.094336  0.095901  0  1.041366  0
H  H51  1  0.80554905  0.29812488  0.24761424  1  0.075399  0  0.09422  0.096402  0  1.041953  0
H  H52  1  0.75416136  0.71557280  0.66722340  1  0.107872  0  0.097077  0.101347  0  1.054388  0
H  H53  1  0.13688355  0.78452131  0.83284744  1  0.098267  0  0.096701  0.101077  0  1.054844  0
H  H54  1  0.24583422  0.28443292  0.33277486  1  0.107813  0  0.097065  0.101406  0  1.05437  0
H  H55  1  0.86311857  0.21547545  0.16715476  1  0.098579  0  0.096715  0.101119  0  1.054778  0
H  H56  1  0.28417879  0.77484532  0.62728898  1  0.123912  0  0.099344  0.106177  0  1.062638  0
H  H57  1  0.68652570  0.72502500  0.87271971  1  0.131571  0  0.099657  0.106602  0  1.061877  0
H  H58  1  0.71581470  0.22515283  0.37271362  1  0.123971  0  0.09938  0.106231  0  1.06257  0
H  H59  1  0.31347361  0.27497520  0.12727923  1  0.131566  0  0.099659  0.106536  0  1.061897  0
H  H60  1  0.17849750  0.86790728  0.70470849  1  0.069386  0  0.094952  0.093022  0  1.032248  0
H  H61  1  0.75153888  0.63199997  0.79525889  1  0.048804  0  0.095113  0.093243  0  1.03129  0
H  H62  1  0.82149613  0.13208810  0.29529397  1  0.069472  0  0.094909  0.092994  0  1.032221  0
H  H63  1  0.24846141  0.36800299  0.20473934  1  0.048723  0  0.095082  0.093205  0  1.031307  0
H  H64  1  0.17657811  0.18318697  0.44581639  1  0.155549  0  0.11681  0.094613  0  1.034695  0
H  H65  1  0.80547400  0.31678630  0.05415821  1  0.154235  0  0.116868  0.094872  0  1.03349  0
H  H66  1  0.82342923  0.81681323  0.55418438  1  0.155558  0  0.116803  0.09462  0  1.034718  0
H  H67  1  0.19452236  0.68321046  0.94584163  1  0.153979  0  0.116815  0.094794  0  1.033552  0
H  H68  1  0.41368636  0.05272854  0.42511042  1  0.084444  0  0.109692  0.116201  0  0.996721  0
H  H69  1  0.89103511  0.44727039  0.07493291  1  0.08711  0  0.110022  0.116388  0  0.997058  0
H  H70  1  0.58632102  0.94727167  0.57489267  1  0.084388  0  0.10968  0.116231  0  0.996731  0
H  H71  1  0.10896565  0.55272429  0.92506724  1  0.087096  0  0.110023  0.116381  0  0.997112  0
H  H72  1  0.43977164  0.89996679  0.48271995  1  0.13031  0  0.108742  0.114965  0  1.024937  0
H  H73  1  0.82186058  0.60005227  0.01730343  1  0.143666  0  0.109226  0.115328  0  1.024339  0
H  H74  1  0.56023264  0.10003273  0.51728301  1  0.130284  0  0.10873  0.114921  0  1.024936  0
H  H75  1  0.17813841  0.39994380  0.98269747  1  0.143599  0  0.109262  0.115386  0  1.024299  0
H  H76  1  0.23086141  0.88702392  0.55837988  1  0.143282  0  0.112268  0.127544  0  1.029764  0
H  H77  1  0.67573921  0.61295159  0.94160444  1  0.145451  0  0.112026  0.127563  0  1.030355  0
H  H78  1  0.76913732  0.11297768  0.44162246  1  0.143276  0  0.112286  0.127564  0  1.029769  0
H  H79  1  0.32425509  0.38704725  0.05839766  1  0.14536  0  0.112036  0.127567  0  1.030288  0
H  H80  1  0.04724380  0.88262397  0.61564773  1  0.13013  0  0.112292  0.128353  0  1.041551  0
H  H81  1  0.54553009  0.61728261  0.88420317  1  0.160348  0  0.111749  0.127254  0  1.043186  0
H  H82  1  0.95275651  0.11737900  0.38435166  1  0.130113  0  0.112324  0.128402  0  1.041484  0
H  H83  1  0.45447069  0.38271691  0.11579614  1  0.160321  0  0.111746  0.127242  0  1.043166  0
H  H84  1  0.85778059  0.89309907  0.69904708  1  0.096518  0  0.113766  0.111397  0  0.98248  0
H  H85  1  0.44955763  0.60687004  0.80085096  1  0.096955  0  0.113393  0.111214  0  0.982771  0
H  H86  1  0.14222086  0.10690389  0.30095186  1  0.096473  0  0.113757  0.111375  0  0.982439  0
H  H87  1  0.55044639  0.39312740  0.19914834  1  0.096904  0  0.113404  0.111241  0  0.982756  0
H  H88  1  0.66865560  0.04748639  0.71735142  1  0.10496  0  0.118093  0.123441  0  0.977792  0
H  H89  1  0.43307965  0.45248461  0.78256969  1  0.087729  0  0.118264  0.124079  0  0.977857  0
H  H90  1  0.33134618  0.95251588  0.28264795  1  0.104917  0  0.118071  0.123439  0  0.977799  0
H  H91  1  0.56692241  0.54751214  0.21742979  1  0.087729  0  0.118275  0.124115  0  0.977849  0
H  H92  1  0.67285902  0.18286071  0.64850461  1  0.110939  0  0.126304  0.098876  0  0.962083  0
H  H93  1  0.50413487  0.31711274  0.85140112  1  0.108134  0  0.125909  0.09863  0  0.961722  0
H  H94  1  0.32714212  0.81714294  0.35149506  1  0.111099  0  0.126258  0.098809  0  0.961944  0
H  H95  1  0.49586607  0.68288401  0.14859921  1  0.107946  0  0.125896  0.098628  0  0.961744  0
C  C96  1  0.22516449  0.15995432  0.62876795  1  -0.020232  0  -0.024063  -0.038457  0  3.980917  0
C  C97  1  0.01391784  0.34012411  0.87135940  1  -0.01663  0  -0.025736  -0.039975  0  3.984516  0
C  C98  1  0.77483516  0.84004519  0.37123181  1  -0.020236  0  -0.024083  -0.038398  0  3.980887  0
C  C99  1  0.98608098  0.65987471  0.12864009  1  -0.01664  0  -0.025721  -0.039973  0  3.984523  0
C  C100  1  0.36501806  0.09245959  0.63898667  1  -0.020584  0  -0.092338  -0.097808  0  4.008963  0
C  C101  1  0.09651843  0.40757096  0.86118640  1  0.007017  0  -0.090994  -0.095502  0  4.009072  0
C  C102  1  0.63498157  0.90753992  0.36101231  1  -0.02067  0  -0.092354  -0.097892  0  4.00895  0
C  C103  1  0.90348121  0.59242856  0.13881336  1  0.007009  0  -0.091095  -0.095658  0  4.009188  0
C  C104  1  0.37015667  0.03424376  0.68602478  1  -0.069214  0  -0.094021  -0.134887  0  3.998711  0
C  C105  1  0.09063690  0.46575028  0.81413772  1  -0.086244  0  -0.096663  -0.139692  0  3.999832  0
C  C106  1  0.62984360  0.96575437  0.31397430  1  -0.070025  0  -0.093991  -0.134751  0  3.998765  0
C  C107  1  0.90936098  0.53425062  0.18586318  1  -0.086233  0  -0.096692  -0.139749  0  3.999825  0
C  C108  1  0.23651763  0.04201124  0.72500202  1  -0.020489  0  -0.00388  0.079366  0  3.993096  0
C  C109  1  0.00390739  0.45801107  0.77509661  1  -0.020944  0  -0.00296  0.080997  0  3.99233  0
C  C110  1  0.76348150  0.95798689  0.27499751  1  -0.020433  0  -0.003882  0.079287  0  3.993222  0
C  C111  1  0.99609536  0.54198913  0.22490328  1  -0.020975  0  -0.002941  0.081098  0  3.992376  0
C  C112  1  0.09671606  0.11063484  0.71482845  1  -0.033426  0  -0.092488  -0.137349  0  3.976576  0
C  C113  1  0.92246119  0.38946597  0.78523457  1  -0.032591  0  -0.092599  -0.137013  0  3.978263  0
C  C114  1  0.90328455  0.88936260  0.28517106  1  -0.03382  0  -0.092469  -0.137284  0  3.976594  0
C  C115  1  0.07753781  0.61053493  0.21476510  1  -0.032594  0  -0.092604  -0.137013  0  3.978287  0
C  C116  1  0.09101845  0.16874786  0.66725710  1  -0.048449  0  -0.088802  -0.091394  0  3.983685  0
C  C117  1  0.92719093  0.33137102  0.83281382  1  -0.05599  0  -0.088781  -0.091783  0  3.982569  0
C  C118  1  0.90897987  0.83124959  0.33274255  1  -0.048139  0  -0.088837  -0.091523  0  3.983735  0
C  C119  1  0.07280808  0.66862987  0.16718623  1  -0.055986  0  -0.088757  -0.091766  0  3.982526  0
C  C120  1  0.22336340  0.22123402  0.57751072  1  1.559649  0  0.199706  0.577069  0  4.213753  0
C  C121  1  0.02208316  0.27881264  0.92261580  1  1.55522  0  0.203124  0.581008  0  4.209533  0
C  C122  1  0.77663675  0.77876687  0.42248965  1  1.55966  0  0.199737  0.577062  0  4.213763  0
C  C123  1  0.97791827  0.72118549  0.07738437  1  1.555263  0  0.203233  0.581083  0  4.209363  0
C  C124  1  0.25121638  0.98245321  0.77608715  1  0.012718  0  -0.000392  0.031915  0  3.963856  0
C  C125  1  0.01019481  0.51749505  0.72399412  1  -0.008543  0  -0.001967  0.030929  0  3.963651  0
C  C126  1  0.74878295  0.01754700  0.22391295  1  0.01262  0  -0.000368  0.031944  0  3.963927  0
C  C127  1  0.98980907  0.48250515  0.27600493  1  -0.008546  0  -0.00194  0.030844  0  3.963634  0
C  C128  1  0.34461768  0.88936603  0.77866501  1  -0.047948  0  -0.007401  0.016636  0  3.975898  0
C  C129  1  0.01298503  0.61057538  0.72139126  1  -0.019638  0  -0.007362  0.017508  0  3.975071  0
C  C130  1  0.65537970  0.11063349  0.22133567  1  -0.047859  0  -0.007423  0.016668  0  3.975856  0
C  C131  1  0.98701609  0.38942344  0.27860886  1  -0.018987  0  -0.007311  0.017579  0  3.97506  0
C  C132  1  0.37529314  0.84146111  0.82817834  1  -0.016051  0  -0.079205  -0.131036  0  3.962569  0
C  C133  1  0.04505101  0.65844552  0.67185639  1  0.018813  0  -0.081205  -0.134171  0  3.963801  0
C  C134  1  0.62470080  0.15853841  0.17182217  1  -0.016061  0  -0.079203  -0.131204  0  3.962484  0
C  C135  1  0.95494913  0.34155537  0.32814321  1  0.018808  0  -0.081177  -0.134143  0  3.96375  0
C  C136  1  0.31003726  0.87972815  0.87554378  1  0.006704  0  -0.009589  -0.042123  0  3.937854  0
C  C137  1  0.06525019  0.62015811  0.62450549  1  0.020077  0  -0.006691  -0.038009  0  3.934594  0
C  C138  1  0.68996126  0.12027136  0.12445683  1  0.006718  0  -0.009567  -0.042008  0  3.937781  0
C  C139  1  0.93475224  0.37984279  0.37549474  1  0.020075  0  -0.006677  -0.038003  0  3.934564  0
C  C140  1  0.21084888  0.97041535  0.87309862  1  -0.051442  0  0.001423  -0.005417  0  3.918412  0
C  C141  1  0.05442994  0.52946277  0.62697899  1  -0.054704  0  0.000961  -0.00743  0  3.919351  0
C  C142  1  0.78915159  0.02958485  0.12690141  1  -0.051411  0  0.001433  -0.005404  0  3.918389  0
C  C143  1  0.94557590  0.47053812  0.37301987  1  -0.054878  0  0.000918  -0.007422  0  3.919202  0
C  C144  1  0.18436541  0.02057619  0.82373220  1  0.008621  0  -0.083508  -0.150191  0  3.929991  0
C  C145  1  0.02904138  0.47932226  0.67636902  1  -0.014181  0  -0.082755  -0.148021  0  3.930407  0
C  C146  1  0.81563506  0.97942402  0.17626783  1  0.008615  0  -0.083501  -0.150157  0  3.929993  0
C  C147  1  0.97096332  0.52067864  0.32363029  1  -0.014046  0  -0.082778  -0.147964  0  3.930363  0
C  C148  1  0.34306172  0.82083802  0.92669051  1  1.566805  0  0.208279  0.588641  0  4.166303  0
C  C149  1  0.09028450  0.67906301  0.57334880  1  1.55108  0  0.204853  0.5855  0  4.170008  0
C  C150  1  0.65693711  0.17916081  0.07330976  1  1.566829  0  0.208256  0.588533  0  4.166576  0
C  C151  1  0.90971759  0.32093857  0.42665061  1  1.551204  0  0.204833  0.585425  0  4.170057  0
C  C152  1  0.13566028  0.01760318  0.92180277  1  1.596068  0  0.20834  0.59567  0  4.18718  0
C  C153  1  0.07504069  0.48228308  0.57827198  1  1.591063  0  0.20753  0.59416  0  4.189557  0
C  C154  1  0.86434051  0.98239633  0.07819692  1  1.596058  0  0.208315  0.595627  0  4.187174  0
C  C155  1  0.92496628  0.51771782  0.42172681  1  1.591009  0  0.20747  0.594156  0  4.18953  0
C  C156  1  0.40631372  0.83917442  0.73129920  1  -0.093779  0  -0.009432  0.070091  0  4.023467  0
C  C157  1  0.97711279  0.66080163  0.76874260  1  -0.062976  0  -0.010459  0.068855  0  4.025087  0
C  C158  1  0.59368416  0.16082648  0.26870132  1  -0.093641  0  -0.009364  0.070195  0  4.023434  0
C  C159  1  0.02288996  0.33919858  0.23125729  1  -0.064005  0  -0.010444  0.068881  0  4.025231  0
C  C160  1  0.56849128  0.79432982  0.72095897  1  0.050818  0  -0.102046  -0.156581  0  4.012014  0
C  C161  1  0.08402188  0.70565612  0.77910909  1  -0.062524  0  -0.100351  -0.155657  0  4.013263  0
C  C162  1  0.43150479  0.20567245  0.27904036  1  0.050755  0  -0.102057  -0.156615  0  4.011858  0
C  C163  1  0.91598038  0.29434271  0.22089097  1  -0.062529  0  -0.100394  -0.155738  0  4.013433  0
C  C164  1  0.62778945  0.74785365  0.67631136  1  -0.150405  0  -0.091869  -0.091595  0  3.980398  0
C  C165  1  0.05199533  0.75218987  0.82374235  1  -0.060057  0  -0.091678  -0.09087  0  3.980405  0
C  C166  1  0.37220793  0.25215069  0.32368770  1  -0.150376  0  -0.091899  -0.091752  0  3.980476  0
C  C167  1  0.94800466  0.24780896  0.17625862  1  -0.0604  0  -0.0917  -0.090913  0  3.980398  0
C  C168  1  0.52539991  0.74171314  0.64221281  1  0.017735  0  -0.020838  -0.025073  0  3.964201  0
C  C169  1  0.90933213  0.75830738  0.85780112  1  0.013678  0  -0.021605  -0.028774  0  3.966386  0
C  C170  1  0.47459355  0.25828983  0.35778662  1  0.017741  0  -0.020813  -0.024967  0  3.964118  0
C  C171  1  0.09066817  0.24169075  0.14219912  1  0.013705  0  -0.021643  -0.028825  0  3.96637  0
C  C172  1  0.36263734  0.78330322  0.65326659  1  -0.119926  0  -0.090239  -0.107453  0  3.97882  0
C  C173  1  0.79938188  0.71662473  0.84674193  1  -0.140606  0  -0.089801  -0.1058  0  3.978818  0
C  C174  1  0.63735923  0.21669561  0.34673460  1  -0.120074  0  -0.090227  -0.107431  0  3.978737  0
C  C175  1  0.20061858  0.28337547  0.15325772  1  -0.140654  0  -0.08975  -0.105598  0  3.978694  0
C  C176  1  0.30457397  0.83340631  0.69666289  1  -0.038121  0  -0.09655  -0.138097  0  3.995736  0
C  C177  1  0.83496712  0.66653176  0.80333931  1  -0.00619  0  -0.096172  -0.137908  0  3.99711  0
C  C178  1  0.69541886  0.16659321  0.30333885  1  -0.038131  0  -0.096581  -0.138219  0  3.995861  0
C  C179  1  0.16503447  0.33346844  0.19665949  1  -0.005706  0  -0.096186  -0.137974  0  3.997191  0
C  C180  1  0.59166445  0.69345107  0.59343711  1  1.572634  0  0.200613  0.574215  0  4.230931  0
C  C181  1  0.87836418  0.80663990  0.90655794  1  1.565179  0  0.201616  0.576983  0  4.224272  0
C  C182  1  0.40833276  0.30655121  0.40656254  1  1.572557  0  0.20065  0.574269  0  4.230932  0
C  C183  1  0.12163465  0.19335892  0.09344233  1  1.565236  0  0.201647  0.577017  0  4.22437  0
C  C184  1  0.19195098  0.11655361  0.46993699  1  0.477306  0  0.053284  0.113982  0  3.928654  0
C  C185  1  0.77826299  0.38342305  0.03003008  1  0.471903  0  0.054057  0.114629  0  3.928989  0
C  C186  1  0.80805571  0.88344798  0.53006330  1  0.477074  0  0.053267  0.113956  0  3.928863  0
C  C187  1  0.22173452  0.61657370  0.96997008  1  0.472182  0  0.054152  0.114874  0  3.928961  0
C  C188  1  0.32430315  0.04318791  0.45851828  1  -0.006458  0  -0.080032  -0.119741  0  3.945165  0
C  C189  1  0.82562530  0.45681469  0.04148900  1  -0.049428  0  -0.08208  -0.122414  0  3.947305  0
C  C190  1  0.67570341  0.95681161  0.54148415  1  -0.006152  0  -0.08007  -0.119906  0  3.945257  0
C  C191  1  0.17437369  0.54318138  0.95851151  1  -0.049344  0  -0.082026  -0.122481  0  3.947312  0
C  C192  1  0.33845046  0.95933891  0.49056383  1  -0.068357  0  -0.067299  -0.029802  0  3.949113  0
C  C193  1  0.78787812  0.54066234  0.00943828  1  -0.024913  0  -0.067407  -0.030166  0  3.946672  0
C  C194  1  0.66155267  0.04066061  0.50943843  1  -0.068519  0  -0.067256  -0.029647  0  3.949034  0
C  C195  1  0.21212024  0.45933511  0.99056331  1  -0.02503  0  -0.067479  -0.030212  0  3.946618  0
C  C196  1  0.22148327  0.95228402  0.53339848  1  -0.027249  0  -0.07683  -0.147916  0  3.896297  0
C  C197  1  0.70677714  0.54768623  0.96657380  1  -0.015072  0  -0.076706  -0.146836  0  3.894793  0
C  C198  1  0.77851805  0.04771688  0.46660298  1  -0.027011  0  -0.076855  -0.147986  0  3.896396  0
C  C199  1  0.29321634  0.45231191  0.03342803  1  -0.015038  0  -0.076717  -0.146844  0  3.894836  0
C  C200  1  0.09342151  0.02970733  0.54329203  1  0.487951  0  0.119262  0.164094  0  3.983179  0
C  C201  1  0.66621352  0.47024666  0.95664946  1  0.471958  0  0.11981  0.164287  0  3.985044  0
C  C202  1  0.90658062  0.97029425  0.45670854  1  0.487994  0  0.11926  0.164116  0  3.983187  0
C  C203  1  0.33377962  0.52975217  0.04335194  1  0.472189  0  0.119762  0.164238  0  3.985123  0
C  C204  1  0.97011429  0.02931116  0.59031399  1  0.513427  0  0.126678  0.180283  0  3.960566  0
C  C205  1  0.58965228  0.47063400  0.90958177  1  0.492757  0  0.126158  0.17912  0  3.966714  0
C  C206  1  0.02988683  0.97069249  0.40968490  1  0.513423  0  0.126675  0.180258  0  3.960479  0
C  C207  1  0.41034428  0.52936482  0.09041903  1  0.492768  0  0.12615  0.179091  0  3.966751  0
C  C208  1  0.96775354  0.94904268  0.62510910  1  -0.018659  0  -0.07151  -0.146638  0  3.896925  0
C  C209  1  0.54180431  0.55088823  0.87476365  1  -0.032857  0  -0.070708  -0.145666  0  3.900629  0
C  C210  1  0.03224760  0.05096097  0.37489017  1  -0.018921  0  -0.071499  -0.146679  0  3.896945  0
C  C211  1  0.45819679  0.44911059  0.12523570  1  -0.032887  0  -0.070742  -0.145691  0  3.900732  0
C  C212  1  0.85961922  0.95472669  0.67126763  1  -0.075849  0  -0.061084  -0.02017  0  3.950251  0
C  C213  1  0.48531361  0.54522642  0.82862728  1  -0.018021  0  -0.060788  -0.0203  0  3.952043  0
C  C214  1  0.14038159  0.04527765  0.32873160  1  -0.075631  0  -0.061098  -0.020121  0  3.950235  0
C  C215  1  0.51468959  0.45477033  0.17137214  1  -0.018021  0  -0.060801  -0.020296  0  3.952035  0
C  C216  1  0.75369998  0.03973343  0.68142319  1  -0.011431  0  -0.074314  -0.122701  0  3.971716  0
C  C217  1  0.47452152  0.46024251  0.81848988  1  -0.062742  0  -0.075444  -0.124469  0  3.973857  0
C  C218  1  0.24630031  0.96026953  0.31857504  1  -0.011529  0  -0.074329  -0.122767  0  3.97164  0
C  C219  1  0.52547878  0.53975562  0.18151036  1  -0.062726  0  -0.075442  -0.124557  0  3.973938  0
C  C220  1  0.75650994  0.11537088  0.64351783  1  0.477133  0  0.053196  0.097618  0  3.969446  0
C  C221  1  0.51525885  0.38459458  0.85638845  1  0.481773  0  0.054432  0.098708  0  3.96678  0
C  C222  1  0.24348744  0.88463346  0.35648123  1  0.477093  0  0.053278  0.097712  0  3.96928  0
C  C223  1  0.48473981  0.61540217  0.14361202  1  0.482001  0  0.054475  0.098767  0  3.966816  0
N  N224  1  0.07992983  0.10965730  0.51116741  1  -1.247011  0  -0.326095  -0.291021  0  3.51553  0
N  N225  1  0.70062752  0.39029848  0.98877921  1  -1.256889  0  -0.325166  -0.289731  0  3.517105  0
N  N226  1  0.92007311  0.89034498  0.48883305  1  -1.247103  0  -0.326046  -0.290942  0  3.515698  0
N  N227  1  0.29936706  0.60969966  0.01122100  1  -1.25696  0  -0.325172  -0.289794  0  3.517018  0
N  N228  1  0.86188073  0.11033847  0.59937270  1  -1.241131  0  -0.319342  -0.289461  0  3.50968  0
N  N229  1  0.57152120  0.38962038  0.90053304  1  -1.227802  0  -0.319524  -0.288148  0  3.510575  0
N  N230  1  0.13811926  0.88966518  0.40062626  1  -1.240957  0  -0.319376  -0.289467  0  3.509764  0
N  N231  1  0.42847650  0.61037845  0.09946769  1  -1.227664  0  -0.319502  -0.288096  0  3.510523  0
O  O232  1  0.35194211  0.22004622  0.54731564  1  -1.197222  0  -0.317687  -0.573706  0  2.229602  0
O  O233  1  0.11930183  0.27989900  0.95283852  1  -1.196621  0  -0.319276  -0.576409  0  2.229586  0
O  O234  1  0.64805887  0.77995536  0.45268501  1  -1.197256  0  -0.317714  -0.573721  0  2.22966  0
O  O235  1  0.88069407  0.72010121  0.04716141  1  -1.196659  0  -0.319348  -0.576446  0  2.229428  0
O  O236  1  0.08853074  0.27374744  0.56602208  1  -1.170817  0  -0.336181  -0.589801  0  2.371947  0
O  O237  1  0.92823392  0.22636128  0.93406031  1  -1.174056  0  -0.337458  -0.591116  0  2.370219  0
O  O238  1  0.91147088  0.72625276  0.43397865  1  -1.170831  0  -0.336178  -0.589814  0  2.372046  0
O  O239  1  0.07176994  0.77363409  0.06593958  1  -1.174076  0  -0.337503  -0.591128  0  2.370181  0
O  O240  1  0.21641684  0.05652692  0.94156718  1  -1.123164  0  -0.309237  -0.50532  0  2.176022  0
O  O241  1  0.21453440  0.44343568  0.55847418  1  -1.124185  0  -0.311455  -0.506511  0  2.175929  0
O  O242  1  0.78358443  0.94347398  0.05843196  1  -1.123156  0  -0.309239  -0.5053  0  2.176027  0
O  O243  1  0.78546688  0.55656522  0.44152535  1  -1.12409  0  -0.311496  -0.506623  0  2.175866  0
O  O244  1  0.99021892  0.02044884  0.93976570  1  -1.189514  0  -0.330204  -0.605586  0  2.286224  0
O  O245  1  0.95040369  0.47943016  0.56031866  1  -1.18139  0  -0.328062  -0.603652  0  2.286065  0
O  O246  1  0.00978156  0.97955136  0.06023511  1  -1.189493  0  -0.330184  -0.605579  0  2.286228  0
O  O247  1  0.04959956  0.52057143  0.43968145  1  -1.181374  0  -0.327958  -0.603547  0  2.286115  0
O  O248  1  0.73948233  0.68869245  0.57781158  1  -1.149291  0  -0.331714  -0.572401  0  2.356898  0
O  O249  1  0.00581488  0.81131736  0.92222158  1  -1.13792  0  -0.332604  -0.572971  0  2.354341  0
O  O250  1  0.26051275  0.31130707  0.42218886  1  -1.149249  0  -0.33177  -0.572483  0  2.356888  0
O  O251  1  0.99418672  0.18867802  0.07777962  1  -1.137866  0  -0.332595  -0.572981  0  2.354396  0
O  O252  1  0.50652703  0.66224704  0.57119129  1  -1.183181  0  -0.325021  -0.559563  0  2.154803  0
O  O253  1  0.73971956  0.83796504  0.92873145  1  -1.190761  0  -0.325546  -0.560153  0  2.151455  0
O  O254  1  0.49346463  0.33775730  0.42880773  1  -1.183103  0  -0.325003  -0.559541  0  2.15493  0
O  O255  1  0.26028076  0.16203793  0.07126794  1  -1.190845  0  -0.325549  -0.56017  0  2.151505  0
O  O256  1  0.25828813  0.85059305  0.96988644  1  -1.157075  0  -0.33334  -0.571788  0  2.329492  0
O  O257  1  0.07831737  0.64938862  0.53014364  1  -1.154479  0  -0.333603  -0.570903  0  2.329658  0
O  O258  1  0.74171018  0.14940440  0.03011283  1  -1.157131  0  -0.333372  -0.571799  0  2.329419  0
O  O259  1  0.92168245  0.35061296  0.46985591  1  -1.154683  0  -0.333591  -0.570883  0  2.329714  0
O  O260  1  0.44839483  0.74509815  0.92676035  1  -1.194024  0  -0.314968  -0.559492  0  2.209928  0
O  O261  1  0.11999549  0.75476894  0.57328401  1  -1.174398  0  -0.312089  -0.557469  0  2.210755  0
O  O262  1  0.55160954  0.25489860  0.07323977  1  -1.193987  0  -0.314929  -0.559419  0  2.21025  0
O  O263  1  0.87999978  0.24523265  0.42671622  1  -1.1743  0  -0.312121  -0.55748  0  2.21069  0
O  O264  1  0.75312147  0.35888924  0.59269037  1  -1.242535  0  -0.584936  -0.748369  0  1.979327  0
O  O265  1  0.70483770  0.14095820  0.90735951  1  -1.231092  0  -0.584716  -0.74713  0  1.982225  0
O  O266  1  0.24687786  0.64111096  0.40730973  1  -1.242489  0  -0.584934  -0.748373  0  1.979275  0
O  O267  1  0.29516081  0.85904132  0.09264071  1  -1.231071  0  -0.584688  -0.747069  0  1.98218  0
O  O268  1  0.60247193  0.28897673  0.52350177  1  -1.29567  0  -0.591677  -0.777482  0  2.039313  0
O  O269  1  0.41511178  0.21059409  0.97645595  1  -1.291502  0  -0.591216  -0.777115  0  2.037715  0
O  O270  1  0.39753043  0.71102415  0.47649498  1  -1.295698  0  -0.591739  -0.777702  0  2.039148  0
O  O271  1  0.58488932  0.78940473  0.02354378  1  -1.291503  0  -0.591234  -0.777089  0  2.037754  0
