# generated using pymatgen
data_Zn2H17C36Br2N10Cl3
_symmetry_space_group_name_H-M   'P 1'
_cell_length_a   20.48761407
_cell_length_b   19.95092753
_cell_length_c   21.37342283
_cell_angle_alpha   108.33202411
_cell_angle_beta   107.00923880
_cell_angle_gamma   110.72740856
_symmetry_Int_Tables_number   1
_chemical_formula_structural   Zn2H17C36Br2N10Cl3
_chemical_formula_sum   'Zn4 H34 C72 Br4 N20 Cl6'
_cell_volume   6907.31303347
_cell_formula_units_Z   2
loop_
 _symmetry_equiv_pos_site_id
 _symmetry_equiv_pos_as_xyz
  1  'x, y, z'
loop_
 _atom_site_type_symbol
 _atom_site_label
 _atom_site_symmetry_multiplicity
 _atom_site_fract_x
 _atom_site_fract_y
 _atom_site_fract_z
 _atom_site_occupancy
 _atom_site_pbe_bader_charge
 _atom_site_pbe_bader_spin_density
 _atom_site_pbe_cm5_charge
 _atom_site_pbe_ddec_charge
 _atom_site_pbe_ddec_spin_density
 _atom_site_pbe_ddec_sum_bond_order
 _atom_site_pbe_magmom
Zn  Zn0  1  0.61830052  0.62969526  0.51683396  1  1.205341  0  0.760345  0.705641  0  2.204638  0
Zn  Zn1  1  0.39231565  0.39996266  0.48341056  1  1.18558  0  0.74465  0.640404  0  2.406622  0
Zn  Zn2  1  0.50569968  0.60196680  0.61439659  1  1.197713  0  0.759547  0.685589  0  2.239432  0
Zn  Zn3  1  0.50178059  0.42358662  0.39203969  1  1.190983  0  0.746144  0.676647  0  2.24265  0
H  H4  1  0.78310550  0.70800857  0.65788732  1  0.128969  0  0.10087  0.090561  0  1.064676  0
H  H5  1  0.08853981  0.65183791  0.47314924  1  0.060475  0  0.099004  0.086103  0  0.993377  0
H  H6  1  0.43106982  0.28416977  0.53368674  1  0.12069  0  0.121856  0.117218  0  0.995231  0
H  H7  1  0.93750267  0.55611606  0.35062650  1  0.051477  0  0.099723  0.087159  0  0.992618  0
H  H8  1  0.96651148  0.42415835  0.30950051  1  0.065356  0  0.099519  0.086534  0  0.993413  0
H  H9  1  0.90279448  0.37112475  0.39726828  1  0.071983  0  0.099019  0.086154  0  0.992851  0
H  H10  1  0.50840755  0.98989204  0.38344316  1  0.074087  0  0.109531  0.115027  0  0.971064  0
H  H11  1  0.37290312  0.83444261  0.29514273  1  0.096919  0  0.110913  0.116831  0  0.968746  0
H  H12  1  0.30136013  0.87625745  0.45144821  1  0.095355  0  0.108516  0.113655  0  0.972508  0
H  H13  1  0.43695057  0.03231402  0.54059291  1  0.075651  0  0.10973  0.115186  0  0.96897  0
H  H14  1  0.41471159  0.59587220  0.78963925  1  0.075148  0  0.097435  0.110025  0  1.009867  0
H  H15  1  0.27113472  0.43249696  0.38503384  1  0.127056  0  0.123936  0.122298  0  0.990974  0
H  H16  1  0.51924681  0.57522621  0.75153431  1  0.048483  0  0.115622  0.104641  0  1.003729  0
H  H17  1  0.52319342  0.67969641  0.12881750  1  0.083141  0  0.10829  0.111855  0  0.990103  0
H  H18  1  0.56543710  0.67908839  0.25011988  1  0.043721  0  0.100738  0.101689  0  1.002132  0
H  H19  1  0.33005448  0.34263513  0.72970383  1  0.081692  0  0.098665  0.105709  0  1.006605  0
H  H20  1  0.31291759  0.45317963  0.03460583  1  0.083194  0  0.106608  0.108875  0  1.008007  0
H  H21  1  0.31013405  0.36734506  0.84276489  1  0.106903  0  0.110503  0.11513  0  0.986486  0
H  H22  1  0.35293013  0.45228752  0.15542896  1  0.032607  0  0.101538  0.103824  0  0.997734  0
H  H23  1  0.25103172  0.13454011  0.12710623  1  0.102031  0  0.090449  0.109094  0  1.052876  0
H  H24  1  0.64075734  0.38331455  0.41446772  1  0.127469  0  0.121329  0.113382  0  0.994174  0
H  H25  1  0.18719409  0.09120309  0.29222468  1  0.091413  0  0.105818  0.124116  0  0.998791  0
H  H26  1  0.43721833  0.72091954  0.57903529  1  0.094202  0  0.122302  0.109645  0  0.992051  0
H  H27  1  0.90697562  0.84902580  0.99466938  1  0.113107  0  0.110814  0.116425  0  1.003253  0
H  H28  1  0.77998922  0.78041936  0.88131921  1  0.051792  0  0.104199  0.107807  0  0.993231  0
H  H29  1  0.49205774  0.23848868  0.35247002  1  0.075597  0  0.124139  0.11305  0  0.986039  0
H  H30  1  0.64687576  0.65269736  0.77345574  1  0.085959  0  0.119532  0.107299  0  1.003014  0
H  H31  1  0.61040927  0.66919435  0.35854328  1  0.092524  0  0.121627  0.106699  0  0.986391  0
H  H32  1  0.23364833  0.22606824  0.35829485  1  0.087591  0  0.121836  0.110333  0  0.994446  0
H  H33  1  0.51927680  0.68263466  0.41313604  1  0.111266  0  0.117539  0.10775  0  1.041304  0
H  H34  1  0.40307873  0.43466501  0.25632273  1  0.101403  0  0.10985  0.09876  0  1.043417  0
H  H35  1  0.33426039  0.61364609  0.60129147  1  0.107163  0  0.125266  0.115056  0  0.977505  0
H  H36  1  0.02485483  0.59917898  0.56144971  1  0.07795  0  0.100567  0.088911  0  0.990607  0
H  H37  1  0.05417657  0.46669258  0.52013565  1  0.06404  0  0.100722  0.088602  0  0.988525  0
C  C38  1  0.73816283  0.69113561  0.67580889  1  0.40802  0  0.005611  -0.032184  0  3.985844  0
C  C39  1  0.50708902  0.68678567  0.45977908  1  0.42811  0  0.016836  -0.028665  0  3.922789  0
C  C40  1  0.45813617  0.49100971  0.29124387  1  0.410431  0  0.008552  -0.040552  0  3.969271  0
C  C41  1  0.44876788  0.28630701  0.49087778  1  0.40462  0  0.014769  -0.043409  0  3.929963  0
C  C42  1  0.33143315  0.56964643  0.55362898  1  0.45369  0  0.022047  -0.036373  0  3.953596  0
C  C43  1  0.49264605  0.55642888  0.27829100  1  -0.057596  0  -0.034885  -0.044354  0  4.066812  0
C  C44  1  0.27183310  0.52454582  0.47971926  1  0.050245  0  -0.025037  0.04978  0  4.189796  0
C  C45  1  0.46117636  0.71732428  0.48214348  1  0.087602  0  -0.025247  0.044073  0  4.180408  0
C  C46  1  0.27443139  0.21146215  0.27004893  1  0.037966  0  -0.035158  -0.094371  0  4.043794  0
C  C47  1  0.02731600  0.48662905  0.48279761  1  -0.032214  0  -0.07175  -0.075247  0  3.63399  0
C  C48  1  0.01288170  0.56039275  0.50565708  1  -0.029765  0  -0.072992  -0.078358  0  3.635845  0
C  C49  1  0.45542167  0.22706534  0.44019133  1  0.133448  0  -0.027727  0.044382  0  4.188258  0
C  C50  1  0.80413830  0.50316975  0.45369050  1  -0.260159  0  -0.072557  -0.115665  0  4.233692  0
C  C51  1  0.19919884  0.52250183  0.45398693  1  -0.517251  0  -0.067146  -0.121608  0  4.212137  0
C  C52  1  0.94470001  0.43356092  0.41433049  1  -0.041477  0  -0.072625  -0.080394  0  3.642557  0
C  C53  1  0.47233085  0.51977968  0.70208001  1  0.451149  0  0.001295  -0.052251  0  4.015664  0
C  C54  1  0.92787987  0.50696165  0.43755753  1  0.126071  0  0.004015  0.133205  0  3.801966  0
C  C55  1  0.97925221  0.46292490  0.36563212  1  -0.025497  0  -0.073238  -0.080352  0  3.637559  0
C  C56  1  0.06393071  0.51610183  0.43414231  1  0.099751  0  0.003779  0.134761  0  3.797686  0
C  C57  1  0.96391878  0.53635420  0.38842729  1  -0.017924  0  -0.071389  -0.078998  0  3.63284  0
C  C58  1  0.04690234  0.58951622  0.45670096  1  -0.018535  0  -0.073692  -0.081445  0  3.639882  0
C  C59  1  0.85988973  0.50364287  0.44351742  1  -0.132639  0  -0.056008  -0.123353  0  4.134461  0
C  C60  1  0.40287134  0.46222356  0.69518474  1  0.061569  0  -0.03609  -0.092665  0  4.058812  0
C  C61  1  0.13606741  0.52049948  0.43939008  1  0.199162  0  -0.060223  -0.13309  0  4.140466  0
C  C62  1  0.47453377  0.95143947  0.46830750  1  0.146516  0  0.025409  0.131655  0  3.707853  0
C  C63  1  0.46241166  0.96439326  0.39854248  1  0.004711  0  -0.071487  -0.11425  0  3.626533  0
C  C64  1  0.43876127  0.14886258  0.43092289  1  -0.360559  0  -0.055283  -0.095442  0  4.187558  0
C  C65  1  0.66605846  0.44870346  0.44322295  1  0.382819  0  0.01386  -0.036001  0  3.942159  0
C  C66  1  0.42704898  0.75733744  0.45265881  1  -0.493194  0  -0.051363  -0.085681  0  4.181517  0
C  C67  1  0.42249512  0.98783886  0.48616171  1  -0.005958  0  -0.071533  -0.112606  0  3.626862  0
C  C68  1  0.41181335  0.00466830  0.41724129  1  0.138123  0  0.005117  0.121296  0  3.802418  0
C  C69  1  0.34799681  0.90215850  0.43718738  1  -0.037843  0  -0.073143  -0.105458  0  3.632554  0
C  C70  1  0.39949834  0.86283122  0.41957495  1  0.11294  0  0.00609  0.115017  0  3.796249  0
C  C71  1  0.74214796  0.50929243  0.46559786  1  0.165312  0  -0.032185  -0.007192  0  4.188472  0
C  C72  1  0.33659701  0.91665978  0.36799716  1  0.000296  0  -0.00402  0.089748  0  3.609152  0
C  C73  1  0.38781813  0.87861823  0.34994406  1  -0.042854  0  -0.07186  -0.103889  0  3.622121  0
C  C74  1  0.42274817  0.08017052  0.42108009  1  -0.017652  0  -0.065268  -0.133188  0  4.144127  0
C  C75  1  0.40357994  0.79724936  0.42940547  1  0.163464  0  -0.070465  -0.144742  0  4.124651  0
C  C76  1  0.46392879  0.56377413  0.21119540  1  0.028237  0  -0.00205  0.09677  0  4.029973  0
C  C77  1  0.36723401  0.40278291  0.62096585  1  0.53271  0  0.108278  0.177605  0  4.088604  0
C  C78  1  0.39086764  0.50226339  0.14996181  1  0.025808  0  -0.08935  -0.120412  0  3.973124  0
C  C79  1  0.36772340  0.50243806  0.08238630  1  -0.021059  0  -0.083165  -0.131752  0  3.964971  0
C  C80  1  0.41725633  0.56540488  0.07399400  1  0.377519  0  0.080115  0.160356  0  4.050161  0
C  C81  1  0.48652285  0.63067577  0.13611388  1  -0.061152  0  -0.07966  -0.129188  0  3.972934  0
C  C82  1  0.56452264  0.60998445  0.34356832  1  0.454061  0  0.013904  -0.034972  0  3.99362  0
C  C83  1  0.50966668  0.62962721  0.20354773  1  -0.046687  0  -0.095199  -0.136571  0  3.993483  0
C  C84  1  0.38274248  0.55884495  0.86489574  1  -0.053228  0  -0.011922  0.06497  0  3.922529  0
C  C85  1  0.39395298  0.54556566  0.80197081  1  -0.00037  0  -0.101269  -0.186261  0  3.968497  0
C  C86  1  0.35620133  0.49474006  0.88240955  1  0.376198  0  0.082514  0.124981  0  4.03557  0
C  C87  1  0.37881909  0.46876671  0.75388194  1  -0.003777  0  -0.005645  0.117816  0  4.029485  0
C  C88  1  0.34451748  0.40325253  0.76691823  1  -0.0535  0  -0.096466  -0.137622  0  3.995656  0
C  C89  1  0.74121444  0.58152890  0.50144834  1  0.604864  0  0.112999  0.172867  0  4.077611  0
C  C90  1  0.33299833  0.41662227  0.82962885  1  -0.043208  0  -0.080192  -0.122295  0  3.965985  0
C  C91  1  0.81672083  0.71851429  0.80867991  1  0.043853  0  -0.005652  0.061823  0  4.000192  0
C  C92  1  0.82723661  0.76826858  0.87859692  1  0.035372  0  -0.090699  -0.122575  0  4.004819  0
C  C93  1  0.29905003  0.47769145  0.44249572  1  0.428503  0  0.01787  -0.032346  0  3.918634  0
C  C94  1  0.89738647  0.80658508  0.94166472  1  -0.071797  0  -0.084734  -0.127164  0  3.978884  0
C  C95  1  0.96113247  0.79692418  0.93793173  1  0.449663  0  0.078383  0.124937  0  4.040944  0
C  C96  1  0.94974927  0.74140892  0.86996330  1  -0.068357  0  -0.016093  0.010985  0  3.913797  0
C  C97  1  0.87835262  0.70274595  0.80619864  1  -0.068931  0  -0.023483  0.013782  0  3.906857  0
C  C98  1  0.16462060  0.01441937  0.09236078  1  0.070687  0  0.021726  0.11859  0  3.992325  0
C  C99  1  0.21689744  0.09527207  0.14430600  1  0.009994  0  -0.10742  -0.216416  0  3.974666  0
C  C100  1  0.11315128  0.96083562  0.10864771  1  0.518563  0  0.081297  0.046125  0  4.016053  0
C  C101  1  0.47986484  0.26301402  0.39802396  1  0.460818  0  0.024237  -0.035484  0  3.927152  0
C  C102  1  0.22438909  0.12597498  0.21630344  1  0.031483  0  -0.00236  0.143638  0  4.031712  0
C  C103  1  0.18000241  0.07150566  0.23589136  1  0.026671  0  -0.100845  -0.211963  0  3.961798  0
C  C104  1  0.46545664  0.70654977  0.54507626  1  0.476787  0  0.021936  -0.024568  0  3.939537  0
C  C105  1  0.12568458  0.99210587  0.18334135  1  0.005449  0  0.019959  0.111402  0  4.036939  0
C  C106  1  0.66887121  0.66389269  0.73525074  1  0.372375  0  0.010946  -0.04073  0  3.970412  0
C  C107  1  0.74537836  0.69023400  0.74301515  1  0.047579  0  -0.036507  -0.030663  0  4.066537  0
C  C108  1  0.33538656  0.27581295  0.27225743  1  0.557085  0  0.103103  0.167045  0  4.094396  0
C  C109  1  0.27229078  0.25078565  0.33625002  1  0.444694  0  0.015662  -0.032093  0  3.971204  0
Br  Br110  1  0.23875709  0.89377877  0.29684480  1  -0.09509  0  -0.031963  -0.130874  0  1.299225  0
Br  Br111  1  0.39978463  0.66394526  0.92137186  1  -0.0548  0  -0.002742  -0.093952  0  1.37159  0
Br  Br112  1  0.03351680  0.72252252  0.86835231  1  -0.007889  0  0.022485  -0.051785  0  1.457871  0
Br  Br113  1  0.86410149  0.62776938  0.71551741  1  -0.038855  0  0.026868  -0.050055  0  1.502671  0
N  N114  1  0.66393290  0.66822220  0.63205993  1  -0.792451  0  -0.270273  -0.19932  0  3.504454  0
N  N115  1  0.35545949  0.49844962  0.94913533  1  -0.486366  0  -0.161735  -0.146404  0  3.286401  0
N  N116  1  0.03808176  0.84917771  0.99494131  1  -0.426584  0  -0.150604  -0.10734  0  3.33256  0
N  N117  1  0.46679883  0.35176008  0.47900883  1  -0.783706  0  -0.278857  -0.209611  0  3.518757  0
N  N118  1  0.04332806  0.88981292  0.05713445  1  -0.540007  0  -0.15233  -0.108896  0  3.371749  0
N  N119  1  0.47734760  0.49736565  0.63785773  1  -0.742232  0  -0.274614  -0.220761  0  3.45674  0
N  N120  1  0.62403345  0.48251806  0.46325346  1  -0.780189  0  -0.271661  -0.197455  0  3.517484  0
N  N121  1  0.41143128  0.42439929  0.58748189  1  -0.785107  0  -0.28199  -0.234509  0  3.589375  0
N  N122  1  0.67116156  0.56453733  0.49984300  1  -0.763007  0  -0.281485  -0.235254  0  3.642719  0
N  N123  1  0.48590464  0.33656218  0.42184116  1  -0.786777  0  -0.278838  -0.168781  0  3.644515  0
N  N124  1  0.62065687  0.65070348  0.66891285  1  -0.794821  0  -0.281317  -0.186333  0  3.620395  0
N  N125  1  0.36871239  0.49307694  0.49086972  1  -0.820188  0  -0.287428  -0.222682  0  3.566854  0
N  N126  1  0.57234530  0.57942077  0.39109235  1  -0.760346  0  -0.262001  -0.210829  0  3.439061  0
N  N127  1  0.51106946  0.67345373  0.55944500  1  -0.796694  0  -0.273297  -0.202085  0  3.542849  0
N  N128  1  0.36657143  0.34614137  0.33331281  1  -0.743016  0  -0.267835  -0.286421  0  3.409647  0
N  N129  1  0.32665370  0.32974747  0.37300024  1  -0.814625  0  -0.278383  -0.169238  0  3.588057  0
N  N130  1  0.53676196  0.66118529  0.50660755  1  -0.804661  0  -0.286849  -0.202874  0  3.660709  0
N  N131  1  0.50632730  0.50510885  0.35822527  1  -0.828544  0  -0.288875  -0.202469  0  3.652279  0
N  N132  1  0.38809245  0.54980632  0.55946783  1  -0.801755  0  -0.284252  -0.193049  0  3.615947  0
N  N133  1  0.40823271  0.56519497  0.00613875  1  -0.491884  0  -0.156813  -0.134473  0  3.32589  0
Cl  Cl134  1  0.37803655  0.27373540  0.21393308  1  -0.217542  0  0.023355  -0.061682  0  1.534303  0
Cl  Cl135  1  0.56343030  0.97264639  0.53287606  1  -0.231124  0  -0.053684  -0.134744  0  1.365355  0
Cl  Cl136  1  0.16099897  0.98493419  0.00584726  1  -0.174768  0  -0.006938  -0.070275  0  1.509252  0
Cl  Cl137  1  0.07024418  0.92831126  0.20878543  1  -0.191788  0  -0.016616  -0.081915  0  1.495477  0
Cl  Cl138  1  0.28015205  0.31396972  0.57211735  1  -0.197746  0  0.000393  -0.078283  0  1.457802  0
Cl  Cl139  1  0.81388681  0.67900989  0.53998731  1  -0.19528  0  0.014354  -0.064084  0  1.510226  0
