# generated using pymatgen
data_Al2H19C29(NO6)3
_symmetry_space_group_name_H-M   'P 1'
_cell_length_a   6.70734324
_cell_length_b   22.49280731
_cell_length_c   25.54125029
_cell_angle_alpha   91.04658238
_cell_angle_beta   89.40421141
_cell_angle_gamma   89.53315831
_symmetry_Int_Tables_number   1
_chemical_formula_structural   Al2H19C29(NO6)3
_chemical_formula_sum   'Al4 H38 C58 N6 O36'
_cell_volume   3852.34618176
_cell_formula_units_Z   2
loop_
 _symmetry_equiv_pos_site_id
 _symmetry_equiv_pos_as_xyz
  1  'x, y, z'
loop_
 _atom_site_type_symbol
 _atom_site_label
 _atom_site_symmetry_multiplicity
 _atom_site_fract_x
 _atom_site_fract_y
 _atom_site_fract_z
 _atom_site_occupancy
 _atom_site_pbe_bader_charge
 _atom_site_pbe_bader_spin_density
 _atom_site_pbe_cm5_charge
 _atom_site_pbe_ddec_charge
 _atom_site_pbe_ddec_spin_density
 _atom_site_pbe_ddec_sum_bond_order
 _atom_site_pbe_magmom
Al  Al0  1  0.27904871  0.74427995  0.25304950  1  2.504348  0  0.402725  1.643576  0  2.572772  0
Al  Al1  1  0.72874702  0.25580766  0.74660382  1  2.501856  0  0.399622  1.63983  0  2.578718  0
Al  Al2  1  0.77862018  0.74607078  0.25377687  1  2.498199  0  0.405093  1.643617  0  2.583532  0
Al  Al3  1  0.22961351  0.25236547  0.74565231  1  2.501443  0  0.40393  1.638683  0  2.576534  0
H  H4  1  0.87432527  0.56573801  0.05006045  1  0.096485  0  0.108543  0.111317  0  1.006967  0
H  H5  1  0.13212130  0.43422566  0.95039397  1  0.106959  0  0.107614  0.110577  0  1.005266  0
H  H6  1  0.57076814  0.85010731  0.11243872  1  0.651966  0  0.310251  0.346993  0  0.972845  0
H  H7  1  0.36540054  0.15344785  0.92059193  1  0.596431  0  0.327298  0.35349  0  0.905055  0
H  H8  1  0.77840259  0.38532005  0.86170288  1  0.099032  0  0.107188  0.108339  0  1.007019  0
H  H9  1  0.22498036  0.62040344  0.13441586  1  0.124554  0  0.106221  0.105835  0  1.009829  0
H  H10  1  0.76587112  0.45725552  0.93834206  1  0.12037  0  0.104446  0.103036  0  1.032665  0
H  H11  1  0.23788386  0.54826147  0.05794736  1  0.108675  0  0.105006  0.103634  0  1.033814  0
H  H12  1  0.86174588  0.63787822  0.12700408  1  0.08636  0  0.109334  0.110985  0  1.004939  0
H  H13  1  0.14492346  0.36210544  0.87337620  1  0.082577  0  0.108414  0.111375  0  1.005606  0
H  H14  1  0.79499839  0.35227147  0.66248769  1  0.654884  0  0.317927  0.362373  0  0.955477  0
H  H15  1  0.21461644  0.64588969  0.33672666  1  0.639238  0  0.317122  0.362119  0  0.958845  0
H  H16  1  0.76362101  0.46218909  0.56364646  1  0.1315  0  0.108574  0.132501  0  1.019871  0
H  H17  1  0.24459616  0.53726565  0.43663424  1  0.121459  0  0.109187  0.132811  0  1.020201  0
H  H18  1  0.85926843  0.58198269  0.46389671  1  0.103992  0  0.111524  0.135657  0  1.000059  0
H  H19  1  0.14870174  0.41764328  0.53628314  1  0.097334  0  0.11068  0.134139  0  1.001708  0
H  H20  1  0.99527109  0.64711426  0.39591285  1  0.662199  0  0.309496  0.350364  0  0.970909  0
H  H21  1  0.01343481  0.35173685  0.60391172  1  0.629264  0  0.309735  0.349572  0  0.973064  0
H  H22  1  0.54841848  0.07195378  0.83754619  1  0.609363  0  0.330174  0.357995  0  0.893972  0
H  H23  1  0.34846242  0.84585087  0.17353012  1  0.653614  0  0.319216  0.366706  0  0.948054  0
H  H24  1  0.71352830  0.97009581  0.93494973  1  0.637358  0  0.316114  0.360863  0  0.948277  0
H  H25  1  0.23805882  0.02893632  0.06373423  1  0.646563  0  0.316334  0.362705  0  0.957575  0
H  H26  1  0.47455680  0.95381871  0.07426409  1  0.682317  0  0.307017  0.361581  0  0.978042  0
H  H27  1  0.49684057  0.04549596  0.92703230  1  0.653003  0  0.305035  0.353091  0  0.973695  0
H  H28  1  0.24805613  0.06649635  0.99475671  1  0.656193  0  0.303939  0.347488  0  0.997851  0
H  H29  1  0.69607029  0.93365971  0.00941925  1  0.648179  0  0.305739  0.345079  0  0.99519  0
H  H30  1  0.71304863  0.87174802  0.37577936  1  0.092854  0  0.113594  0.132909  0  1.000417  0
H  H31  1  0.29345276  0.12949368  0.62328774  1  0.117973  0  0.118445  0.142676  0  0.988747  0
H  H32  1  0.74254511  0.98134150  0.47986634  1  0.635599  0  0.300483  0.287953  0  1.064144  0
H  H33  1  0.26385336  0.02000151  0.51873547  1  0.617557  0  0.300103  0.286827  0  1.068079  0
H  H34  1  0.63043866  0.06421040  0.55783046  1  0.112317  0  0.10471  0.118663  0  1.047956  0
H  H35  1  0.37560166  0.93629877  0.44160317  1  0.131677  0  0.105551  0.11906  0  1.046673  0
H  H36  1  0.65251942  0.13958259  0.63116297  1  0.091105  0  0.11207  0.122718  0  1.001432  0
H  H37  1  0.35465533  0.86031838  0.36934934  1  0.078921  0  0.105659  0.10988  0  1.016474  0
H  H38  1  0.52165005  0.81954071  0.27327177  1  0.626275  0  0.35281  0.426572  0  0.85963  0
H  H39  1  0.48875591  0.18372234  0.77196021  1  0.621749  0  0.346257  0.430146  0  0.866758  0
H  H40  1  0.02730308  0.66954108  0.23632581  1  0.628146  0  0.354664  0.430164  0  0.852005  0
H  H41  1  0.98473236  0.32904303  0.76523401  1  0.622636  0  0.34903  0.424783  0  0.863108  0
C  C42  1  0.53693412  0.67419199  0.18140729  1  1.552504  0  0.273725  0.652617  0  4.07546  0
C  C43  1  0.46775144  0.32831587  0.81676928  1  1.567616  0  0.268208  0.643515  0  4.088888  0
C  C44  1  0.53299591  0.67749409  0.32735779  1  1.538372  0  0.264829  0.670173  0  4.066647  0
C  C45  1  0.47714715  0.32029429  0.67159856  1  1.537971  0  0.269393  0.673383  0  4.063351  0
C  C46  1  0.02410341  0.81817233  0.32388311  1  1.561125  0  0.275712  0.656131  0  4.062674  0
C  C47  1  0.98424798  0.18219679  0.67556009  1  1.579418  0  0.273315  0.641557  0  4.085888  0
C  C48  1  0.02709978  0.81416446  0.18004654  1  1.545009  0  0.267197  0.67193  0  4.061975  0
C  C49  1  0.97054673  0.18359031  0.81616523  1  1.604324  0  0.268939  0.682411  0  4.070262  0
C  C50  1  0.02653128  0.85518442  0.13542693  1  0.047461  0  -0.040995  -0.272542  0  3.984873  0
C  C51  1  0.96140074  0.13799000  0.85767252  1  0.049308  0  -0.033982  -0.23913  0  3.938483  0
C  C52  1  0.85292745  0.86543165  0.10599721  1  0.613143  0  0.083088  0.226988  0  4.079943  0
C  C53  1  0.11942893  0.12945323  0.89257042  1  0.507302  0  0.077611  0.202119  0  4.099304  0
C  C54  1  0.84523538  0.91284015  0.07090191  1  0.507594  0  0.057873  0.138869  0  4.051144  0
C  C55  1  0.11332910  0.08457463  0.93025837  1  0.511487  0  0.04735  0.119873  0  4.077638  0
C  C56  1  0.01223568  0.94920016  0.06168366  1  0.025484  0  -0.031855  -0.156303  0  4.061605  0
C  C57  1  0.94129681  0.05024739  0.93851253  1  0.055416  0  -0.034892  -0.143858  0  4.089334  0
C  C58  1  0.18690927  0.93723668  0.09058899  1  0.466131  0  0.05213  0.137371  0  4.044633  0
C  C59  1  0.78017012  0.06104612  0.90426863  1  0.435132  0  0.034383  0.082367  0  4.055617  0
C  C60  1  0.19631550  0.89042592  0.12558448  1  0.522323  0  0.072472  0.194139  0  4.097767  0
C  C61  1  0.79203136  0.10146659  0.86337852  1  0.549458  0  0.07719  0.203916  0  4.109808  0
C  C62  1  0.01567628  0.99905479  0.02476979  1  0.515722  0  0.055893  0.140048  0  3.993782  0
C  C63  1  0.92723859  0.00198521  0.97673630  1  0.446767  0  0.051389  0.128738  0  4.005379  0
C  C64  1  0.97413798  0.13832465  0.63103379  1  -0.052565  0  -0.001254  -0.003276  0  3.970745  0
C  C65  1  0.03280877  0.86223780  0.36801288  1  0.015721  0  -0.008368  -0.018474  0  3.993079  0
C  C66  1  0.14933772  0.11505685  0.60876961  1  0.023356  0  -0.088534  -0.208959  0  3.916155  0
C  C67  1  0.85763600  0.88604590  0.39002560  1  -0.000416  0  -0.090863  -0.206372  0  3.92603  0
C  C68  1  0.14027989  0.07275243  0.56803461  1  0.557737  0  0.101564  0.271821  0  4.023934  0
C  C69  1  0.86634119  0.92852284  0.43064312  1  0.556126  0  0.100253  0.270528  0  4.028303  0
C  C70  1  0.94933009  0.05420804  0.54956220  1  0.369056  0  0.085498  0.056886  0  4.044747  0
C  C71  1  0.05694691  0.94695785  0.44926631  1  0.367538  0  0.085927  0.058501  0  4.04395  0
C  C72  1  0.77427783  0.07891679  0.57243655  1  -0.009483  0  -0.083485  -0.130683  0  3.989905  0
C  C73  1  0.23174696  0.92185390  0.42683078  1  -0.005843  0  -0.082297  -0.125619  0  3.986636  0
C  C74  1  0.78584098  0.12037101  0.61274141  1  0.017972  0  -0.089213  -0.112911  0  3.991084  0
C  C75  1  0.22042530  0.88005884  0.38676174  1  -0.021816  0  -0.094487  -0.115942  0  4.009687  0
C  C76  1  0.54306047  0.63256012  0.13547707  1  0.01495  0  -0.009562  -0.042493  0  3.956371  0
C  C77  1  0.46179016  0.37018151  0.86287004  1  0.057433  0  -0.008102  -0.033952  0  3.9435  0
C  C78  1  0.36632574  0.60787663  0.11576613  1  -0.104139  0  -0.075771  -0.073026  0  3.96958  0
C  C79  1  0.63780999  0.39648717  0.88139182  1  -0.075439  0  -0.076628  -0.074842  0  3.96591  0
C  C80  1  0.37259103  0.56825949  0.07358570  1  0.020754  0  -0.079883  -0.137577  0  3.941429  0
C  C81  1  0.63173076  0.43599001  0.92367155  1  -0.039628  0  -0.080643  -0.138007  0  3.94095  0
C  C82  1  0.55759164  0.55293460  0.05021802  1  0.258067  0  0.092446  0.177735  0  4.030849  0
C  C83  1  0.44762076  0.44965129  0.94831058  1  0.326458  0  0.090864  0.174509  0  4.035907  0
C  C84  1  0.73393070  0.57813515  0.06935298  1  0.024843  0  -0.074863  -0.135713  0  3.943901  0
C  C85  1  0.27198973  0.42299262  0.93026892  1  -0.04024  0  -0.076915  -0.138242  0  3.94665  0
C  C86  1  0.72670239  0.61766315  0.11176890  1  -0.043809  0  -0.076275  -0.075708  0  3.966204  0
C  C87  1  0.27922421  0.38348485  0.88780703  1  -0.055045  0  -0.077685  -0.079547  0  3.970098  0
C  C88  1  0.53685127  0.64007124  0.37410175  1  -0.012803  0  -0.041653  -0.30266  0  3.904573  0
C  C89  1  0.47194965  0.35869184  0.62537782  1  0.001723  0  -0.038587  -0.300229  0  3.902892  0
C  C90  1  0.36684306  0.60589352  0.38822135  1  0.445578  0  0.090056  0.332671  0  4.071681  0
C  C91  1  0.64178625  0.39301207  0.61155508  1  0.436837  0  0.090889  0.333741  0  4.068933  0
C  C92  1  0.37502241  0.56350522  0.42694634  1  0.081283  0  -0.115514  -0.311719  0  3.954276  0
C  C93  1  0.63334072  0.43581073  0.57315544  1  0.089394  0  -0.116294  -0.313591  0  3.951178  0
C  C94  1  0.55544906  0.55467440  0.45306804  1  0.274033  0  0.091525  0.225893  0  4.087767  0
C  C95  1  0.45274413  0.44482363  0.54715294  1  0.313843  0  0.090146  0.223145  0  4.091111  0
C  C96  1  0.72351791  0.58861916  0.44154714  1  0.019794  0  -0.105303  -0.313813  0  3.940483  0
C  C97  1  0.28462141  0.41079891  0.55850695  1  -0.037549  0  -0.105042  -0.312725  0  3.94033  0
C  C98  1  0.71369562  0.63243846  0.40351786  1  0.543764  0  0.09887  0.358974  0  4.060921  0
C  C99  1  0.29482144  0.36657634  0.59621742  1  0.58822  0  0.100025  0.360496  0  4.061331  0
N  N100  1  0.92362798  0.01231762  0.50997650  1  -0.601825  0  -0.15877  -0.111489  0  3.383894  0
N  N101  1  0.08298257  0.98896841  0.48889480  1  -0.594805  0  -0.162272  -0.118135  0  3.378014  0
N  N102  1  0.58283600  0.51285295  0.00737854  1  -0.471298  0  -0.147514  -0.136527  0  3.271781  0
N  N103  1  0.42279942  0.48956161  0.99124434  1  -0.481105  0  -0.146617  -0.133634  0  3.275908  0
N  N104  1  0.58308080  0.51275339  0.49309124  1  -0.47763  0  -0.143369  -0.12396  0  3.247368  0
N  N105  1  0.42513328  0.48690018  0.50729134  1  -0.440207  0  -0.140789  -0.120827  0  3.249011  0
O  O106  1  0.69490052  0.69258788  0.30593579  1  -1.253116  0  -0.228402  -0.577449  0  2.403619  0
O  O107  1  0.31683544  0.30550707  0.69372395  1  -1.24642  0  -0.221175  -0.560713  0  2.399934  0
O  O108  1  0.36581656  0.68887782  0.20019515  1  -1.263605  0  -0.23799  -0.604904  0  2.341796  0
O  O109  1  0.63854184  0.31633771  0.79649829  1  -1.253895  0  -0.238306  -0.602978  0  2.337602  0
O  O110  1  0.20106894  0.79803103  0.19707712  1  -1.249876  0  -0.241567  -0.606923  0  2.364758  0
O  O111  1  0.80492118  0.20715643  0.80381585  1  -1.252972  0  -0.23607  -0.594854  0  2.364041  0
O  O112  1  0.35846318  0.69089656  0.30851256  1  -1.254929  0  -0.244553  -0.615537  0  2.363756  0
O  O113  1  0.65201230  0.30580321  0.68920403  1  -1.251854  0  -0.238484  -0.602569  0  2.364988  0
O  O114  1  0.19131414  0.80049302  0.30465862  1  -1.267322  0  -0.237165  -0.60801  0  2.36655  0
O  O115  1  0.81822905  0.19854039  0.69594314  1  -1.253413  0  -0.230266  -0.58544  0  2.361949  0
O  O116  1  0.70329530  0.69187492  0.19918457  1  -1.250545  0  -0.230656  -0.593122  0  2.357969  0
O  O117  1  0.30080743  0.30836608  0.80114339  1  -1.258665  0  -0.236498  -0.600708  0  2.349742  0
O  O118  1  0.52548107  0.78236327  0.25340852  1  -1.430526  0  -0.447913  -0.980839  0  2.168585  0
O  O119  1  0.48234487  0.21769200  0.74893182  1  -1.42153  0  -0.448529  -0.986198  0  2.157879  0
O  O120  1  0.85385200  0.80170689  0.30766455  1  -1.25409  0  -0.231809  -0.591297  0  2.330346  0
O  O121  1  0.15547907  0.19903753  0.69035559  1  -1.247245  0  -0.226778  -0.57369  0  2.339932  0
O  O122  1  0.86418587  0.79977821  0.20114296  1  -1.246941  0  -0.224103  -0.566058  0  2.390485  0
O  O123  1  0.14017335  0.19516230  0.79611635  1  -1.247259  0  -0.233508  -0.589403  0  2.334022  0
O  O124  1  0.03023505  0.70850621  0.25314333  1  -1.431516  0  -0.446526  -0.983461  0  2.173935  0
O  O125  1  0.97972382  0.29156828  0.74593054  1  -1.429038  0  -0.449535  -0.985288  0  2.170299  0
O  O126  1  0.69812630  0.82771428  0.11019754  1  -1.154261  0  -0.357634  -0.426164  0  2.33648  0
O  O127  1  0.28359669  0.16438431  0.89059933  1  -1.086597  0  -0.33569  -0.395635  0  2.314315  0
O  O128  1  0.81817891  0.38533291  0.63673897  1  -1.165907  0  -0.34262  -0.448006  0  2.324955  0
O  O129  1  0.19043582  0.61341709  0.36295376  1  -1.155563  0  -0.344547  -0.44969  0  2.328097  0
O  O130  1  0.86745814  0.66970279  0.39569682  1  -1.17707  0  -0.356524  -0.445831  0  2.311082  0
O  O131  1  0.14138065  0.32921429  0.60390711  1  -1.149961  0  -0.354676  -0.444387  0  2.312452  0
O  O132  1  0.64046804  0.10386072  0.82839480  1  -1.121458  0  -0.334254  -0.401717  0  2.317972  0
O  O133  1  0.37254080  0.88136362  0.15042757  1  -1.161561  0  -0.342369  -0.433299  0  2.340734  0
O  O134  1  0.81213781  0.95371887  0.96047262  1  -1.12826  0  -0.349809  -0.426923  0  2.336466  0
O  O135  1  0.13000803  0.04734757  0.04127865  1  -1.14149  0  -0.350792  -0.43157  0  2.3333  0
O  O136  1  0.34848139  0.97503154  0.08642801  1  -1.199298  0  -0.366159  -0.466954  0  2.381984  0
O  O137  1  0.60727243  0.02587347  0.90604199  1  -1.175469  0  -0.366897  -0.47677  0  2.359023  0
O  O138  1  0.28958957  0.07696370  0.95724592  1  -1.197432  0  -0.363014  -0.489946  0  2.399804  0
O  O139  1  0.66462302  0.92216813  0.04681474  1  -1.186009  0  -0.36062  -0.470847  0  2.429695  0
O  O140  1  0.69713957  0.95159744  0.45148588  1  -1.159908  0  -0.331812  -0.406137  0  2.344268  0
O  O141  1  0.30934699  0.04981431  0.54699838  1  -1.135426  0  -0.330114  -0.403929  0  2.345403  0
