# generated using pymatgen
data_CuH6C7N4
_symmetry_space_group_name_H-M   'P 1'
_cell_length_a   4.77882756
_cell_length_b   12.17531681
_cell_length_c   13.98449287
_cell_angle_alpha   107.87006111
_cell_angle_beta   89.96154770
_cell_angle_gamma   101.28365294
_symmetry_Int_Tables_number   1
_chemical_formula_structural   CuH6C7N4
_chemical_formula_sum   'Cu4 H24 C28 N16'
_cell_volume   757.90744544
_cell_formula_units_Z   4
loop_
 _symmetry_equiv_pos_site_id
 _symmetry_equiv_pos_as_xyz
  1  'x, y, z'
loop_
 _atom_site_type_symbol
 _atom_site_label
 _atom_site_symmetry_multiplicity
 _atom_site_fract_x
 _atom_site_fract_y
 _atom_site_fract_z
 _atom_site_occupancy
 _atom_site_pbe_bader_spin_density
 _atom_site_pbe_cm5_charge
 _atom_site_pbe_ddec_charge
 _atom_site_pbe_ddec_spin_density
 _atom_site_pbe_ddec_sum_bond_order
 _atom_site_pbe_magmom
Cu  Cu0  1  0.49637095  0.04358473  0.37157681  1  0  0.481629  0.311427  0  2.689607  0
Cu  Cu1  1  0.45373419  0.95669897  0.12897426  1  0  0.481651  0.311304  0  2.690004  0
Cu  Cu2  1  0.50363519  0.95641288  0.62842245  1  0  0.481635  0.311433  0  2.68951  0
Cu  Cu3  1  0.54627206  0.04330305  0.87102686  1  0  0.481664  0.311335  0  2.690016  0
H  H4  1  0.08493189  0.82710677  0.43734826  1  0  0.139836  0.122789  0  1.012382  0
H  H5  1  0.25977993  0.17289889  0.06245186  1  0  0.140002  0.122069  0  1.011839  0
H  H6  1  0.91505916  0.17288998  0.56265221  1  0  0.139828  0.122801  0  1.012316  0
H  H7  1  0.74022378  0.82710225  0.93754904  1  0  0.139989  0.122024  0  1.011856  0
H  H8  1  0.78019032  0.81326600  0.25285948  1  0  0.132028  0.107909  0  1.008855  0
H  H9  1  0.96751775  0.18686442  0.24725883  1  0  0.132022  0.108179  0  1.00784  0
H  H10  1  0.21980591  0.18673694  0.74714403  1  0  0.132048  0.107923  0  1.008844  0
H  H11  1  0.03248773  0.81314026  0.75274370  1  0  0.13202  0.108169  0  1.007866  0
H  H12  1  0.04780501  0.51455920  0.31368132  1  0  0.111926  0.097586  0  1.034346  0
H  H13  1  0.53318507  0.48562041  0.18656427  1  0  0.11193  0.097797  0  1.034427  0
H  H14  1  0.95218943  0.48544014  0.68631554  1  0  0.111917  0.097604  0  1.034371  0
H  H15  1  0.46681324  0.51438250  0.81343709  1  0  0.111935  0.097778  0  1.034507  0
H  H16  1  0.95468510  0.61311396  0.42641892  1  0  0.116379  0.108264  0  0.994242  0
H  H17  1  0.34196357  0.38704414  0.07386799  1  0  0.116752  0.109627  0  0.993239  0
H  H18  1  0.04531013  0.38688276  0.57357869  1  0  0.116436  0.108354  0  0.994216  0
H  H19  1  0.65803552  0.61295613  0.92613268  1  0  0.116769  0.109621  0  0.993288  0
H  H20  1  0.39074639  0.69971848  0.57240613  1  0  0.091477  0.082729  0  1.068  0
H  H21  1  0.69179831  0.30030030  0.92784732  1  0  0.091423  0.082392  0  1.067841  0
H  H22  1  0.60925301  0.30027822  0.42759004  1  0  0.091433  0.082657  0  1.068032  0
H  H23  1  0.30820122  0.69970085  0.07215358  1  0  0.091405  0.082353  0  1.067824  0
H  H24  1  0.29898457  0.37369332  0.32925449  1  0  0.101483  0.104879  0  1.024138  0
H  H25  1  0.92481791  0.62646450  0.17075042  1  0  0.101241  0.104796  0  1.024458  0
H  H26  1  0.70101362  0.62630514  0.67074214  1  0  0.101467  0.104811  0  1.024213  0
H  H27  1  0.07518117  0.37353575  0.82924882  1  0  0.101241  0.104785  0  1.024466  0
C  C28  1  0.14225345  0.08226828  0.37979083  1  0  -0.058093  -0.117703  0  3.874423  0
C  C29  1  0.06118329  0.91805395  0.12094859  1  0  -0.058124  -0.117712  0  3.876132  0
C  C30  1  0.85775136  0.91772666  0.62020560  1  0  -0.058084  -0.117669  0  3.874371  0
C  C31  1  0.93882086  0.08194808  0.87905253  1  0  -0.058083  -0.117734  0  3.87605  0
C  C32  1  0.24938104  0.79780131  0.38823772  1  0  0.15614  0.066585  0  3.917021  0
C  C33  1  0.45306310  0.20225100  0.11167769  1  0  0.157306  0.06809  0  3.915697  0
C  C34  1  0.75061343  0.20219808  0.61176344  1  0  0.156194  0.066596  0  3.916933  0
C  C35  1  0.54693853  0.79775015  0.88832393  1  0  0.157359  0.068216  0  3.915564  0
C  C36  1  0.60381619  0.78741782  0.29560783  1  0  0.141171  0.13197  0  3.990521  0
C  C37  1  0.81721618  0.21268035  0.20443753  1  0  0.140165  0.130228  0  3.990239  0
C  C38  1  0.39618125  0.21258335  0.70439450  1  0  0.141131  0.131932  0  3.990633  0
C  C39  1  0.18278677  0.78732346  0.79556477  1  0  0.14009  0.130104  0  3.99038  0
C  C40  1  0.13452761  0.58436833  0.38372340  1  0  -0.044531  -0.140181  0  3.882912  0
C  C41  1  0.55040202  0.41578153  0.11651679  1  0  -0.04585  -0.143667  0  3.884746  0
C  C42  1  0.86546806  0.41562927  0.61627443  1  0  -0.044579  -0.14033  0  3.883016  0
C  C43  1  0.44959542  0.58421962  0.88348411  1  0  -0.045881  -0.143622  0  3.884823  0
C  C44  1  0.32310646  0.54075312  0.44418488  1  0  -0.014461  0.085729  0  3.978821  0
C  C45  1  0.78250304  0.45936981  0.05594333  1  0  -0.013953  0.086165  0  3.979874  0
C  C46  1  0.67689504  0.45924359  0.55581273  1  0  -0.014472  0.085738  0  3.97873  0
C  C47  1  0.21749440  0.54063134  0.94405757  1  0  -0.013996  0.08609  0  3.980002  0
C  C48  1  0.43719197  0.61183920  0.54046324  1  0  -0.094164  -0.128414  0  3.97957  0
C  C49  1  0.82575459  0.38817905  0.95967701  1  0  -0.093484  -0.127198  0  3.978998  0
C  C50  1  0.56280490  0.38815662  0.45953270  1  0  -0.094128  -0.128295  0  3.979474  0
C  C51  1  0.17424152  0.61181943  0.04032105  1  0  -0.09344  -0.127105  0  3.97906  0
C  C52  1  0.38720857  0.42882355  0.40428977  1  0  -0.090489  -0.120903  0  3.956452  0
C  C53  1  0.95810547  0.57129347  0.09570629  1  0  -0.090329  -0.120405  0  3.957314  0
C  C54  1  0.61279336  0.57117403  0.59570663  1  0  -0.090488  -0.120842  0  3.956408  0
C  C55  1  0.04189362  0.42870678  0.90429367  1  0  -0.090309  -0.120352  0  3.957309  0
N  N56  1  0.44459508  0.86422282  0.34943035  1  0  -0.366537  -0.293622  0  3.607529  0
N  N57  1  0.58209969  0.13579473  0.15035785  1  0  -0.367243  -0.293863  0  3.608629  0
N  N58  1  0.55540193  0.13577748  0.65057319  1  0  -0.36655  -0.293596  0  3.607542  0
N  N59  1  0.41790700  0.86420819  0.84964423  1  0  -0.367264  -0.293894  0  3.608539  0
N  N60  1  0.51797387  0.67817366  0.29920394  1  0  -0.222109  -0.270032  0  3.123141  0
N  N61  1  0.83980854  0.32200019  0.20109359  1  0  -0.221019  -0.268274  0  3.123385  0
N  N62  1  0.48202312  0.32182661  0.70079673  1  0  -0.222112  -0.270049  0  3.123079  0
N  N63  1  0.16019188  0.67800273  0.79890848  1  0  -0.220971  -0.268167  0  3.12338  0
N  N64  1  0.29121533  0.68661922  0.35838813  1  0  -0.131422  0.174873  0  3.731255  0
N  N65  1  0.60508104  0.31353271  0.14182393  1  0  -0.131371  0.175488  0  3.731223  0
N  N66  1  0.70878123  0.31338015  0.64161160  1  0  -0.131429  0.174885  0  3.731232  0
N  N67  1  0.39491893  0.68646933  0.85817791  1  0  -0.131348  0.175485  0  3.731239  0
N  N68  1  0.89797049  0.08687980  0.38009136  1  0  -0.450683  -0.324574  0  3.675341  0
N  N69  1  0.81221854  0.91323163  0.12038320  1  0  -0.450689  -0.324371  0  3.674574  0
N  N70  1  0.10203311  0.91311692  0.61990624  1  0  -0.450692  -0.324618  0  3.675369  0
N  N71  1  0.18778770  0.08677039  0.87961721  1  0  -0.450741  -0.324374  0  3.674527  0
