# generated using pymatgen
data_Rb2H3C6(NO3)3
_symmetry_space_group_name_H-M   'P 1'
_cell_length_a   7.23513766
_cell_length_b   9.61604984
_cell_length_c   10.13909912
_cell_angle_alpha   115.30722205
_cell_angle_beta   109.79104393
_cell_angle_gamma   93.91530065
_symmetry_Int_Tables_number   1
_chemical_formula_structural   Rb2H3C6(NO3)3
_chemical_formula_sum   'Rb4 H6 C12 N6 O18'
_cell_volume   580.92546034
_cell_formula_units_Z   2
loop_
 _symmetry_equiv_pos_site_id
 _symmetry_equiv_pos_as_xyz
  1  'x, y, z'
loop_
 _atom_site_type_symbol
 _atom_site_label
 _atom_site_symmetry_multiplicity
 _atom_site_fract_x
 _atom_site_fract_y
 _atom_site_fract_z
 _atom_site_occupancy
 _atom_site_hle17_bader_spin_density
 _atom_site_hle17_ddec_charge
 _atom_site_hle17_ddec_spin_density
 _atom_site_hle17_ddec_sum_bond_order
 _atom_site_hle17_magmom
 _atom_site_hse06_10hf_bader_spin_density
 _atom_site_hse06_10hf_ddec_charge
 _atom_site_hse06_10hf_ddec_spin_density
 _atom_site_hse06_10hf_ddec_sum_bond_order
 _atom_site_hse06_10hf_magmom
 _atom_site_hse06_bader_spin_density
 _atom_site_hse06_ddec_charge
 _atom_site_hse06_ddec_spin_density
 _atom_site_hse06_ddec_sum_bond_order
 _atom_site_hse06_magmom
 _atom_site_pbe_bader_spin_density
 _atom_site_pbe_cm5_charge
 _atom_site_pbe_ddec_charge
 _atom_site_pbe_ddec_spin_density
 _atom_site_pbe_ddec_sum_bond_order
 _atom_site_pbe_magmom
Rb  Rb0  1  0.93611442  0.71783623  0.07550302  1  0  0.935367  0  0.550048  0  0  0.880459  0  0.782573  0  0  0.896311  0  0.757867  0  0  0.871305  0.867794  0  0.802101  0
Rb  Rb1  1  0.06388545  0.28216302  0.92449882  1  0  0.935374  0  0.550056  0  0  0.880459  0  0.78258  0  0  0.896317  0  0.757879  0  0  0.871313  0.867799  0  0.802106  0
Rb  Rb2  1  0.54118020  0.90338786  0.28217929  1  0  0.923037  0  0.536688  0  0  0.865134  0  0.767306  0  0  0.882239  0  0.740795  0  0  0.85139  0.851939  0  0.787107  0
Rb  Rb3  1  0.45881565  0.09661263  0.71782114  1  0  0.923039  0  0.536676  0  0  0.865128  0  0.767301  0  0  0.882236  0  0.740792  0  0  0.851389  0.851934  0  0.787101  0
H  H4  1  0.59955886  0.25900202  0.30938547  1  0  0.134236  0  0.946127  0  0  0.137559  0  1.01507  0  0  0.142704  0  1.007955  0  0  0.129461  0.13391  0  1.020285  0
H  H5  1  0.40043865  0.74099487  0.69061092  1  0  0.134249  0  0.946153  0  0  0.137561  0  1.015093  0  0  0.142711  0  1.007973  0  0  0.129453  0.133914  0  1.020308  0
H  H6  1  0.18065234  0.94653437  0.98379619  1  0  0.424513  0  0.86442  0  0  0.401244  0  0.917891  0  0  0.410246  0  0.904463  0  0  0.304023  0.39493  0  0.927284  0
H  H7  1  0.81934454  0.05346492  0.01620201  1  0  0.424519  0  0.864295  0  0  0.401246  0  0.917859  0  0  0.410248  0  0.904432  0  0  0.304018  0.394934  0  0.92725  0
H  H8  1  0.18731783  0.09150932  0.13657048  1  0  0.413698  0  0.894192  0  0  0.386294  0  0.954125  0  0  0.3966  0  0.939021  0  0  0.289204  0.378939  0  0.964895  0
H  H9  1  0.81268053  0.90848995  0.86342905  1  0  0.413765  0  0.894104  0  0  0.386324  0  0.954088  0  0  0.39663  0  0.938982  0  0  0.289215  0.378969  0  0.964857  0
C  C10  1  0.70613797  0.46256128  0.29722827  1  0  -0.046224  0  3.62907  0  0  -0.066726  0  3.886731  0  0  -0.083162  0  3.907871  0  0  0.066349  -0.055939  0  3.873402  0
C  C11  1  0.29386122  0.53744037  0.70277341  1  0  -0.046206  0  3.628889  0  0  -0.06676  0  3.886524  0  0  -0.083199  0  3.907671  0  0  0.066345  -0.055971  0  3.873194  0
C  C12  1  0.79500832  0.63422134  0.37778077  1  0  0.362993  0  3.913425  0  0  0.338599  0  4.194799  0  0  0.364945  0  4.203243  0  0  0.112151  0.321356  0  4.187916  0
C  C13  1  0.20498868  0.36578272  0.62221842  1  0  0.363155  0  3.91318  0  0  0.33874  0  4.194589  0  0  0.365086  0  4.203026  0  0  0.112224  0.321495  0  4.187707  0
C  C14  1  0.85649181  0.70889962  0.54864539  1  0  -0.228382  0  3.592133  0  0  -0.244232  0  3.866338  0  0  -0.267298  0  3.889016  0  0  0.031832  -0.229768  0  3.851533  0
C  C15  1  0.14350180  0.29109851  0.45135454  1  0  -0.228455  0  3.592224  0  0  -0.244306  0  3.866436  0  0  -0.267371  0  3.889109  0  0  0.03181  -0.22984  0  3.851631  0
C  C16  1  0.82523910  0.63477254  0.63915121  1  0  0.365709  0  3.879006  0  0  0.339855  0  4.160313  0  0  0.365871  0  4.169155  0  0  0.119703  0.323033  0  4.152989  0
C  C17  1  0.17476366  0.36522667  0.36085031  1  0  0.365613  0  3.878979  0  0  0.339786  0  4.160237  0  0  0.365799  0  4.169076  0  0  0.119661  0.322965  0  4.152909  0
C  C18  1  0.73454488  0.46242014  0.54324118  1  0  -0.061006  0  3.627304  0  0  -0.08305  0  3.890212  0  0  -0.101371  0  3.914961  0  0  0.061014  -0.070415  0  3.873056  0
C  C19  1  0.26545472  0.53758270  0.45676206  1  0  -0.061004  0  3.627357  0  0  -0.082944  0  3.890227  0  0  -0.101265  0  3.914978  0  0  0.061082  -0.070323  0  3.8731  0
C  C20  1  0.67328510  0.38518573  0.37792668  1  0  -0.059623  0  3.741741  0  0  -0.107841  0  4.029536  0  0  -0.091645  0  4.039085  0  0  -0.059975  -0.118706  0  4.022776  0
C  C21  1  0.32671336  0.61481831  0.62207285  1  0  -0.059671  0  3.741714  0  0  -0.107881  0  4.029503  0  0  -0.091689  0  4.039045  0  0  -0.059993  -0.118752  0  4.022751  0
N  N22  1  0.64032162  0.36958078  0.12836821  1  0  0.500923  0  3.932663  0  0  0.570092  0  4.170302  0  0  0.593826  0  4.178441  0  0  0.02895  0.553871  0  4.164913  0
N  N23  1  0.35967938  0.63042204  0.87163240  1  0  0.500779  0  3.932887  0  0  0.570163  0  4.170253  0  0  0.593897  0  4.178393  0  0  0.028989  0.553941  0  4.164862  0
N  N24  1  0.94773415  0.87547844  0.63606706  1  0  0.566965  0  3.873583  0  0  0.597191  0  4.160874  0  0  0.623569  0  4.165934  0  0  0.024011  0.57936  0  4.157662  0
N  N25  1  0.05226902  0.12452196  0.36393503  1  0  0.566901  0  3.873885  0  0  0.597117  0  4.161179  0  0  0.623497  0  4.166235  0  0  0.023984  0.579283  0  4.157965  0
N  N26  1  0.69913722  0.36796282  0.61211540  1  0  0.501248  0  3.943607  0  0  0.569311  0  4.184602  0  0  0.592381  0  4.194945  0  0  0.024453  0.553778  0  4.177004  0
N  N27  1  0.30085955  0.63203170  0.38788280  1  0  0.50158  0  3.943333  0  0  0.569372  0  4.184623  0  0  0.592446  0  4.194964  0  0  0.024465  0.553839  0  4.177026  0
O  O28  1  0.49887104  0.24536026  0.05514309  1  0  -0.430612  0  1.768662  0  0  -0.423779  0  1.973098  0  0  -0.437369  0  1.967794  0  0  -0.22002  -0.414594  0  1.97693  0
O  O29  1  0.50113284  0.75464252  0.94485619  1  0  -0.430545  0  1.768799  0  0  -0.423768  0  1.973152  0  0  -0.437355  0  1.967833  0  0  -0.219979  -0.414581  0  1.976984  0
O  O30  1  0.72402694  0.41180372  0.05697546  1  0  -0.421282  0  1.786779  0  0  -0.423106  0  1.998145  0  0  -0.433594  0  1.992483  0  0  -0.198106  -0.416694  0  2.0053  0
O  O31  1  0.27597635  0.58820146  0.94302763  1  0  -0.421249  0  1.786793  0  0  -0.423178  0  1.99807  0  0  -0.433666  0  1.992408  0  0  -0.198182  -0.416767  0  2.005225  0
O  O32  1  0.81328317  0.70847305  0.30477134  1  0  -0.605575  0  2.059152  0  0  -0.580395  0  2.314078  0  0  -0.604398  0  2.309947  0  0  -0.463839  -0.562214  0  2.315703  0
O  O33  1  0.18671601  0.29152859  0.69523033  1  0  -0.605637  0  2.058965  0  0  -0.580437  0  2.313875  0  0  -0.604452  0  2.309771  0  0  -0.463863  -0.562256  0  2.315502  0
O  O34  1  0.86609592  0.96578491  0.58942261  1  0  -0.41454  0  1.776697  0  0  -0.401711  0  2.006644  0  0  -0.411753  0  1.999643  0  0  -0.190739  -0.394592  0  2.011166  0
O  O35  1  0.13391280  0.03421901  0.41058024  1  0  -0.414466  0  1.776852  0  0  -0.401656  0  2.006844  0  0  -0.411697  0  1.999839  0  0  -0.190728  -0.394536  0  2.011364  0
O  O36  1  0.11233639  0.92827672  0.75861966  1  0  -0.454894  0  1.756727  0  0  -0.432377  0  1.976573  0  0  -0.446408  0  1.969701  0  0  -0.1964  -0.422766  0  1.981347  0
O  O37  1  0.88766666  0.07171892  0.24138144  1  0  -0.45489  0  1.756771  0  0  -0.432369  0  1.976625  0  0  -0.446398  0  1.96975  0  0  -0.196404  -0.42277  0  1.981428  0
O  O38  1  0.85906360  0.71481314  0.78507845  1  0  -0.575677  0  2.068643  0  0  -0.538268  0  2.307707  0  0  -0.562221  0  2.303484  0  0  -0.381096  -0.520627  0  2.309371  0
O  O39  1  0.14093981  0.28518368  0.21492125  1  0  -0.575596  0  2.068653  0  0  -0.538203  0  2.307679  0  0  -0.562166  0  2.303486  0  0  -0.381064  -0.52056  0  2.309344  0
O  O40  1  0.76036700  0.42624144  0.76102526  1  0  -0.456038  0  1.818164  0  0  -0.455245  0  2.040187  0  0  -0.466734  0  2.035327  0  0  -0.239993  -0.447724  0  2.046358  0
O  O41  1  0.23963386  0.57375660  0.23897336  1  0  -0.456134  0  1.818163  0  0  -0.455254  0  2.040266  0  0  -0.466743  0  2.035408  0  0  -0.239987  -0.447732  0  2.046438  0
O  O42  1  0.60493828  0.22315905  0.52124379  1  0  -0.479508  0  1.796565  0  0  -0.47478  0  2.018119  0  0  -0.490412  0  2.014596  0  0  -0.25859  -0.463998  0  2.020252  0
O  O43  1  0.39505855  0.77684023  0.47875243  1  0  -0.479705  0  1.796361  0  0  -0.474877  0  2.018024  0  0  -0.490507  0  2.014486  0  0  -0.258651  -0.464091  0  2.020153  0
O  O44  1  0.21690931  0.98546633  0.09777663  1  0  -0.895343  0  1.798379  0  0  -0.85423  0  1.962826  0  0  -0.872327  0  1.934387  0  0  -0.705094  -0.840868  0  1.982513  0
O  O45  1  0.78308860  0.01453175  0.90222033  1  0  -0.895406  0  1.798179  0  0  -0.85426  0  1.962796  0  0  -0.872359  0  1.934353  0  0  -0.705094  -0.8409  0  1.982482  0
