# generated using pymatgen
data_TlH2(CN)4
_symmetry_space_group_name_H-M   'P 1'
_cell_length_a   4.08734190
_cell_length_b   12.61316182
_cell_length_c   12.93151895
_cell_angle_alpha   117.14459431
_cell_angle_beta   90.06884952
_cell_angle_gamma   99.43634376
_symmetry_Int_Tables_number   1
_chemical_formula_structural   TlH2(CN)4
_chemical_formula_sum   'Tl4 H8 C16 N16'
_cell_volume   583.02126232
_cell_formula_units_Z   4
loop_
 _symmetry_equiv_pos_site_id
 _symmetry_equiv_pos_as_xyz
  1  'x, y, z'
loop_
 _atom_site_type_symbol
 _atom_site_label
 _atom_site_symmetry_multiplicity
 _atom_site_fract_x
 _atom_site_fract_y
 _atom_site_fract_z
 _atom_site_occupancy
 _atom_site_hle17_bader_spin_density
 _atom_site_hle17_ddec_charge
 _atom_site_hle17_ddec_spin_density
 _atom_site_hle17_ddec_sum_bond_order
 _atom_site_hle17_magmom
 _atom_site_hse06_10hf_bader_spin_density
 _atom_site_hse06_10hf_ddec_charge
 _atom_site_hse06_10hf_ddec_spin_density
 _atom_site_hse06_10hf_ddec_sum_bond_order
 _atom_site_hse06_10hf_magmom
 _atom_site_hse06_bader_spin_density
 _atom_site_hse06_ddec_charge
 _atom_site_hse06_ddec_spin_density
 _atom_site_hse06_ddec_sum_bond_order
 _atom_site_hse06_magmom
 _atom_site_pbe_bader_spin_density
 _atom_site_pbe_cm5_charge
 _atom_site_pbe_ddec_charge
 _atom_site_pbe_ddec_spin_density
 _atom_site_pbe_ddec_sum_bond_order
 _atom_site_pbe_magmom
Tl  Tl0  1  0.41065597  0.87962905  0.56894741  1  0  0.74658  0  0.857956  0  0  0.594898  0  1.169463  0  0  0.626677  0  1.150097  0  0  0.409469  0.571259  0  1.183487  0
Tl  Tl1  1  0.52873237  0.11905623  0.93036371  1  0  0.747659  0  0.856388  0  0  0.596484  0  1.167233  0  0  0.628218  0  1.14789  0  0  0.410549  0.572854  0  1.181265  0
Tl  Tl2  1  0.58933954  0.12037009  0.43105213  1  0  0.746597  0  0.85795  0  0  0.594923  0  1.169452  0  0  0.626698  0  1.150086  0  0  0.409474  0.571289  0  1.183478  0
Tl  Tl3  1  0.47126314  0.88094290  0.06963583  1  0  0.747661  0  0.856379  0  0  0.5965  0  1.167219  0  0  0.628229  0  1.147876  0  0  0.410562  0.572881  0  1.181244  0
H  H4  1  0.35261509  0.52514281  0.19545788  1  0  0.105243  0  0.939783  0  0  0.11484  0  1.002367  0  0  0.118334  0  1.000075  0  0  0.106687  0.112356  0  1.00403  0
H  H5  1  0.82485313  0.47445077  0.30449015  1  0  0.105223  0  0.939663  0  0  0.114379  0  1.002855  0  0  0.117875  0  1.000523  0  0  0.106666  0.111889  0  1.004549  0
H  H6  1  0.64738577  0.47485722  0.80454284  1  0  0.105256  0  0.939941  0  0  0.114842  0  1.002527  0  0  0.118334  0  1.000238  0  0  0.106712  0.112362  0  1.004188  0
H  H7  1  0.17514728  0.52554837  0.69550939  1  0  0.105208  0  0.939647  0  0  0.114364  0  1.002837  0  0  0.117859  0  1.000505  0  0  0.106661  0.111875  0  1.004532  0
H  H8  1  0.89315682  0.66073503  0.98015024  1  0  0.08096  0  0.990619  0  0  0.089544  0  1.061223  0  0  0.092127  0  1.059937  0  0  0.096156  0.087724  0  1.062146  0
H  H9  1  0.23421467  0.33996587  0.51993609  1  0  0.0798  0  0.991363  0  0  0.088651  0  1.061589  0  0  0.091204  0  1.060318  0  0  0.09578  0.086845  0  1.062502  0
H  H10  1  0.10684160  0.33926500  0.01984971  1  0  0.080932  0  0.9905  0  0  0.089528  0  1.061102  0  0  0.092112  0  1.059817  0  0  0.096116  0.087709  0  1.062023  0
H  H11  1  0.76578620  0.66003417  0.48006387  1  0  0.079787  0  0.991376  0  0  0.08865  0  1.061599  0  0  0.091203  0  1.060328  0  0  0.095782  0.086844  0  1.062509  0
C  C12  1  0.77830926  0.71743759  0.20661284  1  0  0.270245  0  3.798524  0  0  0.250531  0  4.063166  0  0  0.259916  0  4.080109  0  0  0.207194  0.244163  0  4.051623  0
C  C13  1  0.06012030  0.28298953  0.29343533  1  0  0.268876  0  3.800563  0  0  0.248594  0  4.065591  0  0  0.257854  0  4.082717  0  0  0.207427  0.242344  0  4.053894  0
C  C14  1  0.22169604  0.28256156  0.79338516  1  0  0.270233  0  3.798555  0  0  0.250533  0  4.063188  0  0  0.259926  0  4.080122  0  0  0.207181  0.244163  0  4.051646  0
C  C15  1  0.93988011  0.71700961  0.70656422  1  0  0.268884  0  3.800579  0  0  0.248567  0  4.06562  0  0  0.257825  0  4.082745  0  0  0.207412  0.242317  0  4.053924  0
C  C16  1  0.63967570  0.60670981  0.10133323  1  0  0.006823  0  3.792428  0  0  0.024954  0  4.021686  0  0  0.02365  0  4.044868  0  0  -0.004335  0.025865  0  4.005935  0
C  C17  1  0.03206790  0.39342463  0.39871940  1  0  0.007793  0  3.794704  0  0  0.026957  0  4.022566  0  0  0.02564  0  4.045847  0  0  -0.003745  0.027838  0  4.006791  0
C  C18  1  0.36032715  0.39328930  0.89866862  1  0  0.006898  0  3.792379  0  0  0.025027  0  4.021622  0  0  0.023718  0  4.044806  0  0  -0.004342  0.025941  0  4.005872  0
C  C19  1  0.96793297  0.60657541  0.60128056  1  0  0.007749  0  3.794792  0  0  0.026982  0  4.022582  0  0  0.02567  0  4.045857  0  0  -0.003736  0.027863  0  4.006807  0
C  C20  1  0.41839822  0.51370570  0.10979299  1  0  -0.074585  0  3.705833  0  0  -0.096565  0  3.95262  0  0  -0.098283  0  3.972427  0  0  -0.079828  -0.095359  0  3.939131  0
C  C21  1  0.90315273  0.48604571  0.39018131  1  0  -0.075254  0  3.707663  0  0  -0.097514  0  3.955  0  0  -0.099164  0  3.974732  0  0  -0.080742  -0.096344  0  3.941564  0
C  C22  1  0.58160663  0.48629256  0.89020306  1  0  -0.074637  0  3.705715  0  0  -0.096601  0  3.952488  0  0  -0.098318  0  3.972297  0  0  -0.079806  -0.095399  0  3.939004  0
C  C23  1  0.09685058  0.51395434  0.60981787  1  0  -0.07523  0  3.707754  0  0  -0.097505  0  3.955063  0  0  -0.099156  0  3.974795  0  0  -0.08075  -0.096337  0  3.941634  0
C  C24  1  0.71864754  0.59132679  0.98996402  1  0  -0.105324  0  3.754249  0  0  -0.120984  0  3.995707  0  0  -0.12446  0  4.019475  0  0  -0.086361  -0.118473  0  3.979432  0
C  C25  1  0.12813985  0.40904742  0.51010949  1  0  -0.10479  0  3.756432  0  0  -0.120806  0  3.997974  0  0  -0.124217  0  4.021692  0  0  -0.086265  -0.118324  0  3.981737  0
C  C26  1  0.28137183  0.40867600  0.01003563  1  0  -0.105377  0  3.754469  0  0  -0.121014  0  3.995886  0  0  -0.124507  0  4.019692  0  0  -0.086291  -0.118492  0  3.979578  0
C  C27  1  0.87186102  0.59095262  0.48989046  1  0  -0.10474  0  3.756365  0  0  -0.120784  0  3.997866  0  0  -0.124196  0  4.021579  0  0  -0.086253  -0.118301  0  3.981623  0
N  N28  1  0.71045019  0.74014735  0.31628752  1  0  -0.304995  0  2.943628  0  0  -0.278551  0  3.211913  0  0  -0.288624  0  3.227745  0  0  -0.219914  -0.271508  0  3.200868  0
N  N29  1  0.97137355  0.26059940  0.18366017  1  0  -0.303033  0  2.942789  0  0  -0.276839  0  3.211396  0  0  -0.286768  0  3.227125  0  0  -0.219694  -0.26991  0  3.200422  0
N  N30  1  0.28955022  0.25985178  0.68371280  1  0  -0.30497  0  2.943707  0  0  -0.278529  0  3.211983  0  0  -0.288603  0  3.227814  0  0  -0.219915  -0.271487  0  3.200943  0
N  N31  1  0.02862487  0.73940064  0.81633978  1  0  -0.303031  0  2.942778  0  0  -0.276832  0  3.21139  0  0  -0.286761  0  3.227118  0  0  -0.219688  -0.269905  0  3.20042  0
N  N32  1  0.87889760  0.85244264  0.38504074  1  0  -0.19193  0  3.173944  0  0  -0.140776  0  3.45263  0  0  -0.149116  0  3.473715  0  0  -0.108009  -0.134401  0  3.437586  0
N  N33  1  0.02914542  0.14880849  0.11492809  1  0  -0.194497  0  3.17614  0  0  -0.143363  0  3.455249  0  0  -0.151723  0  3.476237  0  0  -0.108946  -0.136966  0  3.440281  0
N  N34  1  0.12110081  0.14755739  0.61495998  1  0  -0.191972  0  3.173932  0  0  -0.140827  0  3.452637  0  0  -0.149167  0  3.473723  0  0  -0.108013  -0.134453  0  3.437595  0
N  N35  1  0.97085055  0.85119154  0.88507263  1  0  -0.194538  0  3.176187  0  0  -0.143411  0  3.455304  0  0  -0.151771  0  3.476291  0  0  -0.108969  -0.137015  0  3.440338  0
N  N36  1  0.04345265  0.89726200  0.32054602  1  0  -0.159312  0  3.123893  0  0  -0.123293  0  3.398614  0  0  -0.129389  0  3.420175  0  0  -0.101791  -0.118525  0  3.383227  0
N  N37  1  0.14779432  0.10393641  0.17957318  1  0  -0.158565  0  3.123503  0  0  -0.122482  0  3.397536  0  0  -0.128536  0  3.419052  0  0  -0.101969  -0.117747  0  3.38219  0
N  N38  1  0.95654332  0.10273803  0.67945470  1  0  -0.15927  0  3.123871  0  0  -0.12324  0  3.398575  0  0  -0.129335  0  3.420136  0  0  -0.101764  -0.118471  0  3.383183  0
N  N39  1  0.85219874  0.89606272  0.82042636  1  0  -0.158567  0  3.123525  0  0  -0.122477  0  3.397552  0  0  -0.128531  0  3.419068  0  0  -0.101963  -0.117739  0  3.3822  0
N  N40  1  0.98464513  0.81404198  0.20791229  1  0  -0.373189  0  3.089732  0  0  -0.314018  0  3.351359  0  0  -0.330298  0  3.3722  0  0  -0.218776  -0.302478  0  3.336707  0
N  N41  1  0.17000295  0.18667733  0.29225496  1  0  -0.37371  0  3.092747  0  0  -0.314662  0  3.35492  0  0  -0.330923  0  3.375838  0  0  -0.219599  -0.303138  0  3.340196  0
N  N42  1  0.01535329  0.18595805  0.79208843  1  0  -0.373216  0  3.089746  0  0  -0.314056  0  3.351376  0  0  -0.330338  0  3.372214  0  0  -0.218785  -0.302513  0  3.336717  0
N  N43  1  0.82999501  0.81332180  0.70774459  1  0  -0.373672  0  3.09273  0  0  -0.31462  0  3.354914  0  0  -0.330886  0  3.375844  0  0  -0.219581  -0.303094  0  3.340183  0
