# generated using pymatgen
data_Zn3H34C36(N2O3)6
_symmetry_space_group_name_H-M   'P 1'
_cell_length_a   10.24469118
_cell_length_b   10.59927565
_cell_length_c   12.76648673
_cell_angle_alpha   105.09028558
_cell_angle_beta   96.02244495
_cell_angle_gamma   99.14656316
_symmetry_Int_Tables_number   1
_chemical_formula_structural   Zn3H34C36(N2O3)6
_chemical_formula_sum   'Zn3 H34 C36 N12 O18'
_cell_volume   1305.78761274
_cell_formula_units_Z   1
loop_
 _symmetry_equiv_pos_site_id
 _symmetry_equiv_pos_as_xyz
  1  'x, y, z'
loop_
 _atom_site_type_symbol
 _atom_site_label
 _atom_site_symmetry_multiplicity
 _atom_site_fract_x
 _atom_site_fract_y
 _atom_site_fract_z
 _atom_site_occupancy
 _atom_site_pbe_bader_spin_density
 _atom_site_pbe_cm5_charge
 _atom_site_pbe_ddec_charge
 _atom_site_pbe_ddec_spin_density
 _atom_site_pbe_ddec_sum_bond_order
 _atom_site_pbe_magmom
Zn  Zn0  1  0.39417577  0.11728157  0.35032166  1  0  0.693225  0.894215  0  2.300886  0
Zn  Zn1  1  0.60582539  0.88272116  0.64967976  1  0  0.693223  0.89419  0  2.300904  0
Zn  Zn2  1  0.00000084  0.50000223  0.49999692  1  0  0.6592  1.021538  0  2.164491  0
H  H3  1  0.42353441  0.27552471  0.00147083  1  0  0.304993  0.256895  0  1.044156  0
H  H4  1  0.57646442  0.72447104  0.99852817  1  0  0.304965  0.256828  0  1.04424  0
H  H5  1  0.37862330  0.32972535  0.51654054  1  0  0.291701  0.3972  0  0.944466  0
H  H6  1  0.62137728  0.67027443  0.48346336  1  0  0.291717  0.397228  0  0.944425  0
H  H7  1  0.53372645  0.31581146  0.49875938  1  0  0.319033  0.40339  0  0.891455  0
H  H8  1  0.46627432  0.68418934  0.50124632  1  0  0.318994  0.403316  0  0.891602  0
H  H9  1  0.02180291  0.41661030  0.29618111  1  0  0.326392  0.408583  0  0.864005  0
H  H10  1  0.97820416  0.58338737  0.70381351  1  0  0.326362  0.408568  0  0.863958  0
H  H11  1  0.05450758  0.29383729  0.33965504  1  0  0.288189  0.392677  0  0.950362  0
H  H12  1  0.94549338  0.70616444  0.66034616  1  0  0.288188  0.392673  0  0.950372  0
H  H13  1  0.76084981  0.33544594  0.45747658  1  0  0.287212  0.393133  0  0.942875  0
H  H14  1  0.23915350  0.66455776  0.54252288  1  0  0.287159  0.393093  0  0.942931  0
H  H15  1  0.75423149  0.48800436  0.46846664  1  0  0.279089  0.363131  0  0.989904  0
H  H16  1  0.24576868  0.51199839  0.53153627  1  0  0.279082  0.363152  0  0.989893  0
H  H17  1  0.28991813  0.86215513  0.16848114  1  0  0.104826  0.120434  0  1.002122  0
H  H18  1  0.71007557  0.13784462  0.83152060  1  0  0.104817  0.120421  0  1.002204  0
H  H19  1  0.22442715  0.70658384  0.97771091  1  0  0.094204  0.091261  0  1.027229  0
H  H20  1  0.77557323  0.29341495  0.02229277  1  0  0.094196  0.091262  0  1.027223  0
H  H21  1  0.24093704  0.78892287  0.81489439  1  0  0.098265  0.102902  0  1.026021  0
H  H22  1  0.75906907  0.21106992  0.18510619  1  0  0.098289  0.102936  0  1.026114  0
H  H23  1  0.32426815  0.03025356  0.83470248  1  0  0.101834  0.112841  0  1.033917  0
H  H24  1  0.67573264  0.96974219  0.16529747  1  0  0.101828  0.112863  0  1.033927  0
H  H25  1  0.40225429  0.42309767  0.28182698  1  0  0.137311  0.143787  0  0.931734  0
H  H26  1  0.59774296  0.57690004  0.71817072  1  0  0.137311  0.143779  0  0.931734  0
H  H27  1  0.55990794  0.37751147  0.30147114  1  0  0.139786  0.152542  0  0.963662  0
H  H28  1  0.44009166  0.62248825  0.69852796  1  0  0.139804  0.152546  0  0.96372  0
H  H29  1  0.39015610  0.59918897  0.16691359  1  0  0.163594  0.14245  0  0.941886  0
H  H30  1  0.60984290  0.40081276  0.83308745  1  0  0.163606  0.142469  0  0.941881  0
H  H31  1  0.05966410  0.82054004  0.36972380  1  0  0.110503  0.121915  0  0.998728  0
H  H32  1  0.94033277  0.17945572  0.63027660  1  0  0.110531  0.121979  0  0.998761  0
H  H33  1  0.64152097  0.81885290  0.38630861  1  0  0.101856  0.094056  0  1.045773  0
H  H34  1  0.35847664  0.18115179  0.61369135  1  0  0.101848  0.09403  0  1.045789  0
H  H35  1  0.89324253  0.16497525  0.35361556  1  0  0.111484  0.117788  0  1.045764  0
H  H36  1  0.10676256  0.83502748  0.64638621  1  0  0.111455  0.117738  0  1.045794  0
C  C37  1  0.34530424  0.03200082  0.10618930  1  0  0.08638  0.148561  0  4.049998  0
C  C38  1  0.65468947  0.96799892  0.89381165  1  0  0.086361  0.148607  0  4.050066  0
C  C39  1  0.29801844  0.89732669  0.09594888  1  0  -0.096545  -0.162912  0  3.983925  0
C  C40  1  0.70197761  0.10267505  0.90405269  1  0  -0.096541  -0.162936  0  3.984151  0
C  C41  1  0.26108096  0.81241357  0.98983647  1  0  -0.104644  -0.100601  0  4.054139  0
C  C42  1  0.73891983  0.18758221  0.01016506  1  0  -0.104611  -0.100563  0  4.054238  0
C  C43  1  0.27068469  0.85920191  0.89642878  1  0  -0.097902  -0.083898  0  4.009954  0
C  C44  1  0.72931708  0.14079390  0.10357518  1  0  -0.097926  -0.083891  0  4.009997  0
C  C45  1  0.31716774  0.99311489  0.90608926  1  0  -0.093574  -0.15451  0  3.967627  0
C  C46  1  0.68283147  0.00688288  0.09391253  1  0  -0.09356  -0.154513  0  3.967663  0
C  C47  1  0.35389392  0.07815280  0.01245321  1  0  0.09556  0.153382  0  4.005349  0
C  C48  1  0.64610294  0.92184296  0.98754641  1  0  0.095538  0.153274  0  4.005371  0
C  C49  1  0.42589180  0.24583045  0.16307896  1  0  0.238391  0.349595  0  3.957826  0
C  C50  1  0.57410662  0.75416829  0.83692140  1  0  0.238488  0.349691  0  3.957648  0
C  C51  1  0.48060754  0.38274888  0.23877472  1  0  -0.020297  -0.187029  0  3.87244  0
C  C52  1  0.51939265  0.61724883  0.76122324  1  0  -0.02032  -0.187003  0  3.872408  0
C  C53  1  0.48583396  0.57329156  0.15119103  1  0  0.180877  0.063986  0  3.918146  0
C  C54  1  0.51416563  0.42670819  0.84881043  1  0  0.180849  0.063964  0  3.918184  0
C  C55  1  0.99135523  0.99893424  0.35671995  1  0  -0.017199  -0.043014  0  3.981854  0
C  C56  1  0.00864691  0.00106848  0.64328077  1  0  -0.017148  -0.042848  0  3.981829  0
C  C57  1  0.97434377  0.86960757  0.36741558  1  0  -0.06356  -0.072151  0  3.891294  0
C  C58  1  0.02565269  0.13039118  0.63258540  1  0  -0.063617  -0.072372  0  3.891494  0
C  C59  1  0.84914012  0.80392949  0.37919029  1  0  -0.023389  -0.061115  0  3.989776  0
C  C60  1  0.15085789  0.19607221  0.62080909  1  0  -0.02329  -0.060886  0  3.989713  0
C  C61  1  0.74000425  0.86780588  0.37810475  1  0  -0.073097  -0.088563  0  3.932438  0
C  C62  1  0.25999415  0.13219779  0.62189272  1  0  -0.073189  -0.088651  0  3.932558  0
C  C63  1  0.75702178  0.99835968  0.37017889  1  0  -0.018503  -0.038702  0  3.979276  0
C  C64  1  0.24297741  0.00164299  0.62981843  1  0  -0.018458  -0.038699  0  3.979288  0
C  C65  1  0.88244853  0.06357589  0.35962132  1  0  -0.062924  -0.082741  0  3.892594  0
C  C66  1  0.11755459  0.93642682  0.64037870  1  0  -0.062889  -0.082692  0  3.892616  0
C  C67  1  0.12718887  0.07025778  0.35026847  1  0  0.20984  0.576129  0  4.19503  0
C  C68  1  0.87281269  0.92974197  0.64973316  1  0  0.209854  0.576126  0  4.194942  0
C  C69  1  0.83829376  0.67151136  0.40243305  1  0  0.219101  0.599582  0  4.167224  0
C  C70  1  0.16170172  0.32848732  0.59756313  1  0  0.219037  0.59949  0  4.16737  0
C  C71  1  0.64210996  0.06929457  0.37290951  1  0  0.206379  0.574849  0  4.198743  0
C  C72  1  0.35789237  0.93070913  0.62708987  1  0  0.206493  0.574925  0  4.198604  0
N  N73  1  0.39145373  0.13975435  0.19894614  1  0  -0.354626  -0.40946  0  3.512532  0
N  N74  1  0.60854391  0.86024538  0.80105357  1  0  -0.354692  -0.409583  0  3.512514  0
N  N75  1  0.40439245  0.21384201  0.05185001  1  0  -0.370815  -0.305668  0  3.603662  0
N  N76  1  0.59560618  0.78615275  0.94814955  1  0  -0.370792  -0.305569  0  3.603626  0
N  N77  1  0.53615025  0.47604178  0.18165428  1  0  -0.117712  0.156222  0  3.735398  0
N  N78  1  0.46384798  0.52395594  0.81834429  1  0  -0.117776  0.156129  0  3.73531  0
N  N79  1  0.65706762  0.47252878  0.14762954  1  0  -0.055217  -0.083585  0  3.119525  0
N  N80  1  0.34293002  0.52747093  0.85236940  1  0  -0.05514  -0.083495  0  3.119344  0
N  N81  1  0.57237847  0.62957137  0.09882458  1  0  -0.205115  -0.214636  0  3.308175  0
N  N82  1  0.42762170  0.37043135  0.90117676  1  0  -0.205126  -0.214652  0  3.30836  0
N  N83  1  0.67739049  0.56444674  0.09795194  1  0  -0.082843  -0.079959  0  3.212034  0
N  N84  1  0.32261028  0.43555399  0.90204825  1  0  -0.082855  -0.079978  0  3.212107  0
O  O85  1  0.22344816  0.00610150  0.35648468  1  0  -0.324966  -0.549248  0  2.303042  0
O  O86  1  0.77655400  0.99389622  0.64351345  1  0  -0.324978  -0.549275  0  2.30309  0
O  O87  1  0.14667941  0.18792972  0.34197798  1  0  -0.318479  -0.556223  0  2.195593  0
O  O88  1  0.85332196  0.81206902  0.65802264  1  0  -0.318499  -0.556237  0  2.195494  0
O  O89  1  0.94628670  0.62852050  0.41256656  1  0  -0.316575  -0.558321  0  2.303223  0
O  O90  1  0.05370604  0.37147412  0.58742306  1  0  -0.316538  -0.558278  0  2.303108  0
O  O91  1  0.72378047  0.61012978  0.41311315  1  0  -0.32212  -0.578863  0  2.246505  0
O  O92  1  0.27621539  0.38987093  0.58688584  1  0  -0.322106  -0.578848  0  2.246617  0
O  O93  1  0.52469351  0.99942877  0.36532848  1  0  -0.328636  -0.547876  0  2.259459  0
O  O94  1  0.47530646  0.00057801  0.63467838  1  0  -0.32871  -0.547881  0  2.25948  0
O  O95  1  0.66159361  0.19241397  0.37955921  1  0  -0.320732  -0.579539  0  2.220794  0
O  O96  1  0.33841166  0.80758963  0.62043413  1  0  -0.32078  -0.5796  0  2.220811  0
O  O97  1  0.44151925  0.29866112  0.46242581  1  0  -0.565085  -0.754246  0  2.186531  0
O  O98  1  0.55848253  0.70133471  0.53757973  1  0  -0.565058  -0.754166  0  2.186711  0
O  O99  1  0.99349932  0.36116517  0.34262593  1  0  -0.567967  -0.76405  0  2.110208  0
O  O100  1  0.00650478  0.63883749  0.65737104  1  0  -0.567939  -0.76404  0  2.110116  0
O  O101  1  0.79255545  0.42765557  0.50699319  1  0  -0.59711  -0.785383  0  2.058662  0
O  O102  1  0.20744767  0.57234714  0.49300683  1  0  -0.597049  -0.785371  0  2.058619  0
