# generated using pymatgen
data_ZnH12(C7N5)2
_symmetry_space_group_name_H-M   'P 1'
_cell_length_a   7.40391980
_cell_length_b   7.54805017
_cell_length_c   14.29633561
_cell_angle_alpha   90.00002782
_cell_angle_beta   89.99972475
_cell_angle_gamma   102.98297470
_symmetry_Int_Tables_number   1
_chemical_formula_structural   ZnH12(C7N5)2
_chemical_formula_sum   'Zn2 H24 C28 N20'
_cell_volume   778.52923314
_cell_formula_units_Z   2
loop_
 _symmetry_equiv_pos_site_id
 _symmetry_equiv_pos_as_xyz
  1  'x, y, z'
loop_
 _atom_site_type_symbol
 _atom_site_label
 _atom_site_symmetry_multiplicity
 _atom_site_fract_x
 _atom_site_fract_y
 _atom_site_fract_z
 _atom_site_occupancy
 _atom_site_hle17_bader_spin_density
 _atom_site_hle17_ddec_charge
 _atom_site_hle17_ddec_spin_density
 _atom_site_hle17_ddec_sum_bond_order
 _atom_site_hle17_magmom
 _atom_site_hse06_10hf_bader_spin_density
 _atom_site_hse06_10hf_ddec_charge
 _atom_site_hse06_10hf_ddec_spin_density
 _atom_site_hse06_10hf_ddec_sum_bond_order
 _atom_site_hse06_10hf_magmom
 _atom_site_hse06_bader_spin_density
 _atom_site_hse06_ddec_charge
 _atom_site_hse06_ddec_spin_density
 _atom_site_hse06_ddec_sum_bond_order
 _atom_site_hse06_magmom
 _atom_site_pbe_bader_spin_density
 _atom_site_pbe_cm5_charge
 _atom_site_pbe_ddec_charge
 _atom_site_pbe_ddec_spin_density
 _atom_site_pbe_ddec_sum_bond_order
 _atom_site_pbe_magmom
Zn  Zn0  1  0.00000271  0.50000094  0.50000093  1  0  1.025276  0  1.942683  0  0  0.852061  0  2.398759  0  0  0.892736  0  2.353522  0  0  0.733715  0.824332  0  2.429308  0
Zn  Zn1  1  0.49999853  0.50000230  0.99999979  1  0  1.02528  0  1.942638  0  0  0.852082  0  2.3987  0  0  0.892754  0  2.353461  0  0  0.733737  0.824352  0  2.429251  0
H  H2  1  0.92897235  0.12413599  0.33898087  1  0  0.309417  0  0.93375  0  0  0.29684  0  0.99623  0  0  0.302153  0  0.992872  0  0  0.289782  0.293057  0  0.998595  0
H  H3  1  0.57103357  0.87586967  0.83898018  1  0  0.309437  0  0.933682  0  0  0.296854  0  0.996165  0  0  0.302166  0  0.992808  0  0  0.289793  0.293071  0  0.998534  0
H  H4  1  0.07103061  0.87586123  0.66101699  1  0  0.309429  0  0.933715  0  0  0.296843  0  0.996223  0  0  0.302155  0  0.992867  0  0  0.289814  0.293062  0  0.998588  0
H  H5  1  0.42896351  0.12413155  0.16102119  1  0  0.309454  0  0.933662  0  0  0.296869  0  0.996152  0  0  0.30218  0  0.992795  0  0  0.28979  0.293087  0  0.998522  0
H  H6  1  0.93874367  0.12087915  0.21979997  1  0  0.298134  0  0.937698  0  0  0.284579  0  1.001394  0  0  0.289725  0  0.998667  0  0  0.291689  0.280932  0  1.003272  0
H  H7  1  0.56125549  0.87912117  0.71979720  1  0  0.29817  0  0.937653  0  0  0.284614  0  1.001344  0  0  0.289761  0  0.998617  0  0  0.291713  0.280966  0  1.003223  0
H  H8  1  0.06125599  0.87911532  0.78019790  1  0  0.298085  0  0.937803  0  0  0.284598  0  1.001416  0  0  0.289743  0  0.998691  0  0  0.291694  0.28095  0  1.003299  0
H  H9  1  0.43874460  0.12088144  0.28020416  1  0  0.298087  0  0.937743  0  0  0.284533  0  1.001431  0  0  0.289678  0  0.998704  0  0  0.291681  0.280887  0  1.003306  0
H  H10  1  0.08467231  0.41468010  0.29885277  1  0  0.077182  0  0.980796  0  0  0.082756  0  1.053103  0  0  0.085601  0  1.051108  0  0  0.107418  0.080714  0  1.054538  0
H  H11  1  0.41533740  0.58532216  0.79885116  1  0  0.077173  0  0.980862  0  0  0.082712  0  1.053187  0  0  0.085557  0  1.051192  0  0  0.107416  0.080672  0  1.054615  0
H  H12  1  0.91534148  0.58531724  0.70114790  1  0  0.077111  0  0.98092  0  0  0.082728  0  1.053162  0  0  0.085574  0  1.051165  0  0  0.10741  0.080683  0  1.054603  0
H  H13  1  0.58466945  0.41468053  0.20114741  1  0  0.077149  0  0.98083  0  0  0.082683  0  1.053162  0  0  0.08553  0  1.051163  0  0  0.107409  0.080646  0  1.054583  0
H  H14  1  0.08815931  0.56427233  0.14137957  1  0  0.091156  0  0.972986  0  0  0.1013  0  1.034681  0  0  0.102678  0  1.035689  0  0  0.09978  0.100266  0  1.034161  0
H  H15  1  0.41184190  0.43572734  0.64137862  1  0  0.091245  0  0.97298  0  0  0.101367  0  1.034682  0  0  0.102744  0  1.035692  0  0  0.099801  0.100331  0  1.034162  0
H  H16  1  0.91184230  0.43572487  0.85862250  1  0  0.091136  0  0.973023  0  0  0.101284  0  1.034706  0  0  0.102662  0  1.035716  0  0  0.099782  0.100249  0  1.034185  0
H  H17  1  0.58816872  0.56427404  0.35862065  1  0  0.091186  0  0.973006  0  0  0.101327  0  1.034686  0  0  0.102703  0  1.035699  0  0  0.099826  0.100292  0  1.034165  0
H  H18  1  0.03171199  0.87699440  0.13134495  1  0  0.102338  0  0.95753  0  0  0.111752  0  1.021354  0  0  0.114411  0  1.02019  0  0  0.102874  0.109822  0  1.022283  0
H  H19  1  0.46828332  0.12300251  0.63134376  1  0  0.102364  0  0.957451  0  0  0.11179  0  1.02126  0  0  0.114449  0  1.020094  0  0  0.102875  0.109858  0  1.022188  0
H  H20  1  0.96828438  0.12299732  0.86865432  1  0  0.102337  0  0.957556  0  0  0.111717  0  1.021407  0  0  0.114376  0  1.020244  0  0  0.10287  0.10979  0  1.022334  0
H  H21  1  0.53171588  0.87699603  0.36865761  1  0  0.102293  0  0.957506  0  0  0.11168  0  1.021357  0  0  0.114339  0  1.020194  0  0  0.102851  0.109749  0  1.022286  0
H  H22  1  0.99074484  0.87216642  0.43285113  1  0  0.086622  0  0.94741  0  0  0.096504  0  1.009998  0  0  0.099066  0  1.008183  0  0  0.112195  0.094624  0  1.011444  0
H  H23  1  0.50925821  0.12783637  0.93284964  1  0  0.086657  0  0.94737  0  0  0.096526  0  1.009971  0  0  0.099086  0  1.008159  0  0  0.112216  0.094646  0  1.011417  0
H  H24  1  0.00925783  0.12782944  0.56714744  1  0  0.08659  0  0.947358  0  0  0.096481  0  1.009949  0  0  0.099043  0  1.008134  0  0  0.1122  0.094601  0  1.011394  0
H  H25  1  0.49073511  0.87216617  0.06715242  1  0  0.086612  0  0.947417  0  0  0.096503  0  1.010006  0  0  0.099066  0  1.008188  0  0  0.112207  0.094623  0  1.011452  0
C  C26  1  0.33759633  0.28802620  0.45023459  1  0  0.507487  0  3.966458  0  0  0.469067  0  4.251185  0  0  0.494786  0  4.261122  0  0  0.315215  0.451604  0  4.244167  0
C  C27  1  0.16240447  0.71198525  0.95023503  1  0  0.507619  0  3.966045  0  0  0.469183  0  4.250772  0  0  0.494897  0  4.26071  0  0  0.31531  0.451725  0  4.243761  0
C  C28  1  0.66240870  0.71198054  0.54976817  1  0  0.507587  0  3.966173  0  0  0.469174  0  4.250869  0  0  0.49489  0  4.260805  0  0  0.31525  0.451714  0  4.243856  0
C  C29  1  0.83759003  0.28802273  0.04976214  1  0  0.507495  0  3.966268  0  0  0.46909  0  4.251006  0  0  0.494807  0  4.260942  0  0  0.315214  0.451627  0  4.243988  0
C  C30  1  0.63197185  0.23621993  0.43655311  1  0  0.511139  0  3.960587  0  0  0.467402  0  4.254328  0  0  0.493602  0  4.26323  0  0  0.311801  0.449582  0  4.248084  0
C  C31  1  0.86802710  0.76378280  0.93655376  1  0  0.511118  0  3.960767  0  0  0.467361  0  4.254499  0  0  0.493559  0  4.263406  0  0  0.311725  0.449548  0  4.248257  0
C  C32  1  0.36803306  0.76378002  0.56345176  1  0  0.510975  0  3.96068  0  0  0.46722  0  4.254423  0  0  0.493417  0  4.263336  0  0  0.311764  0.449406  0  4.248177  0
C  C33  1  0.13196698  0.23621703  0.06344481  1  0  0.511158  0  3.960516  0  0  0.467437  0  4.254256  0  0  0.493635  0  4.263164  0  0  0.311925  0.449618  0  4.248008  0
C  C34  1  0.06186890  0.55139797  0.29130403  1  0  0.078215  0  3.726191  0  0  0.041694  0  3.985968  0  0  0.046611  0  4.004098  0  0  0.018615  0.03854  0  3.9736  0
C  C35  1  0.43814043  0.44860836  0.79130442  1  0  0.078253  0  3.726334  0  0  0.041776  0  3.986124  0  0  0.046689  0  4.004249  0  0  0.018622  0.03862  0  3.973758  0
C  C36  1  0.93814219  0.44859934  0.70869454  1  0  0.078262  0  3.726416  0  0  0.041716  0  3.986202  0  0  0.046633  0  4.00433  0  0  0.018628  0.038561  0  3.973837  0
C  C37  1  0.56186431  0.55139701  0.20869555  1  0  0.078253  0  3.726409  0  0  0.04179  0  3.986173  0  0  0.046711  0  4.004296  0  0  0.018626  0.038637  0  3.97381  0
C  C38  1  0.06319753  0.63558628  0.20451887  1  0  -0.092897  0  3.789674  0  0  -0.104775  0  4.043174  0  0  -0.10855  0  4.06575  0  0  -0.090231  -0.102392  0  4.027994  0
C  C39  1  0.43680200  0.36441463  0.70451643  1  0  -0.093059  0  3.789806  0  0  -0.104904  0  4.043285  0  0  -0.108679  0  4.065859  0  0  -0.09025  -0.102519  0  4.028106  0
C  C40  1  0.93680484  0.36440822  0.79548110  1  0  -0.092879  0  3.789802  0  0  -0.104761  0  4.043281  0  0  -0.108536  0  4.065854  0  0  -0.090237  -0.102378  0  4.028105  0
C  C41  1  0.56319915  0.63558663  0.29548214  1  0  -0.093011  0  3.789871  0  0  -0.104877  0  4.043325  0  0  -0.108654  0  4.065903  0  0  -0.090278  -0.102491  0  4.028143  0
C  C42  1  0.03448440  0.81068198  0.19889721  1  0  -0.131912  0  3.681602  0  0  -0.15343  0  3.930275  0  0  -0.154709  0  3.948444  0  0  -0.08671  -0.152371  0  3.91808  0
C  C43  1  0.46551412  0.18932029  0.69889395  1  0  -0.131873  0  3.681492  0  0  -0.15339  0  3.930178  0  0  -0.154666  0  3.948351  0  0  -0.086701  -0.152331  0  3.917981  0
C  C44  1  0.96551150  0.18931380  0.80110346  1  0  -0.131878  0  3.681754  0  0  -0.153329  0  3.930386  0  0  -0.154607  0  3.948555  0  0  -0.086672  -0.152274  0  3.918193  0
C  C45  1  0.53448507  0.81067825  0.30110532  1  0  -0.13179  0  3.681472  0  0  -0.153215  0  3.930212  0  0  -0.154493  0  3.94838  0  0  -0.086633  -0.152158  0  3.918014  0
C  C46  1  0.00843453  0.90314797  0.28165133  1  0  0.270772  0  3.865751  0  0  0.269164  0  4.114731  0  0  0.276252  0  4.135661  0  0  0.100145  0.263956  0  4.100637  0
C  C47  1  0.49156588  0.09685421  0.78164938  1  0  0.270739  0  3.865601  0  0  0.269089  0  4.114653  0  0  0.27617  0  4.135598  0  0  0.100098  0.263882  0  4.100566  0
C  C48  1  0.99156272  0.09684783  0.71834794  1  0  0.270737  0  3.865626  0  0  0.269078  0  4.114679  0  0  0.276167  0  4.135605  0  0  0.100113  0.26387  0  4.100592  0
C  C49  1  0.50843226  0.90314567  0.21835269  1  0  0.270874  0  3.865296  0  0  0.269066  0  4.114599  0  0  0.276154  0  4.135522  0  0  0.100096  0.263861  0  4.100504  0
C  C50  1  0.01100775  0.80863451  0.36631636  1  0  0.002817  0  3.669894  0  0  -0.030351  0  3.91922  0  0  -0.028138  0  3.93736  0  0  0.029632  -0.03172  0  3.906955  0
C  C51  1  0.48899347  0.19136892  0.86631375  1  0  0.002769  0  3.669793  0  0  -0.030356  0  3.919148  0  0  -0.028151  0  3.93729  0  0  0.029605  -0.031726  0  3.906887  0
C  C52  1  0.98899627  0.19136137  0.63368360  1  0  0.003009  0  3.669708  0  0  -0.030162  0  3.919057  0  0  -0.027951  0  3.937197  0  0  0.029694  -0.031528  0  3.906794  0
C  C53  1  0.51099714  0.80863358  0.13368622  1  0  0.002904  0  3.669509  0  0  -0.030227  0  3.918943  0  0  -0.028012  0  3.937078  0  0  0.029664  -0.031596  0  3.906686  0
N  N54  1  0.22068272  0.36708881  0.46518193  1  0  -0.582619  0  2.872127  0  0  -0.537789  0  3.162656  0  0  -0.558941  0  3.167349  0  0  -0.363094  -0.523484  0  3.15941  0
N  N55  1  0.27931523  0.63292258  0.96518416  1  0  -0.582744  0  2.871758  0  0  -0.537922  0  3.162303  0  0  -0.559072  0  3.166994  0  0  -0.363201  -0.52362  0  3.159059  0
N  N56  1  0.77932185  0.63292199  0.53481523  1  0  -0.582746  0  2.871974  0  0  -0.537917  0  3.162497  0  0  -0.559067  0  3.167184  0  0  -0.363161  -0.523616  0  3.159253  0
N  N57  1  0.72067957  0.36708675  0.03481371  1  0  -0.582672  0  2.871986  0  0  -0.537846  0  3.162502  0  0  -0.558995  0  3.167188  0  0  -0.363125  -0.523541  0  3.159258  0
N  N58  1  0.45330720  0.18717944  0.43153175  1  0  -0.465975  0  3.29715  0  0  -0.408238  0  3.556931  0  0  -0.431313  0  3.559832  0  0  -0.307708  -0.392287  0  3.554378  0
N  N59  1  0.04669019  0.81282792  0.93152619  1  0  -0.465986  0  3.297199  0  0  -0.408211  0  3.556952  0  0  -0.431287  0  3.559859  0  0  -0.307649  -0.392238  0  3.554341  0
N  N60  1  0.54669318  0.81282453  0.56847871  1  0  -0.465954  0  3.297152  0  0  -0.408194  0  3.556904  0  0  -0.431271  0  3.559814  0  0  -0.307659  -0.392226  0  3.554308  0
N  N61  1  0.95330266  0.18717868  0.06846888  1  0  -0.465966  0  3.29702  0  0  -0.40826  0  3.556829  0  0  -0.431335  0  3.559732  0  0  -0.307772  -0.392313  0  3.554287  0
N  N62  1  0.79562202  0.26454614  0.43684809  1  0  -0.600921  0  2.797636  0  0  -0.558043  0  3.077918  0  0  -0.57719  0  3.08062  0  0  -0.371534  -0.545164  0  3.076174  0
N  N63  1  0.70437663  0.73545524  0.93685123  1  0  -0.60092  0  2.797845  0  0  -0.55803  0  3.078108  0  0  -0.577177  0  3.080814  0  0  -0.371505  -0.545156  0  3.076367  0
N  N64  1  0.20438128  0.73544024  0.56315327  1  0  -0.600756  0  2.797619  0  0  -0.557877  0  3.077942  0  0  -0.577025  0  3.080652  0  0  -0.371509  -0.545002  0  3.076197  0
N  N65  1  0.29561699  0.26454866  0.06314874  1  0  -0.600937  0  2.797678  0  0  -0.558045  0  3.077921  0  0  -0.577189  0  3.080628  0  0  -0.371593  -0.545165  0  3.076175  0
N  N66  1  0.03382536  0.63781869  0.37040687  1  0  -0.314415  0  3.390686  0  0  -0.229109  0  3.649364  0  0  -0.246728  0  3.670472  0  0  -0.328564  -0.217037  0  3.6347  0
N  N67  1  0.46617746  0.36218611  0.87040576  1  0  -0.3144  0  3.390738  0  0  -0.229134  0  3.649451  0  0  -0.246733  0  3.670539  0  0  -0.32857  -0.217062  0  3.634788  0
N  N68  1  0.96617654  0.36217988  0.62959310  1  0  -0.314595  0  3.390844  0  0  -0.229289  0  3.649569  0  0  -0.246903  0  3.67067  0  0  -0.328668  -0.217224  0  3.634915  0
N  N69  1  0.53381827  0.63781510  0.12959491  1  0  -0.31451  0  3.39068  0  0  -0.229204  0  3.649372  0  0  -0.246822  0  3.670475  0  0  -0.328616  -0.217143  0  3.634723  0
N  N70  1  0.98535450  0.07876941  0.28100371  1  0  -0.659182  0  3.138224  0  0  -0.62537  0  3.362909  0  0  -0.645689  0  3.367211  0  0  -0.598166  -0.610835  0  3.359604  0
N  N71  1  0.51464570  0.92123219  0.78100316  1  0  -0.659191  0  3.138123  0  0  -0.625359  0  3.362857  0  0  -0.645676  0  3.367163  0  0  -0.598159  -0.610822  0  3.359546  0
N  N72  1  0.01464486  0.92122370  0.71899486  1  0  -0.659113  0  3.138057  0  0  -0.625366  0  3.36272  0  0  -0.645698  0  3.367047  0  0  -0.598156  -0.610826  0  3.359404  0
N  N73  1  0.48535003  0.07876901  0.21899961  1  0  -0.659201  0  3.138007  0  0  -0.625313  0  3.3628  0  0  -0.645657  0  3.367162  0  0  -0.598158  -0.610771  0  3.359477  0
