# generated using pymatgen
data_RbH3C7(NO3)2
_symmetry_space_group_name_H-M   'P 1'
_cell_length_a   7.27887571
_cell_length_b   7.44438660
_cell_length_c   10.27851706
_cell_angle_alpha   109.48408973
_cell_angle_beta   108.95804919
_cell_angle_gamma   94.60002844
_symmetry_Int_Tables_number   1
_chemical_formula_structural   RbH3C7(NO3)2
_chemical_formula_sum   'Rb2 H6 C14 N4 O12'
_cell_volume   485.35138191
_cell_formula_units_Z   2
loop_
 _symmetry_equiv_pos_site_id
 _symmetry_equiv_pos_as_xyz
  1  'x, y, z'
loop_
 _atom_site_type_symbol
 _atom_site_label
 _atom_site_symmetry_multiplicity
 _atom_site_fract_x
 _atom_site_fract_y
 _atom_site_fract_z
 _atom_site_occupancy
 _atom_site_hle17_bader_spin_density
 _atom_site_hle17_ddec_charge
 _atom_site_hle17_ddec_spin_density
 _atom_site_hle17_ddec_sum_bond_order
 _atom_site_hle17_magmom
 _atom_site_hse06_10hf_bader_spin_density
 _atom_site_hse06_10hf_ddec_charge
 _atom_site_hse06_10hf_ddec_spin_density
 _atom_site_hse06_10hf_ddec_sum_bond_order
 _atom_site_hse06_10hf_magmom
 _atom_site_hse06_bader_spin_density
 _atom_site_hse06_ddec_charge
 _atom_site_hse06_ddec_spin_density
 _atom_site_hse06_ddec_sum_bond_order
 _atom_site_hse06_magmom
 _atom_site_pbe_bader_spin_density
 _atom_site_pbe_cm5_charge
 _atom_site_pbe_ddec_charge
 _atom_site_pbe_ddec_spin_density
 _atom_site_pbe_ddec_sum_bond_order
 _atom_site_pbe_magmom
Rb  Rb0  1  0.20101123  0.95075050  0.90245560  1  0  0.914633  0  0.553402  0  0  0.85085  0  0.785997  0  0  0.87048  0  0.758601  0  0  0.839503  0.836521  0  0.805256  0
Rb  Rb1  1  0.79898931  0.04925672  0.09754522  1  0  0.914642  0  0.553414  0  0  0.850853  0  0.786015  0  0  0.870484  0  0.758618  0  0  0.8395  0.836521  0  0.805268  0
H  H2  1  0.31232268  0.56275880  0.12544711  1  0  0.153172  0  0.930915  0  0  0.153165  0  1.001013  0  0  0.158554  0  0.994795  0  0  0.138369  0.149197  0  1.005607  0
H  H3  1  0.68768289  0.43724420  0.87455095  1  0  0.153158  0  0.930894  0  0  0.153138  0  1.000972  0  0  0.158525  0  0.994762  0  0  0.138341  0.14917  0  1.005565  0
H  H4  1  0.78356982  0.65803136  0.54375115  1  0  0.137005  0  0.927908  0  0  0.142015  0  0.992357  0  0  0.147252  0  0.986963  0  0  0.126216  0.138216  0  0.996218  0
H  H5  1  0.25945933  0.88608306  0.54388292  1  0  0.138397  0  0.925747  0  0  0.143027  0  0.990526  0  0  0.148279  0  0.985091  0  0  0.126837  0.139241  0  0.994307  0
H  H6  1  0.21642930  0.34196857  0.45624854  1  0  0.137014  0  0.927909  0  0  0.14202  0  0.992354  0  0  0.147256  0  0.986962  0  0  0.126244  0.13822  0  0.996214  0
H  H7  1  0.74053523  0.11390806  0.45611064  1  0  0.138445  0  0.925765  0  0  0.143048  0  0.990565  0  0  0.148303  0  0.985134  0  0  0.126854  0.13926  0  0.994342  0
C  C8  1  0.37275570  0.62325890  0.24641553  1  0  -0.066085  0  3.602299  0  0  -0.107518  0  3.861936  0  0  -0.100946  0  3.874161  0  0  -0.036572  -0.111358  0  3.853633  0
C  C9  1  0.62724731  0.37673096  0.75358262  1  0  -0.06602  0  3.602543  0  0  -0.107426  0  3.862116  0  0  -0.100857  0  3.874344  0  0  -0.036544  -0.111265  0  3.853814  0
C  C10  1  0.55728758  0.60001248  0.32798407  1  0  0.084694  0  3.673124  0  0  0.074627  0  3.925184  0  0  0.06864  0  3.947269  0  0  0.089929  0.078039  0  3.910444  0
C  C11  1  0.26981227  0.72811230  0.32798752  1  0  0.082202  0  3.678227  0  0  0.074678  0  3.925757  0  0  0.068601  0  3.947945  0  0  0.089648  0.078131  0  3.910951  0
C  C12  1  0.44270801  0.39998444  0.67201892  1  0  0.084491  0  3.673206  0  0  0.074492  0  3.925114  0  0  0.068501  0  3.9472  0  0  0.08992  0.077904  0  3.910375  0
C  C13  1  0.73018132  0.27188167  0.67201332  1  0  0.082066  0  3.678456  0  0  0.074561  0  3.925968  0  0  0.068487  0  3.948155  0  0  0.089596  0.078009  0  3.911167  0
C  C14  1  0.63857806  0.67817750  0.48319802  1  0  -0.05969  0  3.63796  0  0  -0.101469  0  3.8956  0  0  -0.096594  0  3.911581  0  0  -0.050484  -0.104043  0  3.884622  0
C  C15  1  0.34370567  0.80518059  0.48320177  1  0  -0.059271  0  3.63808  0  0  -0.101036  0  3.894045  0  0  -0.096093  0  3.910005  0  0  -0.05003  -0.10363  0  3.883012  0
C  C16  1  0.36141584  0.32181066  0.51680343  1  0  -0.059599  0  3.638007  0  0  -0.101367  0  3.895588  0  0  -0.096491  0  3.911566  0  0  -0.050476  -0.10394  0  3.884605  0
C  C17  1  0.65628975  0.19480764  0.51679421  1  0  -0.059338  0  3.637948  0  0  -0.101094  0  3.893955  0  0  -0.09616  0  3.909923  0  0  -0.05001  -0.103683  0  3.882918  0
C  C18  1  0.53026337  0.78082073  0.56140912  1  0  -0.046701  0  3.708985  0  0  -0.021373  0  3.946559  0  0  -0.032714  0  3.971899  0  0  -0.008745  -0.014419  0  3.92964  0
C  C19  1  0.46973046  0.21917469  0.43859504  1  0  -0.046531  0  3.708984  0  0  -0.02125  0  3.946607  0  0  -0.032586  0  3.971938  0  0  -0.008787  -0.014297  0  3.929681  0
C  C20  1  0.61510966  0.86558772  0.73101588  1  0  0.637692  0  4.007468  0  0  0.592885  0  4.307231  0  0  0.625074  0  4.30339  0  0  0.167978  0.571172  0  4.308841  0
C  C21  1  0.38490088  0.13441103  0.26898523  1  0  0.637596  0  4.007736  0  0  0.592811  0  4.307467  0  0  0.624999  0  4.303631  0  0  0.167996  0.571097  0  4.309071  0
N  N22  1  0.66798093  0.48386398  0.24719239  1  0  0.475916  0  3.947728  0  0  0.530742  0  4.203785  0  0  0.552153  0  4.213139  0  0  0.042798  0.516427  0  4.197555  0
N  N23  1  0.07836311  0.76344421  0.24711851  1  0  0.475516  0  3.949209  0  0  0.530209  0  4.203389  0  0  0.551631  0  4.212759  0  0  0.043626  0.515873  0  4.197153  0
N  N24  1  0.33201878  0.51613888  0.75280523  1  0  0.476022  0  3.947493  0  0  0.530849  0  4.203523  0  0  0.552263  0  4.212872  0  0  0.042782  0.516534  0  4.197296  0
N  N25  1  0.92164264  0.23654431  0.75287023  1  0  0.475588  0  3.949232  0  0  0.53021  0  4.203431  0  0  0.551634  0  4.212797  0  0  0.043637  0.515878  0  4.197198  0
O  O26  1  0.78866543  0.84492752  0.79412615  1  0  -0.719016  0  1.952034  0  0  -0.67644  0  2.194081  0  0  -0.702415  0  2.187753  0  0  -0.480422  -0.657838  0  2.197704  0
O  O27  1  0.50483932  0.94938761  0.79427038  1  0  -0.719474  0  1.954933  0  0  -0.676877  0  2.197095  0  0  -0.70282  0  2.190725  0  0  -0.480782  -0.658337  0  2.200649  0
O  O28  1  0.21133003  0.15509118  0.20587821  1  0  -0.719191  0  1.951855  0  0  -0.676624  0  2.193897  0  0  -0.702604  0  2.187571  0  0  -0.480497  -0.65802  0  2.197516  0
O  O29  1  0.49515792  0.05062532  0.20573494  1  0  -0.719305  0  1.955512  0  0  -0.676705  0  2.197659  0  0  -0.702644  0  2.191293  0  0  -0.480701  -0.658171  0  2.201209  0
O  O30  1  0.83268837  0.46460939  0.32159376  1  0  -0.365724  0  1.759758  0  0  -0.359589  0  1.956946  0  0  -0.373295  0  1.953759  0  0  -0.150491  -0.350505  0  1.959278  0
O  O31  1  0.98817127  0.85749895  0.32147708  1  0  -0.363965  0  1.759195  0  0  -0.358152  0  1.956452  0  0  -0.371878  0  1.953337  0  0  -0.149825  -0.349056  0  1.958729  0
O  O32  1  0.16731601  0.53539502  0.67840533  1  0  -0.36569  0  1.759687  0  0  -0.359628  0  1.95693  0  0  -0.373337  0  1.953744  0  0  -0.150492  -0.350547  0  1.959268  0
O  O33  1  0.01183073  0.14250830  0.67852409  1  0  -0.363744  0  1.759584  0  0  -0.357905  0  1.956829  0  0  -0.371624  0  1.953711  0  0  -0.149645  -0.348811  0  1.959109  0
O  O34  1  0.59071538  0.40825838  0.10931128  1  0  -0.349585  0  1.769878  0  0  -0.344666  0  1.969137  0  0  -0.356768  0  1.964821  0  0  -0.128616  -0.336573  0  1.972201  0
O  O35  1  0.01770291  0.70088841  0.10923864  1  0  -0.349697  0  1.771304  0  0  -0.345055  0  1.970339  0  0  -0.357113  0  1.965917  0  0  -0.128944  -0.337043  0  1.973518  0
O  O36  1  0.40929442  0.59175922  0.89069326  1  0  -0.349712  0  1.7696  0  0  -0.344749  0  1.968836  0  0  -0.356848  0  1.964513  0  0  -0.128617  -0.336651  0  1.971897  0
O  O37  1  0.98230637  0.29911901  0.89076622  1  0  -0.34991  0  1.770989  0  0  -0.34526  0  1.970075  0  0  -0.357329  0  1.965656  0  0  -0.129095  -0.337224  0  1.973219  0
