# generated using pymatgen
data_Co2H24C27(NO2)4
_symmetry_space_group_name_H-M   'P 1'
_cell_length_a   10.98737302
_cell_length_b   18.25463832
_cell_length_c   18.74629426
_cell_angle_alpha   107.35085009
_cell_angle_beta   90.00004819
_cell_angle_gamma   89.99998340
_symmetry_Int_Tables_number   1
_chemical_formula_structural   Co2H24C27(NO2)4
_chemical_formula_sum   'Co8 H96 C108 N16 O32'
_cell_volume   3588.86294219
_cell_formula_units_Z   4
loop_
 _symmetry_equiv_pos_site_id
 _symmetry_equiv_pos_as_xyz
  1  'x, y, z'
loop_
 _atom_site_type_symbol
 _atom_site_label
 _atom_site_symmetry_multiplicity
 _atom_site_fract_x
 _atom_site_fract_y
 _atom_site_fract_z
 _atom_site_occupancy
 _atom_site_pbe_bader_charge
 _atom_site_pbe_bader_spin_density
 _atom_site_pbe_cm5_charge
 _atom_site_pbe_ddec_charge
 _atom_site_pbe_ddec_spin_density
 _atom_site_pbe_ddec_sum_bond_order
 _atom_site_pbe_magmom
Co  Co0  1  0.69855571  0.80445062  0.53853925  1  1.186505  2.60414  0.610645  0.772428  2.815444  2.743687  2.593
Co  Co1  1  0.19855572  0.69554720  0.96146117  1  1.18653  2.604141  0.610699  0.772505  2.81547  2.743645  2.593
Co  Co2  1  0.30144632  0.19554817  0.46145569  1  1.186647  2.604165  0.61074  0.772633  2.815463  2.743621  2.593
Co  Co3  1  0.80144539  0.30445614  0.03853833  1  1.186476  2.604134  0.610699  0.772573  2.815476  2.743465  2.593
Co  Co4  1  0.69948321  0.72525936  0.61443284  1  1.211688  2.616993  0.618197  0.781173  2.825412  2.722368  2.602
Co  Co5  1  0.19948307  0.77473903  0.88556776  1  1.211704  2.616981  0.61821  0.781239  2.825395  2.722106  2.602
Co  Co6  1  0.30051426  0.27474284  0.38556579  1  1.211553  2.616962  0.618153  0.781039  2.825368  2.722267  2.602
Co  Co7  1  0.80051622  0.22526146  0.11442929  1  1.211746  2.616996  0.618216  0.781158  2.825398  2.72227  2.602
H  H8  1  0.08368257  0.80585566  0.47759412  1  0.063364  0.000607  0.105858  0.11249  0.000323  0.994444  0.0
H  H9  1  0.58367258  0.69414072  0.02241198  1  0.063107  0.000608  0.105785  0.112418  0.000324  0.994412  0.0
H  H10  1  0.91632582  0.19414186  0.52241271  1  0.063133  0.000607  0.105808  0.112453  0.000323  0.994369  0.0
H  H11  1  0.41632125  0.30586088  0.97758861  1  0.063229  0.000608  0.10583  0.112449  0.000324  0.994353  0.0
H  H12  1  0.08693374  0.73022489  0.67391429  1  0.106982  0.000488  0.110438  0.115762  0.000252  1.019576  0.0
H  H13  1  0.58694053  0.76977002  0.82609001  1  0.107287  0.000488  0.110356  0.115667  0.000253  1.019464  0.0
H  H14  1  0.91306101  0.26976921  0.32608886  1  0.107259  0.000488  0.110377  0.115664  0.000253  1.019458  0.0
H  H15  1  0.41306878  0.23022986  0.17391059  1  0.107356  0.000488  0.110396  0.1157  0.000253  1.019337  0.0
H  H16  1  0.31251343  0.79588771  0.47133178  1  0.073943  0.000539  0.102573  0.105163  0.000278  1.009008  0.0
H  H17  1  0.81250708  0.70411263  0.02868149  1  0.076067  0.000538  0.102542  0.105162  0.000278  1.009101  0.0
H  H18  1  0.68749133  0.20411150  0.52867929  1  0.07649  0.000538  0.102545  0.105176  0.000278  1.009062  0.0
H  H19  1  0.18748857  0.29588950  0.97132459  1  0.076594  0.000538  0.102536  0.105122  0.000278  1.009144  0.0
H  H20  1  0.31229425  0.72015216  0.66753265  1  0.103748  0.000495  0.111487  0.118772  0.000281  1.003366  0.0
H  H21  1  0.81229831  0.77984553  0.83248059  1  0.104021  0.000495  0.11152  0.118878  0.000281  1.003443  0.0
H  H22  1  0.68770050  0.27984360  0.33247739  1  0.103989  0.000496  0.111537  0.11888  0.000281  1.003396  0.0
H  H23  1  0.18770645  0.22015773  0.16752689  1  0.103915  0.000495  0.111525  0.118863  0.000281  1.003381  0.0
H  H24  1  0.69070781  0.88795956  0.84369005  1  0.086942  0.000495  0.104419  0.103989  0.000245  1.048979  0.0
H  H25  1  0.19070651  0.61203763  0.65631498  1  0.086809  0.000495  0.104436  0.104088  0.000244  1.04888  0.0
H  H26  1  0.30928876  0.11203801  0.15631093  1  0.086806  0.000495  0.10443  0.104044  0.000245  1.048908  0.0
H  H27  1  0.80929369  0.38795417  0.34368748  1  0.086919  0.000495  0.104408  0.104018  0.000245  1.04896  0.0
H  H28  1  0.72601772  0.00170334  0.95586252  1  0.121955  0.000555  0.112882  0.122623  0.000322  0.981457  0.0
H  H29  1  0.22601517  0.49829364  0.54413965  1  0.122019  0.000555  0.112863  0.122663  0.000322  0.981487  0.0
H  H30  1  0.27397884  0.99829193  0.04413778  1  0.121965  0.000555  0.112848  0.122594  0.000322  0.981517  0.0
H  H31  1  0.77398230  0.50169759  0.45586211  1  0.121924  0.000555  0.112853  0.122547  0.000322  0.981609  0.0
H  H32  1  0.78756642  0.14258799  0.81247008  1  0.088558  0.000606  0.103358  0.107096  0.000325  1.008864  0.0
H  H33  1  0.28756778  0.35740614  0.68752967  1  0.088727  0.000606  0.103376  0.107165  0.000324  1.008795  0.0
H  H34  1  0.21243469  0.85740843  0.18753162  1  0.088774  0.000606  0.103382  0.107172  0.000325  1.00882  0.0
H  H35  1  0.71243242  0.64258622  0.31247509  1  0.088647  0.000606  0.10342  0.107227  0.000325  1.008735  0.0
H  H36  1  0.75491434  0.02799848  0.69981302  1  0.068898  0.000433  0.101365  0.100794  0.00024  1.019564  0.0
H  H37  1  0.25491308  0.47199333  0.80018922  1  0.069165  0.000433  0.10134  0.1008  0.00024  1.019663  0.0
H  H38  1  0.24509041  0.97199678  0.30018940  1  0.069085  0.000433  0.101362  0.100843  0.00024  1.019628  0.0
H  H39  1  0.74508258  0.52799962  0.19981412  1  0.068665  0.000433  0.101389  0.100831  0.00024  1.019539  0.0
H  H40  1  0.65019942  0.07057427  0.47608824  1  0.082783  0.000495  0.118465  0.119335  0.00021  1.037455  0.0
H  H41  1  0.15018504  0.42942656  0.02390893  1  0.082796  0.000495  0.11841  0.119299  0.00021  1.037474  0.0
H  H42  1  0.34981626  0.92942452  0.52390563  1  0.082745  0.000495  0.118508  0.119298  0.00021  1.037521  0.0
H  H43  1  0.84980970  0.57057681  0.97608791  1  0.082738  0.000495  0.118512  0.119347  0.00021  1.037488  0.0
H  H44  1  0.75142728  0.98656862  0.56415647  1  0.120962  0.000397  0.114879  0.110373  9.9e-05  1.018074  0.0
H  H45  1  0.25142189  0.51343151  0.93584254  1  0.121055  0.000397  0.114886  0.110376  9.9e-05  1.018113  0.0
H  H46  1  0.24857565  0.01342786  0.43583832  1  0.121072  0.000397  0.114859  0.110321  9.9e-05  1.018136  0.0
H  H47  1  0.74857559  0.48656955  0.06415521  1  0.121021  0.000397  0.11488  0.110401  9.9e-05  1.018074  0.0
H  H48  1  0.48704298  0.02838828  0.36986988  1  0.132731  0.000318  0.114019  0.106419  0.000124  0.992847  0.0
H  H49  1  0.98703391  0.47161197  0.13012728  1  0.133011  0.000317  0.114  0.106354  0.000124  0.992929  0.0
H  H50  1  0.51296633  0.97161049  0.63012666  1  0.132755  0.000317  0.114031  0.106412  0.000124  0.99291  0.0
H  H51  1  0.01296083  0.52839026  0.86986815  1  0.132592  0.000318  0.114033  0.10637  0.000124  0.992974  0.0
H  H52  1  0.47256429  0.92958009  0.32247169  1  0.072608  -8e-06  0.111474  0.086899  -3e-05  0.990555  0.0
H  H53  1  0.97255275  0.57041924  0.17752535  1  0.072483  -8e-06  0.111461  0.08689  -3e-05  0.990507  0.0
H  H54  1  0.52744775  0.07041755  0.67752237  1  0.072521  -8e-06  0.111464  0.08689  -3e-05  0.990516  0.0
H  H55  1  0.02743926  0.42958184  0.82247028  1  0.072527  -8e-06  0.111454  0.086894  -3e-05  0.990508  0.0
H  H56  1  0.67596864  0.92930943  0.26064580  1  0.037745  4e-05  0.09638  0.095056  1.3e-05  0.973257  0.0
H  H57  1  0.17595747  0.57069335  0.23935212  1  0.037724  4e-05  0.096352  0.095062  1.3e-05  0.973246  0.0
H  H58  1  0.32404522  0.07069395  0.73934998  1  0.037703  4e-05  0.09632  0.095019  1.3e-05  0.973231  0.0
H  H59  1  0.82403363  0.42930942  0.76064721  1  0.037838  4e-05  0.09638  0.095072  1.3e-05  0.973262  0.0
H  H60  1  0.57051574  0.99418525  0.24146775  1  0.039068  2.7e-05  0.10312  0.107168  -2e-06  0.987929  0.0
H  H61  1  0.07050645  0.50581694  0.25853154  1  0.037793  2.7e-05  0.103044  0.107109  -2e-06  0.987875  0.0
H  H62  1  0.42949356  0.00581753  0.75853052  1  0.037822  2.7e-05  0.103053  0.107108  -2e-06  0.987862  0.0
H  H63  1  0.92948192  0.49418698  0.74146707  1  0.039042  2.7e-05  0.103102  0.10714  -2e-06  0.987968  0.0
H  H64  1  0.66681112  0.09894356  0.35329795  1  0.078604  5.2e-05  0.105444  0.075177  -1.2e-05  1.029658  0.0
H  H65  1  0.16680421  0.40105725  0.14670083  1  0.078568  5.2e-05  0.105474  0.075263  -1.2e-05  1.029533  0.0
H  H66  1  0.33319363  0.90105750  0.64669980  1  0.078571  5.2e-05  0.105461  0.075212  -1.2e-05  1.029538  0.0
H  H67  1  0.83318689  0.59894377  0.85330012  1  0.078598  5.2e-05  0.10545  0.075184  -1.2e-05  1.029688  0.0
H  H68  1  0.78664142  0.03423841  0.35056977  1  0.05469  0.000159  0.114164  0.092648  6.3e-05  0.970311  0.0
H  H69  1  0.28663448  0.46576641  0.14943132  1  0.054784  0.000159  0.114172  0.092594  6.3e-05  0.970429  0.0
H  H70  1  0.21336607  0.96576722  0.64943148  1  0.054778  0.000159  0.114171  0.092597  6.3e-05  0.970414  0.0
H  H71  1  0.71335753  0.53423633  0.85057067  1  0.054655  0.000159  0.114123  0.092629  6.3e-05  0.970334  0.0
H  H72  1  0.00257760  0.12235126  0.16813358  1  0.124994  0.000343  0.11568  0.115883  9.8e-05  1.022188  0.0
H  H73  1  0.50257069  0.37765244  0.33186491  1  0.125095  0.000343  0.115677  0.115909  9.8e-05  1.022075  0.0
H  H74  1  0.99742898  0.87765267  0.83186503  1  0.12509  0.000343  0.11567  0.115873  9.7e-05  1.02216  0.0
H  H75  1  0.49742405  0.62235205  0.66813547  1  0.125046  0.000343  0.11566  0.115853  9.8e-05  1.022137  0.0
H  H76  1  0.96220562  0.03964582  0.26907067  1  0.084218  0.000462  0.118035  0.119824  0.000163  1.013488  0.0
H  H77  1  0.46219880  0.46035728  0.23092893  1  0.08419  0.000462  0.118003  0.119755  0.000163  1.013556  0.0
H  H78  1  0.03780278  0.96035750  0.73093042  1  0.084223  0.000462  0.117994  0.119761  0.000163  1.013569  0.0
H  H79  1  0.53779412  0.53964492  0.76906970  1  0.08419  0.000462  0.118046  0.119832  0.000163  1.013455  0.0
H  H80  1  0.55406345  0.14576761  0.27847564  1  0.0536  -1.9e-05  0.095395  0.140904  -0.00013  1.022114  0.0
H  H81  1  0.05405576  0.35423090  0.22152399  1  0.053546  -1.9e-05  0.095419  0.140941  -0.000131  1.022078  0.0
H  H82  1  0.44594403  0.85423171  0.72152372  1  0.053547  -1.9e-05  0.095417  0.140929  -0.000131  1.022103  0.0
H  H83  1  0.94593716  0.64576609  0.77847842  1  0.053618  -1.9e-05  0.095384  0.140861  -0.00013  1.022214  0.0
H  H84  1  0.54144072  0.09062174  0.18316389  1  0.047577  7.3e-05  0.096763  0.141346  1.1e-05  0.997026  0.0
H  H85  1  0.04144316  0.40938371  0.31683194  1  0.04746  7.3e-05  0.09678  0.141358  1.1e-05  0.997004  0.0
H  H86  1  0.45855675  0.90938337  0.81683187  1  0.047474  7.3e-05  0.096777  0.141358  1.1e-05  0.997007  0.0
H  H87  1  0.95855705  0.59062138  0.68316541  1  0.047608  7.3e-05  0.09677  0.141357  1.1e-05  0.996935  0.0
H  H88  1  0.57772328  0.18917974  0.20628936  1  0.110992  4.5e-05  0.107074  0.17113  4.6e-05  1.024181  0.0
H  H89  1  0.07771207  0.31082561  0.29371713  1  0.110944  4.5e-05  0.107091  0.171106  4.6e-05  1.024136  0.0
H  H90  1  0.42228876  0.81082355  0.79371600  1  0.111291  4.5e-05  0.107081  0.171109  4.6e-05  1.024165  0.0
H  H91  1  0.92227630  0.68917936  0.70629299  1  0.110992  4.5e-05  0.10709  0.171076  4.6e-05  1.024197  0.0
H  H92  1  0.61005213  0.80217953  0.30724144  1  0.048793  0.000168  0.096187  0.135345  6.1e-05  0.988685  0.0
H  H93  1  0.11004265  0.69782555  0.19275713  1  0.048939  0.000168  0.096205  0.135312  6.1e-05  0.988545  0.0
H  H94  1  0.38995445  0.19782153  0.69275525  1  0.048956  0.000168  0.096185  0.135293  6.1e-05  0.988492  0.0
H  H95  1  0.88995027  0.30217900  0.80723686  1  0.048645  0.000168  0.096186  0.135347  6.1e-05  0.988668  0.0
H  H96  1  0.46838044  0.81762258  0.35491613  1  0.047667  9.8e-05  0.095791  0.133378  3.4e-05  0.994803  0.0
H  H97  1  0.96837245  0.68237678  0.14507771  1  0.047792  9.8e-05  0.095765  0.133321  3.4e-05  0.994726  0.0
H  H98  1  0.53162431  0.18237449  0.64507670  1  0.047855  9.8e-05  0.095781  0.13332  3.4e-05  0.994769  0.0
H  H99  1  0.03162047  0.31762376  0.85491349  1  0.047719  9.8e-05  0.095787  0.13337  3.4e-05  0.994779  0.0
H  H100  1  0.58594452  0.76552210  0.38417321  1  0.130755  -2.6e-05  0.107549  0.171859  -4.4e-05  1.01995  0.0
H  H101  1  0.08593583  0.73447784  0.11582115  1  0.130455  -2.6e-05  0.107482  0.171805  -4.4e-05  1.019945  0.0
H  H102  1  0.41406023  0.23447554  0.61582032  1  0.13045  -2.6e-05  0.107541  0.171838  -4.4e-05  1.019881  0.0
H  H103  1  0.91405619  0.26552444  0.88416950  1  0.130705  -2.6e-05  0.107487  0.171772  -4.4e-05  1.020054  0.0
C  C104  1  0.70194606  0.88310397  0.69832882  1  1.507526  -0.0109  0.212029  0.554074  -0.015234  4.182635  -0.01
C  C105  1  0.20194588  0.61688920  0.80167609  1  1.507801  -0.010903  0.212171  0.554479  -0.015236  4.182472  -0.01
C  C106  1  0.29804959  0.11689651  0.30166930  1  1.50753  -0.010903  0.211999  0.554051  -0.015237  4.182673  -0.01
C  C107  1  0.79805068  0.38310492  0.19832546  1  1.507285  -0.010905  0.21214  0.554172  -0.015239  4.182609  -0.01
C  C108  1  0.93642243  0.77214129  0.57812813  1  1.502055  -0.011286  0.214449  0.560938  -0.015733  4.176162  -0.01
C  C109  1  0.43642328  0.72785304  0.92187563  1  1.502591  -0.011287  0.214457  0.560902  -0.015734  4.176378  -0.01
C  C110  1  0.06357687  0.22785974  0.42187334  1  1.502236  -0.011288  0.214541  0.5611  -0.015736  4.175887  -0.01
C  C111  1  0.56357510  0.27214745  0.07812142  1  1.502518  -0.011288  0.214549  0.561107  -0.015735  4.176204  -0.01
C  C112  1  0.07188183  0.76809245  0.57555879  1  0.007128  0.006489  -0.01181  -0.020359  0.003441  3.965051  0.006
C  C113  1  0.57188514  0.73190302  0.92444727  1  0.005694  0.006492  -0.011707  -0.020242  0.003442  3.965353  0.006
C  C114  1  0.92811655  0.23190451  0.42444681  1  0.005666  0.006492  -0.011797  -0.020382  0.003442  3.965279  0.006
C  C115  1  0.42811597  0.26809916  0.07555348  1  0.005576  0.006491  -0.011796  -0.02037  0.003441  3.965384  0.006
C  C116  1  0.13534646  0.78704507  0.51855044  1  -0.033906  -0.000225  -0.085087  -0.098983  -0.000805  3.984329  0.0
C  C117  1  0.63534258  0.71295211  0.98145617  1  -0.032495  -0.000225  -0.084932  -0.098813  -0.000805  3.984537  0.0
C  C118  1  0.86465739  0.21295245  0.48145586  1  -0.032683  -0.000226  -0.084942  -0.098838  -0.000806  3.984478  0.0
C  C119  1  0.36465399  0.28705005  0.01854619  1  -0.032558  -0.000226  -0.084978  -0.098848  -0.000806  3.984506  0.0
C  C120  1  0.13589718  0.74356092  0.62892795  1  -0.033175  -0.000676  -0.077706  -0.088169  -0.001246  3.950114  0.0
C  C121  1  0.63590040  0.75643511  0.87107885  1  -0.033322  -0.000676  -0.077745  -0.088176  -0.001246  3.95015  0.0
C  C122  1  0.86410029  0.25643660  0.37107942  1  -0.033231  -0.000676  -0.077711  -0.08811  -0.001246  3.950006  0.0
C  C123  1  0.36410345  0.24356362  0.12892088  1  -0.033071  -0.000676  -0.077808  -0.088291  -0.001246  3.949945  0.0
C  C124  1  0.46113775  0.75783409  0.56952029  1  1.473788  -0.012681  0.210197  0.550679  -0.017629  4.197309  -0.011
C  C125  1  0.96113742  0.74216479  0.93048858  1  1.473759  -0.012678  0.210111  0.550733  -0.017626  4.197485  -0.011
C  C126  1  0.53886427  0.24217095  0.43048238  1  1.473508  -0.012677  0.210245  0.550917  -0.017626  4.197299  -0.011
C  C127  1  0.03886278  0.25783792  0.06951713  1  1.473807  -0.01268  0.210145  0.550678  -0.017626  4.197503  -0.011
C  C128  1  0.32565041  0.75765389  0.56909520  1  0.038034  0.006378  -0.01685  -0.031295  0.003408  3.987639  0.006
C  C129  1  0.82564917  0.74234555  0.93091538  1  0.037698  0.006379  -0.01687  -0.031418  0.003409  3.987298  0.006
C  C130  1  0.67435071  0.24234419  0.43091287  1  0.038075  0.006378  -0.016958  -0.031583  0.003408  3.987445  0.006
C  C131  1  0.17435013  0.25765946  0.06909049  1  0.037577  0.006377  -0.016859  -0.031393  0.003408  3.98737  0.006
C  C132  1  0.26150127  0.78164030  0.51524542  1  -0.036849  -0.000543  -0.089778  -0.111576  -0.0011  4.007571  0.0
C  C133  1  0.76149739  0.71835686  0.98476391  1  -0.038558  -0.000542  -0.089762  -0.111531  -0.0011  4.007401  0.0
C  C134  1  0.73850166  0.21835721  0.48476195  1  -0.039494  -0.000542  -0.089732  -0.111496  -0.0011  4.007439  0.0
C  C135  1  0.23850008  0.28164586  0.01524074  1  -0.039191  -0.000542  -0.089744  -0.111497  -0.0011  4.007482  0.0
C  C136  1  0.26200012  0.73811555  0.62559534  1  -0.044161  -0.000572  -0.079941  -0.095592  -0.001186  3.958023  0.0
C  C137  1  0.76200061  0.76188333  0.87441450  1  -0.044478  -0.000571  -0.079921  -0.09573  -0.001186  3.957943  0.0
C  C138  1  0.73799918  0.26188252  0.37441433  1  -0.044286  -0.000571  -0.079927  -0.09569  -0.001185  3.957843  0.0
C  C139  1  0.23800142  0.23811997  0.12558979  1  -0.044372  -0.000571  -0.079919  -0.09562  -0.001186  3.957794  0.0
C  C140  1  0.72056383  0.95120676  0.76513538  1  -0.074416  0.005906  -0.015893  -0.028138  0.003023  3.973126  0.005
C  C141  1  0.22055357  0.54878986  0.73486950  1  -0.074134  0.005905  -0.015984  -0.028374  0.003021  3.973136  0.005
C  C142  1  0.27944457  0.04879253  0.23486718  1  -0.07417  0.005904  -0.01596  -0.028249  0.003021  3.973117  0.005
C  C143  1  0.77943571  0.45120365  0.26513454  1  -0.07444  0.005905  -0.015965  -0.028245  0.003022  3.973018  0.005
C  C144  1  0.71235537  0.94374001  0.83726591  1  -0.050754  -0.000604  -0.081615  -0.096591  -0.001175  3.974731  0.0
C  C145  1  0.21234773  0.55625605  0.66273720  1  -0.050507  -0.000605  -0.08163  -0.096704  -0.001176  3.974579  0.0
C  C146  1  0.28764939  0.05625699  0.16273490  1  -0.050826  -0.000605  -0.081623  -0.096621  -0.001175  3.974704  0.0
C  C147  1  0.78764519  0.44373634  0.33726384  1  -0.050776  -0.000605  -0.0816  -0.096648  -0.001175  3.974715  0.0
C  C148  1  0.73164141  0.00682509  0.89953366  1  -0.052582  -0.001041  -0.075919  -0.084621  -0.001616  3.946398  0.0
C  C149  1  0.23163439  0.49317305  0.60046833  1  -0.052798  -0.00104  -0.075839  -0.084598  -0.001615  3.946447  0.0
C  C150  1  0.26836243  0.99317422  0.10046677  1  -0.052589  -0.001041  -0.075874  -0.084614  -0.001616  3.946442  0.0
C  C151  1  0.76835671  0.50681818  0.39953343  1  -0.05269  -0.001041  -0.075879  -0.084477  -0.001616  3.946379  0.0
C  C152  1  0.75882532  0.07854839  0.89046234  1  0.038477  0.006924  -0.011561  -0.01816  0.003687  3.965671  0.006
C  C153  1  0.25881926  0.42144978  0.60953594  1  0.038291  0.006924  -0.011651  -0.01823  0.003686  3.965574  0.006
C  C154  1  0.24117944  0.92144979  0.10953509  1  0.038788  0.006922  -0.011515  -0.018007  0.003686  3.96553  0.006
C  C155  1  0.74117003  0.57854433  0.39046561  1  0.038641  0.006922  -0.01155  -0.018217  0.003686  3.965464  0.006
C  C156  1  0.77853980  0.14620540  0.95749222  1  1.526269  -0.012176  0.21458  0.562947  -0.016724  4.171064  -0.011
C  C157  1  0.27853822  0.35379684  0.54250248  1  1.526239  -0.01218  0.214545  0.562831  -0.016725  4.170935  -0.011
C  C158  1  0.22146223  0.85379334  0.04250698  1  1.52629  -0.012177  0.214558  0.562959  -0.016726  4.170952  -0.011
C  C159  1  0.72145743  0.64620020  0.45749461  1  1.526833  -0.01218  0.214618  0.562966  -0.016726  4.170746  -0.011
C  C160  1  0.76659873  0.08634148  0.81839079  1  -0.045695  -0.000806  -0.087141  -0.104113  -0.00137  3.992412  0.0
C  C161  1  0.26659551  0.41365439  0.68160787  1  -0.045841  -0.000806  -0.087105  -0.104137  -0.00137  3.992297  0.0
C  C162  1  0.23340511  0.91365554  0.18160789  1  -0.046167  -0.000806  -0.087194  -0.104315  -0.001371  3.992403  0.0
C  C163  1  0.73339741  0.58633971  0.31839474  1  -0.046089  -0.000806  -0.087205  -0.104235  -0.00137  3.992192  0.0
C  C164  1  0.74797824  0.02305144  0.75616788  1  -0.024804  -0.000637  -0.090027  -0.108432  -0.001121  4.003406  0.0
C  C165  1  0.24796870  0.47694382  0.74383432  1  -0.025267  -0.000638  -0.090024  -0.108453  -0.001122  4.003504  0.0
C  C166  1  0.25203016  0.97694613  0.24383363  1  -0.02503  -0.000638  -0.090025  -0.108471  -0.001122  4.003345  0.0
C  C167  1  0.75201967  0.52305086  0.25616900  1  -0.024363  -0.000637  -0.09004  -0.108427  -0.001121  4.003225  0.0
C  C168  1  0.61557762  0.88530068  0.41628274  1  0.978421  0.002782  0.21517  0.332701  0.001488  3.932509  0.002
C  C169  1  0.11557440  0.61470036  0.08371623  1  0.978274  0.002782  0.215129  0.332706  0.001488  3.932487  0.002
C  C170  1  0.38442531  0.11469751  0.58371309  1  0.978324  0.002781  0.215257  0.332877  0.001488  3.932509  0.002
C  C171  1  0.88442307  0.38530187  0.91627920  1  0.978007  0.00278  0.215141  0.332787  0.001488  3.932642  0.002
C  C172  1  0.65394191  0.00948110  0.46901641  1  0.285511  0.002558  -0.011625  -0.126729  0.0013  3.978682  0.002
C  C173  1  0.15392842  0.49051971  0.03098236  1  0.288977  0.002557  -0.011644  -0.126738  0.0013  3.978612  0.002
C  C174  1  0.34607286  0.99051767  0.53097959  1  0.289069  0.002556  -0.011676  -0.126517  0.001299  3.978757  0.002
C  C175  1  0.84606541  0.50948365  0.96901502  1  0.28908  0.002557  -0.011696  -0.126673  0.0013  3.978697  0.002
C  C176  1  0.70248197  0.96742524  0.51171419  1  0.427703  0.000168  -0.010007  -0.035748  -0.000568  4.052731  0.0
C  C177  1  0.20247573  0.53257604  0.98828513  1  0.427827  0.000168  -0.009933  -0.035585  -0.000568  4.052615  0.0
C  C178  1  0.29752369  0.03257239  0.48828094  1  0.428118  0.000168  -0.009981  -0.035703  -0.000568  4.052719  0.0
C  C179  1  0.79752083  0.46742732  0.01171224  1  0.427673  0.000169  -0.009973  -0.035747  -0.000567  4.052718  0.0
C  C180  1  0.53895323  0.97508744  0.34662330  1  0.255274  0.000774  -0.050692  -0.059933  0.000438  3.888795  0.001
C  C181  1  0.03894287  0.52491363  0.15337404  1  0.254824  0.000775  -0.050587  -0.059681  0.000438  3.888644  0.001
C  C182  1  0.46105790  0.02491192  0.65337181  1  0.254867  0.000774  -0.050619  -0.059732  0.000438  3.888604  0.001
C  C183  1  0.96105187  0.47508974  0.84662280  1  0.25533  0.000774  -0.050624  -0.05975  0.000438  3.888585  0.001
C  C184  1  0.62647638  0.98326450  0.28584445  1  -0.01929  0.000126  -0.158225  -0.192675  5.9e-05  3.922863  0.0
C  C185  1  0.12646338  0.51673771  0.21415327  1  -0.017977  0.000126  -0.158139  -0.192663  5.9e-05  3.922747  0.0
C  C186  1  0.37353748  0.01673714  0.71415188  1  -0.017756  0.000126  -0.158126  -0.192583  5.9e-05  3.922703  0.0
C  C187  1  0.87352499  0.48326508  0.78584446  1  -0.019352  0.000126  -0.15822  -0.192685  5.9e-05  3.922869  0.0
C  C188  1  0.71584467  0.04959266  0.31633795  1  0.309461  0.000501  -0.052198  -0.051501  0.000294  3.895428  0.0
C  C189  1  0.21583597  0.45040988  0.18366084  1  0.309275  0.000502  -0.052239  -0.051529  0.000295  3.895374  0.0
C  C190  1  0.28416373  0.95041069  0.68366102  1  0.309091  0.000501  -0.052189  -0.051477  0.000294  3.89534  0.0
C  C191  1  0.78415423  0.54959231  0.81633939  1  0.309549  0.000502  -0.052163  -0.051519  0.000295  3.895496  0.0
C  C192  1  0.72473205  0.12007231  0.22021486  1  0.939209  0.002119  0.217295  0.338239  0.001075  3.935441  0.002
C  C193  1  0.22472535  0.37992735  0.27978414  1  0.938935  0.00212  0.217316  0.33836  0.001076  3.935634  0.002
C  C194  1  0.27527452  0.87992701  0.77978398  1  0.938937  0.00212  0.217357  0.338416  0.001075  3.93571  0.002
C  C195  1  0.77527122  0.62007138  0.72021665  1  0.939152  0.002119  0.217313  0.33828  0.001076  3.93546  0.002
C  C196  1  0.91896773  0.11206926  0.19422638  1  0.384899  0.000383  -0.006045  -0.025803  -0.000335  4.02819  0.001
C  C197  1  0.41896197  0.38793384  0.30577321  1  0.384889  0.000382  -0.005986  -0.025757  -0.000335  4.028113  0.001
C  C198  1  0.08103703  0.88793465  0.80577436  1  0.384888  0.000383  -0.00599  -0.025692  -0.000335  4.028008  0.001
C  C199  1  0.58103369  0.61206719  0.69422774  1  0.384902  0.000383  -0.00599  -0.025731  -0.000335  4.028054  0.001
C  C200  1  0.90036642  0.07072675  0.24353784  1  0.3328  0.002354  -0.014597  -0.136184  0.001173  3.995308  0.002
C  C201  1  0.40036148  0.42927806  0.25646385  1  0.332878  0.002354  -0.014539  -0.136009  0.001174  3.995387  0.002
C  C202  1  0.09964106  0.92927886  0.75646501  1  0.332902  0.002353  -0.014518  -0.136066  0.001173  3.995308  0.002
C  C203  1  0.59963509  0.57072584  0.74353796  1  0.332787  0.002354  -0.014602  -0.136188  0.001173  3.995336  0.002
C  C204  1  0.59266591  0.13725244  0.22263878  1  -0.039829  0.000287  -0.237118  -0.475688  2.2e-05  3.947052  0.0
C  C205  1  0.09266375  0.36274895  0.27736013  1  -0.039514  0.000287  -0.237127  -0.475701  2.2e-05  3.947054  0.0
C  C206  1  0.40733612  0.86274803  0.77736039  1  -0.039846  0.000287  -0.237102  -0.475698  2.2e-05  3.947095  0.0
C  C207  1  0.90733554  0.63725206  0.72264241  1  -0.039942  0.000287  -0.237067  -0.475535  2.2e-05  3.946998  0.0
C  C208  1  0.56729308  0.81390416  0.36265496  1  -0.087482  0.000167  -0.229734  -0.462136  -2.5e-05  3.966794  0.0
C  C209  1  0.06728535  0.68609749  0.13734150  1  -0.08749  0.000167  -0.229678  -0.461982  -2.5e-05  3.96642  0.0
C  C210  1  0.43271258  0.18609520  0.63734015  1  -0.087469  0.000167  -0.229734  -0.461998  -2.5e-05  3.966375  0.0
C  C211  1  0.93270757  0.31390592  0.86265108  1  -0.087361  0.000167  -0.229673  -0.46208  -2.5e-05  3.966819  0.0
N  N212  1  0.67782002  0.89055714  0.47888229  1  -1.193307  0.039169  -0.342859  -0.32316  0.023249  3.410431  0.029
N  N213  1  0.17781580  0.60944447  0.02111795  1  -1.193156  0.039177  -0.342842  -0.323271  0.023255  3.410589  0.029
N  N214  1  0.32218473  0.10944163  0.52111478  1  -1.19373  0.039164  -0.342836  -0.32324  0.023247  3.410496  0.029
N  N215  1  0.82218258  0.39055889  0.97887889  1  -1.19316  0.039173  -0.342831  -0.323137  0.023251  3.410403  0.029
N  N216  1  0.59960745  0.95686948  0.40847654  1  -1.22641  0.00271  -0.248545  -0.024722  0.001126  3.739992  0.002
N  N217  1  0.09959608  0.54313101  0.09152066  1  -1.229761  0.002712  -0.248602  -0.024889  0.001126  3.740164  0.002
N  N218  1  0.40040368  0.04312873  0.59151823  1  -1.229599  0.002711  -0.248733  -0.02521  0.001125  3.740527  0.002
N  N219  1  0.90039866  0.45687122  0.90847478  1  -1.229539  0.002712  -0.248618  -0.025006  0.001126  3.740257  0.002
N  N220  1  0.77703577  0.07581900  0.25944965  1  -1.228805  0.002283  -0.248733  -0.024551  0.000926  3.736864  0.002
N  N221  1  0.27702989  0.42418353  0.24054970  1  -1.2288  0.002283  -0.248787  -0.024738  0.000926  3.736827  0.002
N  N222  1  0.22297081  0.92418434  0.74054985  1  -1.228825  0.002283  -0.248837  -0.024696  0.000926  3.736758  0.002
N  N223  1  0.72296485  0.57581865  0.75945106  1  -1.228909  0.002283  -0.24879  -0.024587  0.000926  3.736817  0.002
N  N224  1  0.80963312  0.14281880  0.18029818  1  -1.17675  0.038589  -0.339533  -0.325314  0.022922  3.385839  0.029
N  N225  1  0.30963012  0.35718259  0.31969977  1  -1.176645  0.038601  -0.339615  -0.325447  0.022928  3.386266  0.029
N  N226  1  0.19037164  0.85718225  0.81970010  1  -1.176671  0.03859  -0.339621  -0.325551  0.022922  3.386171  0.029
N  N227  1  0.69036827  0.64281844  0.68030118  1  -1.176596  0.038599  -0.339573  -0.325376  0.022926  3.385909  0.029
O  O228  1  0.69569884  0.89464675  0.63443713  1  -1.137403  0.079022  -0.302757  -0.534149  0.040692  2.40634  0.072
O  O229  1  0.19569512  0.60534928  0.86556916  1  -1.137441  0.07903  -0.302749  -0.534219  0.040695  2.406526  0.072
O  O230  1  0.30430501  0.10535601  0.36556273  1  -1.137353  0.079035  -0.302721  -0.534165  0.040699  2.406415  0.072
O  O231  1  0.80430145  0.39465114  0.13443533  1  -1.137211  0.079027  -0.302789  -0.534215  0.040696  2.406432  0.072
O  O232  1  0.69367295  0.81697911  0.70795380  1  -1.123392  0.088049  -0.297221  -0.504944  0.045857  2.354434  0.078
O  O233  1  0.19366908  0.68301408  0.79205004  1  -1.123683  0.08805  -0.297325  -0.505112  0.045855  2.354169  0.078
O  O234  1  0.30632362  0.18302024  0.29204238  1  -1.123509  0.088039  -0.297169  -0.504786  0.045851  2.35428  0.078
O  O235  1  0.80632111  0.31697891  0.20794904  1  -1.123397  0.088048  -0.297276  -0.504929  0.045856  2.354423  0.078
O  O236  1  0.88167143  0.73617313  0.61757568  1  -1.134292  0.087247  -0.296253  -0.51102  0.044939  2.413617  0.078
O  O237  1  0.38167312  0.76382235  0.88242841  1  -1.134483  0.08725  -0.296239  -0.511053  0.04494  2.413847  0.078
O  O238  1  0.11832240  0.26383134  0.38242630  1  -1.134143  0.087247  -0.296329  -0.511076  0.04494  2.413565  0.078
O  O239  1  0.61832981  0.23617644  0.11756600  1  -1.134333  0.087258  -0.296285  -0.51112  0.044946  2.413843  0.078
O  O240  1  0.88177330  0.80968931  0.54021096  1  -1.114589  0.092552  -0.304855  -0.50826  0.048267  2.337112  0.082
O  O241  1  0.38176876  0.69030675  0.95979224  1  -1.114902  0.092557  -0.304913  -0.508243  0.04827  2.337086  0.082
O  O242  1  0.11823510  0.19031231  0.45978803  1  -1.114561  0.092557  -0.304916  -0.508379  0.04827  2.336956  0.082
O  O243  1  0.61822962  0.30969489  0.04020569  1  -1.114985  0.092555  -0.30492  -0.508329  0.048269  2.337057  0.082
O  O244  1  0.51643490  0.72044303  0.60726773  1  -1.130239  0.086609  -0.293605  -0.502735  0.044754  2.389651  0.078
O  O245  1  0.01643113  0.77955473  0.89274006  1  -1.130178  0.086609  -0.293511  -0.502752  0.044752  2.389591  0.078
O  O246  1  0.48357349  0.27956145  0.39273371  1  -1.130306  0.086594  -0.293508  -0.502696  0.044746  2.389524  0.078
O  O247  1  0.98356907  0.22044686  0.10726319  1  -1.130255  0.086606  -0.293522  -0.502674  0.044751  2.389609  0.078
O  O248  1  0.51505142  0.79829373  0.53399293  1  -1.140976  0.087222  -0.306426  -0.527072  0.045204  2.388521  0.078
O  O249  1  0.01505417  0.70170577  0.96601271  1  -1.14099  0.087218  -0.306497  -0.527151  0.045204  2.388694  0.078
O  O250  1  0.48494241  0.20171020  0.46600515  1  -1.140642  0.087231  -0.306606  -0.527337  0.045209  2.388706  0.078
O  O251  1  0.98494694  0.29829696  0.03399141  1  -1.14098  0.087218  -0.306479  -0.527121  0.045204  2.388642  0.078
O  O252  1  0.78888347  0.21229208  0.94745575  1  -1.125237  0.092545  -0.303954  -0.51908  0.048332  2.380349  0.082
O  O253  1  0.28888467  0.28770732  0.55253384  1  -1.125181  0.092556  -0.303932  -0.519045  0.048339  2.380337  0.082
O  O254  1  0.21111674  0.78770494  0.05254293  1  -1.125317  0.092553  -0.303971  -0.519121  0.048338  2.380294  0.082
O  O255  1  0.71111099  0.71228803  0.44745848  1  -1.125448  0.092548  -0.304011  -0.51914  0.048336  2.380192  0.082
O  O256  1  0.78313440  0.13487539  0.02119004  1  -1.112548  0.090252  -0.297061  -0.505189  0.04636  2.353634  0.082
O  O257  1  0.28312799  0.36513234  0.47880766  1  -1.11256  0.090249  -0.296989  -0.505015  0.046357  2.353676  0.082
O  O258  1  0.21687126  0.86512564  0.97881091  1  -1.11254  0.090241  -0.297051  -0.505155  0.046353  2.353516  0.082
O  O259  1  0.71686675  0.63486928  0.52119239  1  -1.1127  0.090247  -0.297065  -0.505134  0.046358  2.353494  0.082
