# generated using pymatgen
data_CdH13C21N4ClO2
_symmetry_space_group_name_H-M   'P 1'
_cell_length_a   9.99950666
_cell_length_b   10.45706811
_cell_length_c   10.83351595
_cell_angle_alpha   88.86455185
_cell_angle_beta   62.38431268
_cell_angle_gamma   72.33645974
_symmetry_Int_Tables_number   1
_chemical_formula_structural   CdH13C21N4ClO2
_chemical_formula_sum   'Cd2 H26 C42 N8 Cl2 O4'
_cell_volume   946.59033303
_cell_formula_units_Z   2
loop_
 _symmetry_equiv_pos_site_id
 _symmetry_equiv_pos_as_xyz
  1  'x, y, z'
loop_
 _atom_site_type_symbol
 _atom_site_label
 _atom_site_symmetry_multiplicity
 _atom_site_fract_x
 _atom_site_fract_y
 _atom_site_fract_z
 _atom_site_occupancy
 _atom_site_hle17_bader_spin_density
 _atom_site_hle17_ddec_charge
 _atom_site_hle17_ddec_spin_density
 _atom_site_hle17_ddec_sum_bond_order
 _atom_site_hle17_magmom
 _atom_site_hse06_10hf_bader_spin_density
 _atom_site_hse06_10hf_ddec_charge
 _atom_site_hse06_10hf_ddec_spin_density
 _atom_site_hse06_10hf_ddec_sum_bond_order
 _atom_site_hse06_10hf_magmom
 _atom_site_hse06_bader_spin_density
 _atom_site_hse06_ddec_charge
 _atom_site_hse06_ddec_spin_density
 _atom_site_hse06_ddec_sum_bond_order
 _atom_site_hse06_magmom
 _atom_site_pbe_bader_spin_density
 _atom_site_pbe_cm5_charge
 _atom_site_pbe_ddec_charge
 _atom_site_pbe_ddec_spin_density
 _atom_site_pbe_ddec_sum_bond_order
 _atom_site_pbe_magmom
Cd  Cd0  1  0.55499176  0.61914282  0.06824487  1  0  0.984865  0  1.886207  0  0  0.798933  0  2.352621  0  0  0.851107  0  2.307344  0  0  0.673005  0.762351  0  2.38177  0
Cd  Cd1  1  0.44500747  0.38085837  0.93175536  1  0  0.984857  0  1.886183  0  0  0.798929  0  2.352589  0  0  0.851104  0  2.307311  0  0  0.672998  0.762349  0  2.38174  0
H  H2  1  0.33182246  0.78377335  0.93077301  1  0  0.079329  0  0.945619  0  0  0.087563  0  1.011826  0  0  0.090034  0  1.009339  0  0  0.113056  0.085565  0  1.013539  0
H  H3  1  0.66817716  0.21622681  0.06922523  1  0  0.079312  0  0.945716  0  0  0.087592  0  1.011875  0  0  0.090062  0  1.009388  0  0  0.113057  0.085594  0  1.013591  0
H  H4  1  0.32349534  0.96531163  0.77532587  1  0  0.10446  0  0.947663  0  0  0.11295  0  1.011255  0  0  0.116623  0  1.00937  0  0  0.108521  0.11166  0  1.010897  0
H  H5  1  0.67650693  0.03468749  0.22467127  1  0  0.104456  0  0.947686  0  0  0.112966  0  1.011251  0  0  0.116615  0  1.00939  0  0  0.108515  0.111674  0  1.010892  0
H  H6  1  0.53655680  0.07481639  0.69116914  1  0  0.116291  0  0.935996  0  0  0.128896  0  0.991277  0  0  0.132251  0  0.988661  0  0  0.112464  0.12633  0  0.993344  0
H  H7  1  0.46344395  0.92518377  0.30883047  1  0  0.116286  0  0.93593  0  0  0.1289  0  0.991205  0  0  0.132257  0  0.988586  0  0  0.112453  0.126334  0  0.993272  0
H  H8  1  0.84197711  0.58981718  0.14071183  1  0  0.082527  0  0.92977  0  0  0.092455  0  0.989306  0  0  0.094918  0  0.98795  0  0  0.116804  0.090453  0  0.991084  0
H  H9  1  0.15802099  0.41018402  0.85928981  1  0  0.082518  0  0.929827  0  0  0.092448  0  0.989359  0  0  0.094911  0  0.988002  0  0  0.11679  0.090446  0  0.99114  0
H  H10  1  0.07301560  0.67597326  0.07231829  1  0  0.11206  0  0.992939  0  0  0.118356  0  1.058401  0  0  0.121832  0  1.057269  0  0  0.093535  0.115844  0  1.059511  0
H  H11  1  0.92698250  0.32402795  0.92768428  1  0  0.112067  0  0.992933  0  0  0.11837  0  1.05839  0  0  0.121846  0  1.057258  0  0  0.093558  0.115859  0  1.059501  0
H  H12  1  0.10940451  0.84660314  0.90248421  1  0  0.102768  0  0.938337  0  0  0.115484  0  0.996287  0  0  0.118281  0  0.994007  0  0  0.112535  0.114365  0  0.996661  0
H  H13  1  0.89059510  0.15339704  0.09751773  1  0  0.102716  0  0.938327  0  0  0.115425  0  0.996296  0  0  0.118223  0  0.994015  0  0  0.112522  0.114308  0  0.99667  0
H  H14  1  0.22590750  0.13761502  0.65062899  1  0  0.090075  0  0.964722  0  0  0.099944  0  1.029055  0  0  0.103059  0  1.027295  0  0  0.098087  0.097671  0  1.030436  0
H  H15  1  0.77409514  0.86238612  0.34936979  1  0  0.090112  0  0.964724  0  0  0.099965  0  1.029073  0  0  0.103092  0  1.027299  0  0  0.098089  0.09769  0  1.030454  0
H  H16  1  0.37771421  0.28560232  0.50928502  1  0  0.082437  0  0.974974  0  0  0.094697  0  1.032899  0  0  0.096445  0  1.033412  0  0  0.093774  0.093599  0  1.032506  0
H  H17  1  0.62228731  0.71439882  0.49071240  1  0  0.082478  0  0.974923  0  0  0.094733  0  1.032856  0  0  0.096482  0  1.033366  0  0  0.093796  0.093633  0  1.032464  0
H  H18  1  0.28995053  0.42458941  0.35309723  1  0  0.090377  0  0.963949  0  0  0.097022  0  1.03329  0  0  0.099477  0  1.032757  0  0  0.091077  0.095641  0  1.032798  0
H  H19  1  0.71004834  0.57540976  0.64690228  1  0  0.090366  0  0.963962  0  0  0.09701  0  1.033307  0  0  0.099465  0  1.032776  0  0  0.091083  0.09563  0  1.032815  0
H  H20  1  0.05198303  0.41541104  0.34082961  1  0  0.090243  0  0.940986  0  0  0.102974  0  0.995818  0  0  0.105558  0  0.995443  0  0  0.098348  0.101062  0  0.996272  0
H  H21  1  0.94801621  0.58459015  0.65917062  1  0  0.090248  0  0.940983  0  0  0.102979  0  0.995815  0  0  0.105562  0  0.995439  0  0  0.098356  0.101067  0  0.99627  0
H  H22  1  0.90120183  0.26853489  0.48020010  1  0  0.092068  0  0.947941  0  0  0.10492  0  1.007291  0  0  0.107618  0  1.006223  0  0  0.101074  0.102892  0  1.008399  0
H  H23  1  0.09879436  0.73146837  0.51980508  1  0  0.092076  0  0.947929  0  0  0.104938  0  1.007267  0  0  0.107623  0  1.006216  0  0  0.101058  0.102909  0  1.008375  0
H  H24  1  0.37000032  0.63831575  0.57695770  1  0  0.124153  0  0.926098  0  0  0.133001  0  0.983266  0  0  0.137592  0  0.980176  0  0  0.110063  0.129488  0  0.986071  0
H  H25  1  0.63000005  0.36168240  0.42304304  1  0  0.12413  0  0.926086  0  0  0.132984  0  0.983255  0  0  0.137574  0  0.980166  0  0  0.110064  0.129475  0  0.986056  0
H  H26  1  0.75627916  0.16529997  0.63758481  1  0  0.32633  0  0.914489  0  0  0.306657  0  0.979436  0  0  0.315418  0  0.971473  0  0  0.311388  0.300546  0  0.984925  0
H  H27  1  0.24372159  0.83470019  0.36241480  1  0  0.326343  0  0.914509  0  0  0.306674  0  0.979443  0  0  0.315436  0  0.97148  0  0  0.311399  0.300561  0  0.984931  0
C  C28  1  0.42119043  0.83465752  0.89169727  1  0  0.136658  0  3.710859  0  0  0.100039  0  3.973923  0  0  0.108554  0  3.990994  0  0  0.04994  0.095153  0  3.962165  0
C  C29  1  0.57880995  0.16534364  0.10830156  1  0  0.136682  0  3.710936  0  0  0.100025  0  3.973999  0  0  0.108541  0  3.991062  0  0  0.049948  0.095137  0  3.962243  0
C  C30  1  0.41821257  0.93540913  0.80460964  1  0  -0.107834  0  3.726784  0  0  -0.119263  0  3.982084  0  0  -0.125568  0  4.002408  0  0  -0.079113  -0.116914  0  3.969097  0
C  C31  1  0.58178818  0.06459102  0.19538997  1  0  -0.107832  0  3.726731  0  0  -0.11927  0  3.982021  0  0  -0.125553  0  4.002353  0  0  -0.079092  -0.116919  0  3.969032  0
C  C32  1  0.53623428  0.99498224  0.75750584  1  0  -0.026631  0  3.650083  0  0  -0.055904  0  3.903505  0  0  -0.052548  0  3.919344  0  0  -0.06245  -0.057972  0  3.8936  0
C  C33  1  0.46376610  0.00501892  0.24249298  1  0  -0.026627  0  3.649989  0  0  -0.055919  0  3.903394  0  0  -0.052565  0  3.91923  0  0  -0.062446  -0.057985  0  3.893481  0
C  C34  1  0.65714714  0.95270576  0.79721879  1  0  -0.023416  0  3.771178  0  0  -0.009638  0  4.009232  0  0  -0.012256  0  4.032158  0  0  0.004512  -0.008213  0  3.993603  0
C  C35  1  0.34285323  0.04729541  0.20278096  1  0  -0.023382  0  3.771277  0  0  -0.009582  0  4.009273  0  0  -0.012198  0  4.032198  0  0  0.004527  -0.008154  0  3.993641  0
C  C36  1  0.65140738  0.84955505  0.88619148  1  0  0.131832  0  3.74566  0  0  0.122354  0  3.989082  0  0  0.12708  0  4.01175  0  0  0.116715  0.119481  0  3.974271  0
C  C37  1  0.34859339  0.15044509  0.11380629  1  0  0.13185  0  3.74566  0  0  0.122343  0  3.989068  0  0  0.127068  0  4.011735  0  0  0.116711  0.119469  0  3.974259  0
C  C38  1  0.77240458  0.80146461  0.93156541  1  0  0.122483  0  3.760352  0  0  0.112469  0  4.004461  0  0  0.116425  0  4.027445  0  0  0.112893  0.109933  0  3.989397  0
C  C39  1  0.22759542  0.19853455  0.06843362  1  0  0.122478  0  3.760426  0  0  0.112534  0  4.004439  0  0  0.116492  0  4.02742  0  0  0.112927  0.109998  0  3.989377  0
C  C40  1  0.86233650  0.66488858  0.06861878  1  0  0.132798  0  3.704899  0  0  0.100222  0  3.960045  0  0  0.107597  0  3.977697  0  0  0.050057  0.0945  0  3.948614  0
C  C41  1  0.13766311  0.33511159  0.93138224  1  0  0.132773  0  3.705076  0  0  0.100191  0  3.960222  0  0  0.107567  0  3.977875  0  0  0.050069  0.094469  0  3.948792  0
C  C42  1  0.99103270  0.71292724  0.02970220  1  0  -0.110075  0  3.727174  0  0  -0.124188  0  3.983808  0  0  -0.130197  0  4.00375  0  0  -0.082671  -0.118846  0  3.970807  0
C  C43  1  0.00896501  0.28707498  0.97030050  1  0  -0.110054  0  3.727143  0  0  -0.124174  0  3.983776  0  0  -0.130181  0  4.003716  0  0  -0.082675  -0.118832  0  3.970777  0
C  C44  1  0.01093277  0.80672460  0.93663661  1  0  -0.020141  0  3.66306  0  0  -0.045213  0  3.9088  0  0  -0.041921  0  3.924552  0  0  -0.058603  -0.048913  0  3.898357  0
C  C45  1  0.98906683  0.19327559  0.06336626  1  0  -0.020058  0  3.663007  0  0  -0.04513  0  3.90876  0  0  -0.041838  0  3.92451  0  0  -0.058567  -0.048829  0  3.898317  0
C  C46  1  0.90089375  0.85396440  0.88567714  1  0  -0.021671  0  3.790506  0  0  -0.0089  0  4.021683  0  0  -0.011548  0  4.045374  0  0  0.003319  -0.007506  0  4.00673  0
C  C47  1  0.09910700  0.14603576  0.11432248  1  0  -0.021716  0  3.790495  0  0  -0.008975  0  4.021678  0  0  -0.011624  0  4.045367  0  0  0.003269  -0.00758  0  4.006726  0
C  C48  1  0.90753041  0.95420149  0.79354649  1  0  0.095441  0  3.874167  0  0  0.088308  0  4.135885  0  0  0.089591  0  4.160197  0  0  0.083329  0.087213  0  4.120444  0
C  C49  1  0.09247071  0.04579766  0.20645483  1  0  0.09549  0  3.874081  0  0  0.088342  0  4.13583  0  0  0.089627  0  4.160136  0  0  0.083333  0.087247  0  4.120387  0
C  C50  1  0.78761764  0.00254045  0.75429737  1  0  0.110453  0  3.786285  0  0  0.090957  0  4.043745  0  0  0.093437  0  4.067819  0  0  0.093634  0.088826  0  4.027568  0
C  C51  1  0.21238387  0.99746070  0.24570283  1  0  0.11037  0  3.786413  0  0  0.090892  0  4.043834  0  0  0.093375  0  4.067906  0  0  0.093605  0.088761  0  4.027653  0
C  C52  1  0.97064364  0.10363871  0.65840414  1  0  0.35048  0  3.741665  0  0  0.316557  0  4.019114  0  0  0.33127  0  4.033283  0  0  0.219305  0.307364  0  4.008922  0
C  C53  1  0.02935711  0.89636145  0.34159547  1  0  0.350442  0  3.741618  0  0  0.316527  0  4.019052  0  0  0.331243  0  4.033216  0  0  0.219301  0.307336  0  4.008853  0
C  C54  1  0.05438453  0.19267803  0.57512662  1  0  -0.012561  0  3.810259  0  0  0.006617  0  4.047616  0  0  0.004084  0  4.070497  0  0  -0.012244  0.008241  0  4.031142  0
C  C55  1  0.94561697  0.80732313  0.42487357  1  0  -0.012571  0  3.81029  0  0  0.006614  0  4.047642  0  0  0.00408  0  4.07052  0  0  -0.012253  0.008236  0  4.03116  0
C  C56  1  0.18918998  0.19896031  0.58221331  1  0  -0.092611  0  3.73773  0  0  -0.11437  0  3.980476  0  0  -0.116358  0  4.001872  0  0  -0.090657  -0.111949  0  3.965634  0
C  C57  1  0.81081077  0.80103984  0.41778537  1  0  -0.092667  0  3.737737  0  0  -0.114422  0  3.980491  0  0  -0.11642  0  4.001884  0  0  -0.090669  -0.112  0  3.965643  0
C  C58  1  0.27298585  0.28216738  0.50334531  1  0  -0.083692  0  3.803314  0  0  -0.091147  0  4.045601  0  0  -0.094648  0  4.070413  0  0  -0.097893  -0.088909  0  4.027845  0
C  C59  1  0.72701528  0.71783176  0.49665416  1  0  -0.083701  0  3.803314  0  0  -0.091151  0  4.045595  0  0  -0.09465  0  4.070408  0  0  -0.097899  -0.08891  0  4.027833  0
C  C60  1  0.22446658  0.35978970  0.41582300  1  0  -0.06134  0  3.750534  0  0  -0.079582  0  4.004262  0  0  -0.081196  0  4.02701  0  0  -0.092909  -0.077183  0  3.986571  0
C  C61  1  0.77553342  0.64020946  0.58417603  1  0  -0.061361  0  3.750576  0  0  -0.079603  0  4.004304  0  0  -0.081217  0  4.027051  0  0  -0.092939  -0.077206  0  3.986612  0
C  C62  1  0.09061757  0.35389787  0.40820865  1  0  -0.068443  0  3.780009  0  0  -0.080372  0  4.034217  0  0  -0.082897  0  4.056534  0  0  -0.092271  -0.078453  0  4.017921  0
C  C63  1  0.90938204  0.64610230  0.59179145  1  0  -0.068426  0  3.779965  0  0  -0.080355  0  4.034176  0  0  -0.082878  0  4.056488  0  0  -0.092263  -0.078437  0  4.01788  0
C  C64  1  0.00544795  0.27158567  0.48741990  1  0  -0.090373  0  3.719314  0  0  -0.117755  0  3.974979  0  0  -0.119076  0  3.995657  0  0  -0.090236  -0.116069  0  3.95995  0
C  C65  1  0.99455128  0.72841552  0.51258126  1  0  -0.090361  0  3.719354  0  0  -0.117755  0  3.975026  0  0  -0.119064  0  3.995706  0  0  -0.090204  -0.116067  0  3.959992  0
C  C66  1  0.49508514  0.59093567  0.34468394  1  0  0.6636  0  3.934684  0  0  0.621292  0  4.221565  0  0  0.65539  0  4.214656  0  0  0.189927  0.598301  0  4.225878  0
C  C67  1  0.50491410  0.40906250  0.65531636  1  0  0.663435  0  3.934849  0  0  0.621113  0  4.221757  0  0  0.65521  0  4.214851  0  0  0.189872  0.598124  0  4.226072  0
C  C68  1  0.46096274  0.55951090  0.48851825  1  0  -0.155611  0  3.655168  0  0  -0.17329  0  3.906389  0  0  -0.178455  0  3.919774  0  0  -0.078398  -0.170255  0  3.898466  0
C  C69  1  0.53903612  0.44048828  0.51148218  1  0  -0.155474  0  3.655127  0  0  -0.173171  0  3.906366  0  0  -0.178335  0  3.919751  0  0  -0.078394  -0.170143  0  3.898444  0
N  N70  1  0.75817196  0.70732686  0.02012762  1  0  -0.347425  0  3.303122  0  0  -0.275759  0  3.568752  0  0  -0.294308  0  3.587897  0  0  -0.331929  -0.262036  0  3.554154  0
N  N71  1  0.24182653  0.29267332  0.97987204  1  0  -0.347414  0  3.303168  0  0  -0.275758  0  3.568762  0  0  -0.294309  0  3.587908  0  0  -0.331935  -0.262034  0  3.554167  0
N  N72  1  0.53319178  0.79465735  0.93166628  1  0  -0.353427  0  3.291843  0  0  -0.283595  0  3.563102  0  0  -0.303083  0  3.583047  0  0  -0.326981  -0.271363  0  3.549241  0
N  N73  1  0.46681086  0.20534076  0.06833164  1  0  -0.353453  0  3.291801  0  0  -0.283648  0  3.563128  0  0  -0.30314  0  3.583076  0  0  -0.327014  -0.271415  0  3.549267  0
N  N74  1  0.83052353  0.09707328  0.66809564  1  0  -0.37401  0  3.349928  0  0  -0.315131  0  3.583589  0  0  -0.332977  0  3.597134  0  0  -0.37492  -0.302598  0  3.573711  0
N  N75  1  0.16947835  0.90292686  0.33190441  1  0  -0.373997  0  3.349872  0  0  -0.315128  0  3.583524  0  0  -0.332985  0  3.59708  0  0  -0.374937  -0.302595  0  3.573642  0
N  N76  1  0.02037083  0.01697402  0.73323260  1  0  -0.448923  0  2.933767  0  0  -0.42465  0  3.208116  0  0  -0.438902  0  3.221561  0  0  -0.345278  -0.415934  0  3.198484  0
N  N77  1  0.97962878  0.98302616  0.26676934  1  0  -0.448904  0  2.933737  0  0  -0.424627  0  3.208085  0  0  -0.43888  0  3.221523  0  0  -0.345265  -0.415914  0  3.198449  0
Cl  Cl78  1  0.71341465  0.41533270  0.86624391  1  0  -0.534809  0  1.017566  0  0  -0.462769  0  1.30196  0  0  -0.481485  0  1.280725  0  0  -0.270493  -0.44933  0  1.315833  0
Cl  Cl79  1  0.28658497  0.58466747  0.13375618  1  0  -0.534811  0  1.017573  0  0  -0.462767  0  1.30196  0  0  -0.481483  0  1.280725  0  0  -0.270497  -0.44933  0  1.315832  0
O  O80  1  0.42657022  0.71190201  0.33227368  1  0  -0.663284  0  1.96533  0  0  -0.608044  0  2.201492  0  0  -0.634101  0  2.190022  0  0  -0.335429  -0.590452  0  2.209025  0
O  O81  1  0.57342826  0.28809818  0.66772690  1  0  -0.663237  0  1.965442  0  0  -0.607984  0  2.201599  0  0  -0.634041  0  2.190134  0  0  -0.335393  -0.59039  0  2.209134  0
O  O82  1  0.59119738  0.49796455  0.23953178  1  0  -0.625486  0  1.94147  0  0  -0.563129  0  2.173325  0  0  -0.592153  0  2.165447  0  0  -0.33488  -0.54362  0  2.178633  0
O  O83  1  0.40880035  0.50203464  0.76046822  1  0  -0.625404  0  1.941489  0  0  -0.563039  0  2.173332  0  0  -0.592063  0  2.165455  0  0  -0.334863  -0.543529  0  2.178638  0
