# generated using pymatgen
data_BaH10C8(NO2)4
_symmetry_space_group_name_H-M   'P 1'
_cell_length_a   7.50067240
_cell_length_b   9.53008745
_cell_length_c   9.82293056
_cell_angle_alpha   64.49485870
_cell_angle_beta   74.83658274
_cell_angle_gamma   83.78648302
_symmetry_Int_Tables_number   1
_chemical_formula_structural   BaH10C8(NO2)4
_chemical_formula_sum   'Ba2 H20 C16 N8 O16'
_cell_volume   611.66307407
_cell_formula_units_Z   2
loop_
 _symmetry_equiv_pos_site_id
 _symmetry_equiv_pos_as_xyz
  1  'x, y, z'
loop_
 _atom_site_type_symbol
 _atom_site_label
 _atom_site_symmetry_multiplicity
 _atom_site_fract_x
 _atom_site_fract_y
 _atom_site_fract_z
 _atom_site_occupancy
 _atom_site_hle17_bader_spin_density
 _atom_site_hle17_ddec_charge
 _atom_site_hle17_ddec_spin_density
 _atom_site_hle17_ddec_sum_bond_order
 _atom_site_hle17_magmom
 _atom_site_hse06_10hf_bader_spin_density
 _atom_site_hse06_10hf_ddec_charge
 _atom_site_hse06_10hf_ddec_spin_density
 _atom_site_hse06_10hf_ddec_sum_bond_order
 _atom_site_hse06_10hf_magmom
 _atom_site_hse06_bader_spin_density
 _atom_site_hse06_ddec_charge
 _atom_site_hse06_ddec_spin_density
 _atom_site_hse06_ddec_sum_bond_order
 _atom_site_hse06_magmom
 _atom_site_pbe_bader_spin_density
 _atom_site_pbe_cm5_charge
 _atom_site_pbe_ddec_charge
 _atom_site_pbe_ddec_spin_density
 _atom_site_pbe_ddec_sum_bond_order
 _atom_site_pbe_magmom
Ba  Ba0  1  0.28936376  0.61745309  0.38798027  1  0  1.672068  0  1.069362  0  0  1.527366  0  1.456099  0  0  1.566178  0  1.411424  0  0  0.934945  1.498204  0  1.489293  0
Ba  Ba1  1  0.71063295  0.38254431  0.61202152  1  0  1.672048  0  1.069394  0  0  1.527332  0  1.456153  0  0  1.566194  0  1.41139  0  0  0.934945  1.498173  0  1.489348  0
H  H2  1  0.68602805  0.10549322  0.46379665  1  0  0.323962  0  0.934884  0  0  0.297836  0  1.007133  0  0  0.308697  0  0.997714  0  0  0.30934  0.290248  0  1.013599  0
H  H3  1  0.31397280  0.89450653  0.53620335  1  0  0.323967  0  0.934957  0  0  0.297844  0  1.007205  0  0  0.308705  0  0.997786  0  0  0.309349  0.290252  0  1.01368  0
H  H4  1  0.51365822  0.47028383  0.11422613  1  0  0.322401  0  0.932129  0  0  0.297506  0  1.00239  0  0  0.308239  0  0.993205  0  0  0.30976  0.289911  0  1.009138  0
H  H5  1  0.48634263  0.52971824  0.88577394  1  0  0.322432  0  0.932109  0  0  0.297534  0  1.00237  0  0  0.308267  0  0.993185  0  0  0.309775  0.28994  0  1.00912  0
H  H6  1  0.69768716  0.05881317  0.04959188  1  0  0.15951  0  0.962378  0  0  0.170869  0  1.016761  0  0  0.176022  0  1.014313  0  0  0.115697  0.166903  0  1.019441  0
H  H7  1  0.30231092  0.94118890  0.95040772  1  0  0.159496  0  0.962358  0  0  0.170846  0  1.016756  0  0  0.175999  0  1.014308  0  0  0.11568  0.166879  0  1.019435  0
H  H8  1  0.20503506  0.05625771  0.08480826  1  0  0.159783  0  0.966395  0  0  0.171571  0  1.020851  0  0  0.17681  0  1.018393  0  0  0.114858  0.167604  0  1.023509  0
H  H9  1  0.79496993  0.94374324  0.91518941  1  0  0.159748  0  0.966362  0  0  0.171549  0  1.020813  0  0  0.176785  0  1.018364  0  0  0.114847  0.167578  0  1.023474  0
H  H10  1  0.18596520  0.12660635  0.48726088  1  0  0.330751  0  0.912601  0  0  0.303565  0  0.983363  0  0  0.314297  0  0.974189  0  0  0.312197  0.29589  0  0.990029  0
H  H11  1  0.81403428  0.87338992  0.51273878  1  0  0.330745  0  0.912582  0  0  0.303563  0  0.983345  0  0  0.314303  0  0.974158  0  0  0.312196  0.295893  0  0.990002  0
H  H12  1  0.01604488  0.47775715  0.12203289  1  0  0.332511  0  0.916953  0  0  0.304128  0  0.989824  0  0  0.315142  0  0.980214  0  0  0.309991  0.296377  0  0.996669  0
H  H13  1  0.98395597  0.52224145  0.87796759  1  0  0.332502  0  0.916941  0  0  0.304117  0  0.989814  0  0  0.31513  0  0.980204  0  0  0.309986  0.296363  0  0.996664  0
H  H14  1  0.96122590  0.85053276  0.24181830  1  0  0.413266  0  0.895718  0  0  0.382667  0  0.959776  0  0  0.392894  0  0.944798  0  0  0.294442  0.375375  0  0.970481  0
H  H15  1  0.03877357  0.14946932  0.75818001  1  0  0.413275  0  0.895713  0  0  0.382671  0  0.959779  0  0  0.392897  0  0.944802  0  0  0.294448  0.375378  0  0.970486  0
H  H16  1  0.01938395  0.75390390  0.14064214  1  0  0.41405  0  0.891433  0  0  0.383843  0  0.95492  0  0  0.393889  0  0.940214  0  0  0.294945  0.376641  0  0.96552  0
H  H17  1  0.98061828  0.24609819  0.85935663  1  0  0.414084  0  0.891383  0  0  0.383869  0  0.954889  0  0  0.393916  0  0.940179  0  0  0.294956  0.376667  0  0.965489  0
H  H18  1  0.69716781  0.76241639  0.32408442  1  0  0.420175  0  0.889002  0  0  0.38849  0  0.954213  0  0  0.399301  0  0.938305  0  0  0.299913  0.379574  0  0.967364  0
H  H19  1  0.30282889  0.23758218  0.67591587  1  0  0.420167  0  0.889014  0  0  0.388478  0  0.954231  0  0  0.399288  0  0.938324  0  0  0.299895  0.37956  0  0.967386  0
H  H20  1  0.74347465  0.66220934  0.22471787  1  0  0.422856  0  0.878111  0  0  0.391837  0  0.941937  0  0  0.402435  0  0.926332  0  0  0.302335  0.384029  0  0.953602  0
H  H21  1  0.25652206  0.33778923  0.77528345  1  0  0.422833  0  0.878143  0  0  0.391812  0  0.941973  0  0  0.40241  0  0.926368  0  0  0.302325  0.384003  0  0.953639  0
C  C22  1  0.60359293  0.27774537  0.05643784  1  0  0.62512  0  3.869111  0  0  0.579256  0  4.15742  0  0  0.610438  0  4.159293  0  0  0.218741  0.55847  0  4.155273  0
C  C23  1  0.39640791  0.72225554  0.94356271  1  0  0.625145  0  3.869025  0  0  0.579248  0  4.157383  0  0  0.610434  0  4.159245  0  0  0.21874  0.558452  0  4.155248  0
C  C24  1  0.58937683  0.29458212  0.29981722  1  0  0.76391  0  3.860034  0  0  0.694019  0  4.160195  0  0  0.729739  0  4.153906  0  0  0.350277  0.669167  0  4.164448  0
C  C25  1  0.41062264  0.70541762  0.70018408  1  0  0.764059  0  3.859887  0  0  0.694182  0  4.160032  0  0  0.729901  0  4.153742  0  0  0.35035  0.669322  0  4.1643  0
C  C26  1  0.69825315  0.05838422  0.26879764  1  0  0.613209  0  3.871377  0  0  0.558816  0  4.169572  0  0  0.58934  0  4.17243  0  0  0.212296  0.53794  0  4.166787  0
C  C27  1  0.30174494  0.94161551  0.73120394  1  0  0.613087  0  3.871492  0  0  0.558751  0  4.169603  0  0  0.589275  0  4.172462  0  0  0.212247  0.53789  0  4.166797  0
C  C28  1  0.66636628  0.12388315  0.12000338  1  0  -0.493165  0  3.685125  0  0  -0.517908  0  3.961237  0  0  -0.540893  0  3.975517  0  0  -0.145426  -0.502393  0  3.951288  0
C  C29  1  0.33363319  0.87611776  0.87999642  1  0  -0.493102  0  3.68508  0  0  -0.517843  0  3.961177  0  0  -0.540833  0  3.975466  0  0  -0.145403  -0.50233  0  3.951228  0
C  C30  1  0.20248078  0.06673435  0.29924788  1  0  0.622834  0  3.861292  0  0  0.576171  0  4.151887  0  0  0.607338  0  4.153858  0  0  0.218194  0.555303  0  4.149711  0
C  C31  1  0.79752008  0.93326425  0.70075157  1  0  0.622724  0  3.861391  0  0  0.57611  0  4.151939  0  0  0.607277  0  4.153912  0  0  0.218161  0.555242  0  4.149762  0
C  C32  1  0.09573384  0.31209144  0.31525953  1  0  0.762924  0  3.852364  0  0  0.692864  0  4.152914  0  0  0.728868  0  4.146298  0  0  0.353852  0.668407  0  4.156646  0
C  C33  1  0.90426563  0.68790599  0.68474068  1  0  0.762853  0  3.85267  0  0  0.692824  0  4.153187  0  0  0.728845  0  4.146545  0  0  0.353769  0.668344  0  4.156954  0
C  C34  1  0.11256424  0.27990930  0.07933472  1  0  0.611909  0  3.869367  0  0  0.557992  0  4.168194  0  0  0.588654  0  4.171003  0  0  0.209854  0.53766  0  4.164924  0
C  C35  1  0.88744075  0.72009047  0.92066547  1  0  0.611897  0  3.869342  0  0  0.557991  0  4.16818  0  0  0.588657  0  4.170984  0  0  0.209914  0.53766  0  4.164911  0
C  C36  1  0.17738098  0.12888216  0.14759673  1  0  -0.492363  0  3.692018  0  0  -0.518093  0  3.968716  0  0  -0.541576  0  3.9838  0  0  -0.147655  -0.502507  0  3.958349  0
C  C37  1  0.82262263  0.87111996  0.85239870  1  0  -0.492277  0  3.691973  0  0  -0.518033  0  3.968661  0  0  -0.541521  0  3.983747  0  0  -0.147663  -0.502445  0  3.958304  0
N  N38  1  0.56524258  0.35604743  0.15269354  1  0  -0.545697  0  3.258181  0  0  -0.483153  0  3.501941  0  0  -0.508237  0  3.502857  0  0  -0.39392  -0.467493  0  3.502006  0
N  N39  1  0.43475827  0.64395348  0.84730700  1  0  -0.545774  0  3.258159  0  0  -0.483221  0  3.501939  0  0  -0.508306  0  3.502853  0  0  -0.393945  -0.46756  0  3.502013  0
N  N40  1  0.65735288  0.14765050  0.35348636  1  0  -0.538659  0  3.269824  0  0  -0.477465  0  3.520404  0  0  -0.502248  0  3.521505  0  0  -0.394576  -0.459365  0  3.519036  0
N  N41  1  0.34264659  0.85234925  0.64651289  1  0  -0.538629  0  3.269849  0  0  -0.477486  0  3.520437  0  0  -0.502267  0  3.521537  0  0  -0.394586  -0.459382  0  3.519072  0
N  N42  1  0.16218645  0.16493304  0.37622342  1  0  -0.53933  0  3.243213  0  0  -0.475692  0  3.489611  0  0  -0.500485  0  3.490061  0  0  -0.388237  -0.459048  0  3.489432  0
N  N43  1  0.83781440  0.83506439  0.62377753  1  0  -0.539304  0  3.243258  0  0  -0.475687  0  3.489637  0  0  -0.500491  0  3.490073  0  0  -0.388214  -0.459039  0  3.489456  0
N  N44  1  0.07229794  0.36594424  0.16822897  1  0  -0.530561  0  3.242269  0  0  -0.467537  0  3.492319  0  0  -0.492424  0  3.493172  0  0  -0.386754  -0.450668  0  3.491301  0
N  N45  1  0.92770291  0.63405550  0.83177206  1  0  -0.53049  0  3.242355  0  0  -0.467474  0  3.4924  0  0  -0.492367  0  3.493248  0  0  -0.386704  -0.450595  0  3.491392  0
O  O46  1  0.57930679  0.35278593  0.91938129  1  0  -0.656521  0  1.964745  0  0  -0.597417  0  2.197708  0  0  -0.621438  0  2.189598  0  0  -0.351456  -0.58037  0  2.203297  0
O  O47  1  0.42069406  0.64721498  0.08061926  1  0  -0.656549  0  1.964754  0  0  -0.597444  0  2.197745  0  0  -0.621459  0  2.18963  0  0  -0.351472  -0.580395  0  2.203337  0
O  O48  1  0.55146024  0.36988216  0.38197238  1  0  -0.696042  0  1.951106  0  0  -0.633618  0  2.196352  0  0  -0.657619  0  2.186874  0  0  -0.357344  -0.61623  0  2.203881  0
O  O49  1  0.44853922  0.63011758  0.61802892  1  0  -0.696145  0  1.951022  0  0  -0.633734  0  2.196287  0  0  -0.65773  0  2.186797  0  0  -0.357398  -0.616345  0  2.203824  0
O  O50  1  0.76310562  0.92169703  0.33672095  1  0  -0.645772  0  2.031854  0  0  -0.571791  0  2.245355  0  0  -0.596317  0  2.236212  0  0  -0.302941  -0.553235  0  2.251652  0
O  O51  1  0.23689246  0.07830388  0.66327811  1  0  -0.645752  0  2.031939  0  0  -0.571752  0  2.24537  0  0  -0.596277  0  2.236236  0  0  -0.302887  -0.553202  0  2.251662  0
O  O52  1  0.25873069  0.92986118  0.37227102  1  0  -0.650021  0  1.956982  0  0  -0.593158  0  2.191356  0  0  -0.61727  0  2.183767  0  0  -0.340299  -0.575928  0  2.195913  0
O  O53  1  0.74127016  0.07013742  0.62772946  1  0  -0.649994  0  1.956952  0  0  -0.59316  0  2.191337  0  0  -0.617269  0  2.183725  0  0  -0.340305  -0.575929  0  2.195891  0
O  O54  1  0.05746357  0.39428263  0.39145470  1  0  -0.727998  0  1.904597  0  0  -0.667764  0  2.151182  0  0  -0.690427  0  2.138735  0  0  -0.366087  -0.651594  0  2.159501  0
O  O55  1  0.94253314  0.60571592  0.60854865  1  0  -0.727988  0  1.904751  0  0  -0.667772  0  2.151331  0  0  -0.690441  0  2.138875  0  0  -0.366074  -0.651595  0  2.159662  0
O  O56  1  0.08603166  0.34699025  0.94124708  1  0  -0.640563  0  2.010979  0  0  -0.568894  0  2.225193  0  0  -0.593317  0  2.216056  0  0  -0.30366  -0.55146  0  2.231215  0
O  O57  1  0.91397333  0.65301069  0.05875161  1  0  -0.640527  0  2.010944  0  0  -0.568869  0  2.225161  0  0  -0.593292  0  2.216022  0  0  -0.303658  -0.551437  0  2.231181  0
O  O58  1  0.06603003  0.79573040  0.20097650  1  0  -0.890616  0  1.875367  0  0  -0.839853  0  2.063815  0  0  -0.859032  0  2.033404  0  0  -0.643104  -0.826149  0  2.085818  0
O  O59  1  0.93396943  0.20426932  0.79902583  1  0  -0.890656  0  1.875317  0  0  -0.839892  0  2.063771  0  0  -0.859079  0  2.033361  0  0  -0.643122  -0.826186  0  2.085777  0
O  O60  1  0.66485015  0.66503850  0.32166891  1  0  -0.92392  0  1.878932  0  0  -0.86642  0  2.070645  0  0  -0.886986  0  2.038778  0  0  -0.640175  -0.851227  0  2.095337  0
O  O61  1  0.33514794  0.33495890  0.67833362  1  0  -0.923884  0  1.878975  0  0  -0.866388  0  2.070697  0  0  -0.886956  0  2.03883  0  0  -0.640154  -0.851191  0  2.095393  0
