# generated using pymatgen
data_SmCdH12C15S(NO6)2
_symmetry_space_group_name_H-M   'P 1'
_cell_length_a   8.67983055
_cell_length_b   8.91966691
_cell_length_c   13.30928330
_cell_angle_alpha   87.86269784
_cell_angle_beta   90.03434706
_cell_angle_gamma   75.57516389
_symmetry_Int_Tables_number   1
_chemical_formula_structural   SmCdH12C15S(NO6)2
_chemical_formula_sum   'Sm2 Cd2 H24 C30 S2 N4 O24'
_cell_volume   997.19060547
_cell_formula_units_Z   2
loop_
 _symmetry_equiv_pos_site_id
 _symmetry_equiv_pos_as_xyz
  1  'x, y, z'
loop_
 _atom_site_type_symbol
 _atom_site_label
 _atom_site_symmetry_multiplicity
 _atom_site_fract_x
 _atom_site_fract_y
 _atom_site_fract_z
 _atom_site_occupancy
 _atom_site_hle17_bader_spin_density
 _atom_site_hle17_ddec_charge
 _atom_site_hle17_ddec_spin_density
 _atom_site_hle17_ddec_sum_bond_order
 _atom_site_hle17_magmom
 _atom_site_hse06_10hf_bader_spin_density
 _atom_site_hse06_10hf_ddec_charge
 _atom_site_hse06_10hf_ddec_spin_density
 _atom_site_hse06_10hf_ddec_sum_bond_order
 _atom_site_hse06_10hf_magmom
 _atom_site_hse06_bader_spin_density
 _atom_site_hse06_ddec_charge
 _atom_site_hse06_ddec_spin_density
 _atom_site_hse06_ddec_sum_bond_order
 _atom_site_hse06_magmom
 _atom_site_pbe_bader_spin_density
 _atom_site_pbe_cm5_charge
 _atom_site_pbe_ddec_charge
 _atom_site_pbe_ddec_spin_density
 _atom_site_pbe_ddec_sum_bond_order
 _atom_site_pbe_magmom
Sm  Sm0  1  0.21543786  0.81336505  0.50405016  1  0  2.274798  0  1.581623  0  0  2.112495  0  2.051625  0  0  2.227114  0  1.876728  0  0  1.479218  2.080718  0  2.081337  0
Sm  Sm1  1  0.78454881  0.18663815  0.49595120  1  0  2.274815  0  1.581687  0  0  2.112496  0  2.051773  0  0  2.227153  0  1.876813  0  0  1.47917  2.080732  0  2.081462  0
Cd  Cd2  1  0.36128783  0.34661300  0.27591958  1  0  1.175515  0  1.63453  0  0  0.977353  0  2.075122  0  0  1.035516  0  2.023306  0  0  0.813946  0.936473  0  2.110439  0
Cd  Cd3  1  0.63870185  0.65338322  0.72407975  1  0  1.175481  0  1.634585  0  0  0.977281  0  2.075168  0  0  1.035447  0  2.023351  0  0  0.813922  0.936384  0  2.110486  0
H  H4  1  0.07237743  0.65866206  0.35020347  1  0  0.440164  0  0.853126  0  0  0.410637  0  0.914588  0  0  0.421788  0  0.898207  0  0  0.298794  0.40271  0  0.926374  0
H  H5  1  0.92762019  0.34133890  0.64979495  1  0  0.440181  0  0.853098  0  0  0.410652  0  0.914563  0  0  0.421804  0  0.898181  0  0  0.298792  0.402722  0  0.926352  0
H  H6  1  0.96793078  0.82782535  0.32235164  1  0  0.441387  0  0.855748  0  0  0.410889  0  0.917577  0  0  0.422075  0  0.901251  0  0  0.296385  0.403216  0  0.928809  0
H  H7  1  0.03206309  0.17217670  0.67764525  1  0  0.441251  0  0.85593  0  0  0.410841  0  0.917626  0  0  0.422025  0  0.901302  0  0  0.296345  0.403164  0  0.928861  0
H  H8  1  0.52250358  0.88209577  0.40924135  1  0  0.454655  0  0.82334  0  0  0.43254  0  0.86986  0  0  0.443055  0  0.854614  0  0  0.30933  0.425388  0  0.880296  0
H  H9  1  0.47749153  0.11790181  0.59076545  1  0  0.454654  0  0.823345  0  0  0.432552  0  0.86984  0  0  0.443065  0  0.8546  0  0  0.309351  0.425403  0  0.88027  0
H  H10  1  0.36443196  0.97669199  0.36574018  1  0  0.420538  0  0.891661  0  0  0.388839  0  0.957046  0  0  0.400119  0  0.940905  0  0  0.29355  0.380473  0  0.969313  0
H  H11  1  0.63556417  0.02329734  0.63425937  1  0  0.420615  0  0.891594  0  0  0.388917  0  0.956961  0  0  0.4002  0  0.940814  0  0  0.293622  0.380547  0  0.96923  0
H  H12  1  0.21222371  0.07243864  0.18899939  1  0  0.087534  0  0.926624  0  0  0.098815  0  0.983269  0  0  0.100964  0  0.981301  0  0  0.124606  0.097183  0  0.984718  0
H  H13  1  0.78777559  0.92756468  0.81100046  1  0  0.087538  0  0.926643  0  0  0.098841  0  0.983263  0  0  0.100991  0  0.981295  0  0  0.124625  0.097201  0  0.984731  0
H  H14  1  0.10004808  0.00586500  0.02917518  1  0  0.096481  0  0.982585  0  0  0.108829  0  1.038971  0  0  0.110999  0  1.039736  0  0  0.106571  0.107279  0  1.038586  0
H  H15  1  0.89995582  0.99413833  0.97082241  1  0  0.096411  0  0.982593  0  0  0.108766  0  1.038976  0  0  0.110936  0  1.039739  0  0  0.106564  0.107216  0  1.038591  0
H  H16  1  0.06880539  0.19217863  0.87970561  1  0  0.122751  0  0.94523  0  0  0.135244  0  0.99966  0  0  0.138379  0  0.996859  0  0  0.115076  0.132872  0  1.001789  0
H  H17  1  0.93120717  0.80782247  0.12029128  1  0  0.122765  0  0.945156  0  0  0.135269  0  0.999581  0  0  0.138402  0  0.996785  0  0  0.115072  0.13291  0  1.001692  0
H  H18  1  0.10949582  0.44294667  0.80461533  1  0  0.120168  0  0.936079  0  0  0.132049  0  0.991391  0  0  0.135162  0  0.990113  0  0  0.111671  0.129746  0  0.992425  0
H  H19  1  0.89052072  0.55705685  0.19538449  1  0  0.120087  0  0.936092  0  0  0.132015  0  0.991353  0  0  0.135132  0  0.990064  0  0  0.111629  0.129673  0  0.992442  0
H  H20  1  0.21630915  0.67325145  0.82155003  1  0  0.125827  0  0.962218  0  0  0.135513  0  1.021377  0  0  0.138753  0  1.019877  0  0  0.108648  0.133191  0  1.022411  0
H  H21  1  0.78370447  0.32675437  0.17845046  1  0  0.125819  0  0.962203  0  0  0.135499  0  1.021389  0  0  0.138733  0  1.019885  0  0  0.10863  0.133179  0  1.02242  0
H  H22  1  0.35824817  0.82632210  0.92578498  1  0  0.118114  0  0.94863  0  0  0.128678  0  1.00768  0  0  0.131998  0  1.004872  0  0  0.111644  0.126182  0  1.009792  0
H  H23  1  0.64176439  0.17367913  0.07421942  1  0  0.118072  0  0.948609  0  0  0.128631  0  1.007668  0  0  0.131958  0  1.004849  0  0  0.111626  0.126134  0  1.00978  0
H  H24  1  0.46650944  0.86914621  0.09582868  1  0  0.116606  0  0.930744  0  0  0.130306  0  0.981282  0  0  0.133275  0  0.981099  0  0  0.11516  0.128125  0  0.981643  0
H  H25  1  0.53349622  0.13085498  0.90417799  1  0  0.116625  0  0.930638  0  0  0.130333  0  0.981171  0  0  0.133304  0  0.980985  0  0  0.115148  0.12817  0  0.981517  0
H  H26  1  0.45259067  0.68511128  0.23888385  1  0  0.098159  0  0.929062  0  0  0.107223  0  0.989131  0  0  0.109962  0  0.985929  0  0  0.125602  0.105222  0  0.991368  0
H  H27  1  0.54741018  0.31488632  0.76111993  1  0  0.098237  0  0.929004  0  0  0.107275  0  0.989108  0  0  0.110015  0  0.985907  0  0  0.125619  0.105277  0  0.991334  0
C  C28  1  0.19740903  0.15082119  0.12287509  1  0  0.156295  0  3.702233  0  0  0.121987  0  3.959797  0  0  0.13072  0  3.976757  0  0  0.060538  0.116368  0  3.948066  0
C  C29  1  0.80259487  0.84918216  0.87712324  1  0  0.156236  0  3.702243  0  0  0.121883  0  3.959814  0  0  0.130616  0  3.976774  0  0  0.060531  0.116266  0  3.948097  0
C  C30  1  0.13231916  0.11556696  0.03307112  1  0  -0.126028  0  3.755421  0  0  -0.139191  0  4.011339  0  0  -0.146584  0  4.032809  0  0  -0.085507  -0.134402  0  3.996794  0
C  C31  1  0.86768796  0.88443292  0.96692582  1  0  -0.125858  0  3.755413  0  0  -0.139008  0  4.011318  0  0  -0.146396  0  4.032782  0  0  -0.085505  -0.134216  0  3.996772  0
C  C32  1  0.11516021  0.21838751  0.95118611  1  0  -0.032713  0  3.653839  0  0  -0.061285  0  3.906061  0  0  -0.057756  0  3.922209  0  0  -0.058268  -0.063336  0  3.895095  0
C  C33  1  0.88485465  0.78161362  0.04881077  1  0  -0.032886  0  3.653749  0  0  -0.061436  0  3.90604  0  0  -0.057908  0  3.92219  0  0  -0.058288  -0.063494  0  3.895069  0
C  C34  1  0.16724706  0.35561830  0.95866694  1  0  0.026312  0  3.78665  0  0  0.040918  0  4.024613  0  0  0.038487  0  4.048954  0  0  0.001161  0.042387  0  4.008193  0
C  C35  1  0.83277071  0.64438055  0.04133077  1  0  0.026451  0  3.786296  0  0  0.04088  0  4.024485  0  0  0.038446  0  4.048834  0  0  0.001123  0.042337  0  4.008054  0
C  C36  1  0.16071344  0.46445201  0.87594448  1  0  -0.085768  0  3.705946  0  0  -0.110329  0  3.9628  0  0  -0.113598  0  3.985836  0  0  -0.078862  -0.108018  0  3.947202  0
C  C37  1  0.83930548  0.53554686  0.12405398  1  0  -0.085837  0  3.705813  0  0  -0.110395  0  3.962711  0  0  -0.113667  0  3.985747  0  0  -0.078932  -0.108057  0  3.947153  0
C  C38  1  0.21996686  0.59167593  0.88535365  1  0  -0.103142  0  3.708382  0  0  -0.126016  0  3.964533  0  0  -0.130279  0  3.988724  0  0  -0.083379  -0.122978  0  3.948043  0
C  C39  1  0.78005175  0.40832413  0.11464627  1  0  -0.102929  0  3.708319  0  0  -0.125777  0  3.964444  0  0  -0.130028  0  3.988628  0  0  -0.083179  -0.122742  0  3.947948  0
C  C40  1  0.28815186  0.62064889  0.97867628  1  0  0.024013  0  3.78958  0  0  0.039352  0  4.025293  0  0  0.036533  0  4.050617  0  0  -0.002017  0.041049  0  4.008226  0
C  C41  1  0.71186477  0.37935001  0.02132519  1  0  0.023994  0  3.789696  0  0  0.039292  0  4.025424  0  0  0.036472  0  4.050749  0  0  -0.002022  0.040991  0  4.00836  0
C  C42  1  0.35445005  0.74864267  0.99064705  1  0  -0.044953  0  3.663864  0  0  -0.071338  0  3.916841  0  0  -0.068231  0  3.933578  0  0  -0.061372  -0.073049  0  3.905406  0
C  C43  1  0.64556396  0.25135739  0.00935589  1  0  -0.044855  0  3.663909  0  0  -0.071211  0  3.91687  0  0  -0.068109  0  3.933608  0  0  -0.061319  -0.07292  0  3.905441  0
C  C44  1  0.41507292  0.77160270  0.08340077  1  0  -0.118005  0  3.724533  0  0  -0.132328  0  3.98186  0  0  -0.139578  0  4.002886  0  0  -0.079309  -0.127646  0  3.967626  0
C  C45  1  0.58493566  0.22839614  0.91660296  1  0  -0.118073  0  3.724554  0  0  -0.132391  0  3.981888  0  0  -0.139641  0  4.002915  0  0  -0.079352  -0.127729  0  3.967658  0
C  C46  1  0.41055682  0.66656845  0.16412806  1  0  0.157627  0  3.683469  0  0  0.124774  0  3.938885  0  0  0.134181  0  3.955137  0  0  0.065549  0.118728  0  3.92749  0
C  C47  1  0.58944946  0.33343036  0.83587568  1  0  0.157533  0  3.683523  0  0  0.12467  0  3.938954  0  0  0.134076  0  3.955208  0  0  0.065535  0.118624  0  3.927555  0
C  C48  1  0.29285279  0.51751079  0.06334765  1  0  0.126183  0  3.754881  0  0  0.119463  0  3.992185  0  0  0.124068  0  4.015172  0  0  0.114081  0.1164  0  3.976635  0
C  C49  1  0.70716070  0.48248687  0.93665160  1  0  0.126082  0  3.755008  0  0  0.119351  0  3.992304  0  0  0.123956  0  4.015291  0  0  0.113961  0.116277  0  3.976744  0
C  C50  1  0.23304681  0.38134706  0.05239798  1  0  0.125805  0  3.772667  0  0  0.117731  0  4.012243  0  0  0.121875  0  4.035327  0  0  0.116769  0.114929  0  3.996673  0
C  C51  1  0.76696606  0.61865291  0.94760045  1  0  0.12567  0  3.772746  0  0  0.117689  0  4.012276  0  0  0.121833  0  4.035363  0  0  0.116847  0.114928  0  3.996648  0
C  C52  1  0.46488878  0.48080372  0.45095936  1  0  0.571413  0  3.911624  0  0  0.529425  0  4.19245  0  0  0.55976  0  4.189431  0  0  0.226642  0.508644  0  4.198045  0
C  C53  1  0.53507142  0.51921656  0.54903848  1  0  0.571354  0  3.911323  0  0  0.529411  0  4.192074  0  0  0.55976  0  4.189038  0  0  0.226492  0.508627  0  4.197668  0
C  C54  1  0.97092782  0.63801907  0.61194836  1  0  0.579117  0  3.889576  0  0  0.534784  0  4.184688  0  0  0.565115  0  4.178669  0  0  0.220835  0.514277  0  4.18978  0
C  C55  1  0.02907334  0.36197724  0.38804795  1  0  0.57875  0  3.889872  0  0  0.534581  0  4.184818  0  0  0.564911  0  4.178804  0  0  0.220812  0.514077  0  4.189904  0
C  C56  1  0.87005841  0.80925302  0.60113844  1  0  0.592392  0  3.834912  0  0  0.544106  0  4.124852  0  0  0.575746  0  4.120188  0  0  0.237014  0.522491  0  4.131392  0
C  C57  1  0.12992791  0.19073850  0.39885955  1  0  0.592845  0  3.834336  0  0  0.544348  0  4.124594  0  0  0.575989  0  4.119925  0  0  0.237066  0.522747  0  4.131123  0
S  S58  1  0.29169201  0.95177848  0.70134364  1  0  1.555838  0  5.88658  0  0  1.439713  0  6.425609  0  0  1.494422  0  6.397508  0  0  0.534868  1.400983  0  6.44931  0
S  S59  1  0.70830363  0.04822132  0.29865632  1  0  1.555971  0  5.88653  0  0  1.439862  0  6.425518  0  0  1.494577  0  6.397409  0  0  0.534931  1.401118  0  6.449247  0
N  N60  1  0.24542787  0.27986031  0.13180105  1  0  -0.35879  0  3.286438  0  0  -0.289937  0  3.552716  0  0  -0.310402  0  3.573127  0  0  -0.330538  -0.275933  0  3.538502  0
N  N61  1  0.75457695  0.72013958  0.86819815  1  0  -0.358662  0  3.28638  0  0  -0.289791  0  3.552605  0  0  -0.310253  0  3.573012  0  0  -0.330522  -0.275794  0  3.538371  0
N  N62  1  0.35375722  0.54214165  0.15373448  1  0  -0.36904  0  3.257001  0  0  -0.29538  0  3.522539  0  0  -0.316539  0  3.540881  0  0  -0.322849  -0.280914  0  3.509623  0
N  N63  1  0.64624938  0.45785598  0.84626779  1  0  -0.368934  0  3.256973  0  0  -0.29525  0  3.52249  0  0  -0.316408  0  3.54083  0  0  -0.322803  -0.28078  0  3.509566  0
O  O64  1  0.10510920  0.60759016  0.57006664  1  0  -0.648136  0  2.008959  0  0  -0.605351  0  2.245731  0  0  -0.636464  0  2.233512  0  0  -0.380312  -0.589666  0  2.251324  0
O  O65  1  0.89488153  0.39241085  0.42993930  1  0  -0.648157  0  2.008797  0  0  -0.605391  0  2.245491  0  0  -0.636511  0  2.233266  0  0  -0.380354  -0.5897  0  2.25108  0
O  O66  1  0.06983976  0.76997986  0.35537477  1  0  -0.925843  0  1.811748  0  0  -0.877512  0  1.997041  0  0  -0.904935  0  1.958187  0  0  -0.653423  -0.864612  0  2.019751  0
O  O67  1  0.93015380  0.23002337  0.64462358  1  0  -0.925781  0  1.811904  0  0  -0.877478  0  1.997063  0  0  -0.904906  0  1.958207  0  0  -0.653437  -0.864583  0  2.019776  0
O  O68  1  0.92850468  0.90716485  0.55228834  1  0  -0.746109  0  2.163629  0  0  -0.688025  0  2.420753  0  0  -0.729247  0  2.410622  0  0  -0.389513  -0.67078  0  2.426678  0
O  O69  1  0.07148239  0.09283254  0.44771321  1  0  -0.74619  0  2.163523  0  0  -0.68804  0  2.420771  0  0  -0.729258  0  2.410638  0  0  -0.389419  -0.670792  0  2.426684  0
O  O70  1  0.41796099  0.86756344  0.38825085  1  0  -0.906077  0  1.811594  0  0  -0.862945  0  1.993291  0  0  -0.889712  0  1.955486  0  0  -0.64835  -0.850237  0  2.015883  0
O  O71  1  0.58203849  0.13243065  0.61175305  1  0  -0.906151  0  1.81158  0  0  -0.863039  0  1.993327  0  0  -0.889803  0  1.955497  0  0  -0.648485  -0.850352  0  2.015947  0
O  O72  1  0.73550856  0.84301188  0.64242964  1  0  -0.587529  0  2.152858  0  0  -0.51253  0  2.388591  0  0  -0.540744  0  2.378765  0  0  -0.282881  -0.492863  0  2.395179  0
O  O73  1  0.26447441  0.15697484  0.35756174  1  0  -0.587673  0  2.152462  0  0  -0.51268  0  2.388432  0  0  -0.540888  0  2.378595  0  0  -0.282966  -0.493044  0  2.395044  0
O  O74  1  0.91002971  0.54498568  0.66270318  1  0  -0.597972  0  2.047317  0  0  -0.539848  0  2.285462  0  0  -0.565395  0  2.274117  0  0  -0.294354  -0.521479  0  2.292023  0
O  O75  1  0.08996266  0.45500481  0.33729859  1  0  -0.597762  0  2.047619  0  0  -0.539697  0  2.285718  0  0  -0.565239  0  2.274372  0  0  -0.294353  -0.521332  0  2.29227  0
O  O76  1  0.53340892  0.35198890  0.41308985  1  0  -0.67085  0  2.118719  0  0  -0.602303  0  2.369458  0  0  -0.638699  0  2.357996  0  0  -0.341472  -0.582395  0  2.375524  0
O  O77  1  0.46656949  0.64801064  0.58690714  1  0  -0.670642  0  2.119368  0  0  -0.602115  0  2.370087  0  0  -0.638498  0  2.358616  0  0  -0.341403  -0.582211  0  2.376153  0
O  O78  1  0.34583085  0.57558200  0.41324547  1  0  -0.619662  0  2.110352  0  0  -0.563955  0  2.357998  0  0  -0.596265  0  2.349231  0  0  -0.332027  -0.546542  0  2.362508  0
O  O79  1  0.65415569  0.42441309  0.58675691  1  0  -0.619844  0  2.109443  0  0  -0.564201  0  2.357148  0  0  -0.596531  0  2.348376  0  0  -0.332044  -0.546783  0  2.361664  0
O  O80  1  0.19356593  0.83697827  0.68717149  1  0  -0.814611  0  1.982366  0  0  -0.76244  0  2.237941  0  0  -0.791567  0  2.221706  0  0  -0.430198  -0.746807  0  2.248333  0
O  O81  1  0.80642325  0.16302846  0.31283050  1  0  -0.814717  0  1.98229  0  0  -0.762565  0  2.237889  0  0  -0.791695  0  2.221644  0  0  -0.4303  -0.746928  0  2.248282  0
O  O82  1  0.33914382  0.98902950  0.59543019  1  0  -0.828017  0  1.970823  0  0  -0.769506  0  2.221527  0  0  -0.798996  0  2.203034  0  0  -0.42278  -0.753825  0  2.233237  0
O  O83  1  0.66085266  0.01097147  0.40456974  1  0  -0.828066  0  1.970779  0  0  -0.76958  0  2.221549  0  0  -0.799079  0  2.203054  0  0  -0.42281  -0.753899  0  2.23327  0
O  O84  1  0.43443168  0.88115671  0.76475365  1  0  -0.728077  0  1.950355  0  0  -0.668169  0  2.217369  0  0  -0.691171  0  2.197669  0  0  -0.362854  -0.651419  0  2.230242  0
O  O85  1  0.56556343  0.11884078  0.23524788  1  0  -0.728102  0  1.950431  0  0  -0.668208  0  2.217436  0  0  -0.69121  0  2.197733  0  0  -0.362847  -0.651454  0  2.230309  0
O  O86  1  0.19790431  0.09315714  0.74689251  1  0  -0.696338  0  1.935317  0  0  -0.643204  0  2.168021  0  0  -0.663861  0  2.149553  0  0  -0.347242  -0.628041  0  2.180011  0
O  O87  1  0.80209407  0.90684967  0.25310797  1  0  -0.696348  0  1.93531  0  0  -0.643156  0  2.168005  0  0  -0.663816  0  2.149538  0  0  -0.347228  -0.627989  0  2.179999  0
