# generated using pymatgen
data_Zn3H63C91N7O13
_symmetry_space_group_name_H-M   'P 1'
_cell_length_a   19.43386371
_cell_length_b   20.75573651
_cell_length_c   21.81780371
_cell_angle_alpha   116.12726508
_cell_angle_beta   99.66247645
_cell_angle_gamma   100.32023091
_symmetry_Int_Tables_number   1
_chemical_formula_structural   Zn3H63C91N7O13
_chemical_formula_sum   'Zn6 H126 C182 N14 O26'
_cell_volume   7464.00506063
_cell_formula_units_Z   2
loop_
 _symmetry_equiv_pos_site_id
 _symmetry_equiv_pos_as_xyz
  1  'x, y, z'
loop_
 _atom_site_type_symbol
 _atom_site_label
 _atom_site_symmetry_multiplicity
 _atom_site_fract_x
 _atom_site_fract_y
 _atom_site_fract_z
 _atom_site_occupancy
 _atom_site_pbe_bader_charge
 _atom_site_pbe_bader_spin_density
 _atom_site_pbe_cm5_charge
 _atom_site_pbe_ddec_charge
 _atom_site_pbe_ddec_spin_density
 _atom_site_pbe_ddec_sum_bond_order
 _atom_site_pbe_magmom
Zn  Zn0  1  0.76576154  0.20248246  0.09572729  1  1.364037  0  0.694875  0.971267  0  2.261285  0
Zn  Zn1  1  0.23423744  0.79751848  0.90427429  1  1.363941  0  0.69483  0.971205  0  2.261443  0
Zn  Zn2  1  0.59278814  0.12959801  0.09192717  1  1.28142  0  0.691391  0.838216  0  2.366189  0
Zn  Zn3  1  0.40721464  0.87040351  0.90807338  1  1.281372  0  0.691384  0.838261  0  2.365939  0
Zn  Zn4  1  0.92320026  0.15992917  0.04928005  1  1.300348  0  0.677539  0.844771  0  2.260041  0
Zn  Zn5  1  0.07680476  0.84007292  0.95072061  1  1.300092  0  0.677603  0.844883  0  2.259993  0
H  H6  1  0.55508528  0.32435004  0.19450404  1  0.08938  0  0.101616  0.104496  0  1.012865  0
H  H7  1  0.44491419  0.67565480  0.80548917  1  0.089259  0  0.101572  0.104318  0  1.012969  0
H  H8  1  0.54118379  0.44951668  0.27244616  1  0.036744  0  0.098119  0.097172  0  1.006736  0
H  H9  1  0.45881176  0.55048534  0.72754162  1  0.036803  0  0.098085  0.097116  0  1.006674  0
H  H10  1  0.77457889  0.54235933  0.34210290  1  0.076146  0  0.095335  0.095915  0  1.03201  0
H  H11  1  0.22541722  0.45764270  0.65789185  1  0.075471  0  0.095272  0.095982  0  1.031999  0
H  H12  1  0.78743459  0.41629863  0.26567170  1  0.095427  0  0.105183  0.11056  0  1.014916  0
H  H13  1  0.21256412  0.58370341  0.73432160  1  0.095812  0  0.105201  0.110571  0  1.014976  0
H  H14  1  0.56708106  0.54889337  0.39770992  1  0.064646  0  0.102059  0.102029  0  0.999191  0
H  H15  1  0.43291095  0.45110136  0.60227843  1  0.064676  0  0.102046  0.101993  0  0.999185  0
H  H16  1  0.72792878  0.63069304  0.31530797  1  0.074963  0  0.097437  0.098767  0  1.041917  0
H  H17  1  0.27207526  0.36931688  0.68469766  1  0.074797  0  0.097464  0.098802  0  1.041927  0
H  H18  1  0.60983952  0.95269654  0.14496577  1  0.112771  0  0.104358  0.105819  0  1.01012  0
H  H19  1  0.39015589  0.04729711  0.85502995  1  0.112844  0  0.104397  0.105904  0  1.010143  0
H  H20  1  0.61084866  0.87767144  0.20708110  1  0.060439  0  0.101248  0.101031  0  1.003047  0
H  H21  1  0.38914997  0.12232446  0.79291649  1  0.06063  0  0.101275  0.101025  0  1.003104  0
H  H22  1  0.62977551  0.07392459  0.40318683  1  0.052887  0  0.099275  0.098617  0  1.009965  0
H  H23  1  0.37022292  0.92607634  0.59680917  1  0.052844  0  0.099227  0.098598  0  1.009969  0
H  H24  1  0.62931624  0.14822826  0.33955740  1  0.092197  0  0.108012  0.113465  0  0.990782  0
H  H25  1  0.37067782  0.85176816  0.66043517  1  0.092156  0  0.108009  0.113491  0  0.990718  0
H  H26  1  0.55306233  0.82069110  0.25565324  1  0.089075  0  0.100284  0.097911  0  1.010111  0
H  H27  1  0.44692852  0.17930868  0.74434897  1  0.089052  0  0.100281  0.097893  0  1.01014  0
H  H28  1  0.55397437  0.74651252  0.31809876  1  0.05609  0  0.106499  0.117637  0  0.991596  0
H  H29  1  0.44601934  0.25349007  0.68190689  1  0.056001  0  0.106485  0.117579  0  0.991682  0
H  H30  1  0.68763886  0.01713735  0.44889212  1  0.014119  0  0.102648  0.10125  0  1.002132  0
H  H31  1  0.31235926  0.98286246  0.55110474  1  0.014102  0  0.102649  0.101267  0  1.002123  0
H  H32  1  0.52758541  0.00951164  0.86350226  1  0.087631  0  0.100518  0.102111  0  1.031731  0
H  H33  1  0.47241642  0.99048820  0.13650296  1  0.087624  0  0.100506  0.102093  0  1.031738  0
H  H34  1  0.51480375  0.93483466  0.73477115  1  0.08074  0  0.09597  0.097943  0  1.050582  0
H  H35  1  0.48519403  0.06515791  0.26523501  1  0.080745  0  0.095972  0.097992  0  1.050535  0
H  H36  1  0.74589454  0.96060403  0.78209893  1  0.077353  0  0.094687  0.09501  0  1.050897  0
H  H37  1  0.25410394  0.03938741  0.21790045  1  0.077397  0  0.094669  0.094989  0  1.050955  0
H  H38  1  0.75786333  0.03424149  0.91055434  1  0.130751  0  0.102232  0.117383  0  1.027153  0
H  H39  1  0.24214011  0.96575668  0.08944719  1  0.130847  0  0.10222  0.117362  0  1.027235  0
H  H40  1  0.54268691  0.94820839  0.64086655  1  0.079157  0  0.099153  0.09868  0  1.010898  0
H  H41  1  0.45730479  0.05178302  0.35913549  1  0.078768  0  0.099159  0.098674  0  1.010887  0
H  H42  1  0.53893652  0.88573398  0.51365340  1  0.085442  0  0.104454  0.114552  0  0.99493  0
H  H43  1  0.46105206  0.11426523  0.48634457  1  0.08558  0  0.104483  0.114666  0  0.995051  0
H  H44  1  0.69687937  0.77882691  0.55626706  1  0.082867  0  0.102643  0.110021  0  1.013881  0
H  H45  1  0.30311742  0.22117178  0.44373189  1  0.082895  0  0.102636  0.10985  0  1.013848  0
H  H46  1  0.70168176  0.84207806  0.68384659  1  0.058826  0  0.100429  0.098994  0  1.006906  0
H  H47  1  0.29831473  0.15791951  0.31615277  1  0.058923  0  0.100443  0.098971  0  1.006958  0
H  H48  1  0.68711542  0.94315451  0.51139784  1  0.042904  0  0.107818  0.12034  0  0.99169  0
H  H49  1  0.31288290  0.05684977  0.48860231  1  0.042915  0  0.10781  0.12032  0  0.991635  0
H  H50  1  0.71115789  0.75671977  0.37539558  1  0.05499  0  0.101826  0.108333  0  1.02495  0
H  H51  1  0.28884605  0.24328961  0.62461897  1  0.05493  0  0.101831  0.108344  0  1.02495  0
H  H52  1  0.55066538  0.67575856  0.45846606  1  0.056506  0  0.106634  0.11753  0  0.990585  0
H  H53  1  0.44932703  0.32423562  0.54152716  1  0.05647  0  0.10661  0.117545  0  0.990498  0
H  H54  1  0.45625537  0.04545545  0.96862921  1  0.141278  0  0.121625  0.097576  0  1.021982  0
H  H55  1  0.54374716  0.95454327  0.03136830  1  0.141397  0  0.121643  0.097603  0  1.022012  0
H  H56  1  0.50197059  0.18850012  0.18478429  1  0.164484  0  0.126091  0.109484  0  0.998169  0
H  H57  1  0.49803110  0.81149356  0.81521328  1  0.164712  0  0.12613  0.109554  0  0.998069  0
H  H58  1  0.36950701  0.18636991  0.17408591  1  0.118606  0  0.115519  0.122746  0  1.003855  0
H  H59  1  0.63049610  0.81362323  0.82591209  1  0.117985  0  0.115514  0.122704  0  1.003791  0
H  H60  1  0.32294738  0.03501494  0.94913543  1  0.170905  0  0.123243  0.144645  0  0.979279  0
H  H61  1  0.67705440  0.96498489  0.05086197  1  0.170957  0  0.123243  0.144662  0  0.979283  0
H  H62  1  0.79393534  0.21657457  0.96277805  1  0.131541  0  0.124879  0.06479  0  1.0029  0
H  H63  1  0.20606278  0.78343475  0.03722371  1  0.131522  0  0.124885  0.06479  0  1.003135  0
H  H64  1  0.60725275  0.23478240  0.86676863  1  0.040946  0  0.102293  0.108526  0  0.983957  0
H  H65  1  0.39274448  0.76522187  0.13322538  1  0.04071  0  0.102374  0.108621  0  0.983935  0
H  H66  1  0.60356765  0.20570112  0.93271067  1  0.121855  0  0.1169  0.143456  0  0.982554  0
H  H67  1  0.39642838  0.79430258  0.06728248  1  0.121802  0  0.11691  0.143513  0  0.982437  0
H  H68  1  0.58617473  0.13731921  0.84129677  1  0.063095  0  0.10261  0.11494  0  1.004653  0
H  H69  1  0.41382472  0.86268171  0.15869572  1  0.062898  0  0.102638  0.11492  0  1.004767  0
H  H70  1  0.78366324  0.18336076  0.85319470  1  0.106232  0  0.112959  0.129042  0  1.005207  0
H  H71  1  0.21633753  0.81665249  0.14681047  1  0.106272  0  0.112874  0.129027  0  1.005097  0
H  H72  1  0.71868190  0.21305049  0.81120414  1  0.050063  0  0.104014  0.112956  0  0.978937  0
H  H73  1  0.28132190  0.78696053  0.18879870  1  0.050845  0  0.103981  0.11296  0  0.979038  0
H  H74  1  0.69770871  0.11847584  0.79533307  1  0.061164  0  0.104036  0.119746  0  0.991601  0
H  H75  1  0.30229717  0.88153519  0.20466733  1  0.061079  0  0.104008  0.119773  0  0.991581  0
H  H76  1  0.00163780  0.05367303  0.96746615  1  0.142903  0  0.119805  0.092779  0  1.01482  0
H  H77  1  0.99836511  0.94632514  0.03253302  1  0.142945  0  0.119818  0.092773  0  1.014882  0
H  H78  1  0.12660849  0.03336692  0.98328107  1  0.146202  0  0.118835  0.138363  0  1.022265  0
H  H79  1  0.87339337  0.96662733  0.01671952  1  0.145879  0  0.118884  0.138358  0  1.022238  0
H  H80  1  0.06151479  0.23688823  0.16825313  1  0.157028  0  0.127006  0.110807  0  0.995632  0
H  H81  1  0.93849181  0.76310996  0.83175117  1  0.156786  0  0.127001  0.110818  0  0.995672  0
H  H82  1  0.18875113  0.22376037  0.19422938  1  0.108471  0  0.117125  0.127394  0  0.983105  0
H  H83  1  0.81125296  0.77623054  0.80577243  1  0.10848  0  0.11706  0.127353  0  0.983025  0
H  H84  1  0.94241298  0.03388500  0.14579262  1  0.068034  0  0.098295  0.098662  0  1.020779  0
H  H85  1  0.05758927  0.96611260  0.85420805  1  0.068024  0  0.098309  0.098724  0  1.020759  0
H  H86  1  0.94519133  0.95650628  0.20446851  1  0.058232  0  0.097274  0.098697  0  1.028884  0
H  H87  1  0.05480763  0.04349075  0.79553098  1  0.058292  0  0.09728  0.098616  0  1.028923  0
H  H88  1  0.96208545  0.91932123  0.27255194  1  0.080972  0  0.097612  0.094875  0  1.049356  0
H  H89  1  0.03791500  0.08068309  0.72745677  1  0.081156  0  0.097612  0.094928  0  1.049262  0
H  H90  1  0.75488831  0.94502732  0.30991982  1  0.074342  0  0.096292  0.092783  0  1.05794  0
H  H91  1  0.24510974  0.05497977  0.69008421  1  0.074499  0  0.096243  0.092739  0  1.058049  0
H  H92  1  0.00787614  0.40880888  0.24819429  1  0.075595  0  0.104911  0.106521  0  0.996648  0
H  H93  1  0.99212401  0.59118872  0.75180607  1  0.075789  0  0.104899  0.10645  0  0.996673  0
H  H94  1  0.99590596  0.53662304  0.31654144  1  0.041594  0  0.099711  0.098057  0  1.009651  0
H  H95  1  0.00409607  0.46337568  0.68345967  1  0.041649  0  0.09972  0.098044  0  1.009642  0
H  H96  1  0.79539043  0.47635954  0.15824721  1  0.057059  0  0.10208  0.101504  0  1.003097  0
H  H97  1  0.20461317  0.52364310  0.84175301  1  0.057001  0  0.102098  0.101554  0  1.003092  0
H  H98  1  0.80727064  0.34926143  0.09162777  1  0.09574  0  0.102984  0.107174  0  1.033326  0
H  H99  1  0.19273057  0.65074008  0.90837255  1  0.095719  0  0.102966  0.107192  0  1.033294  0
H  H100  1  0.94144103  0.61079433  0.38633668  1  0.060788  0  0.102593  0.100983  0  1.001278  0
H  H101  1  0.05856273  0.38920888  0.61366518  1  0.060794  0  0.102583  0.100984  0  1.001257  0
H  H102  1  0.88942350  0.96498194  0.84061254  1  0.068952  0  0.098372  0.098933  0  1.023556  0
H  H103  1  0.11058425  0.03501291  0.15938824  1  0.069061  0  0.098385  0.098982  0  1.023652  0
H  H104  1  0.88468353  0.88936839  0.71396681  1  0.055651  0  0.098869  0.096591  0  1.011586  0
H  H105  1  0.11532378  0.11062868  0.28603299  1  0.055411  0  0.098869  0.096571  0  1.011659  0
H  H106  1  0.88942597  0.08366072  0.68667522  1  0.044224  0  0.098666  0.097994  0  1.009878  0
H  H107  1  0.11057989  0.91633859  0.31332898  1  0.044212  0  0.098677  0.098004  0  1.009995  0
H  H108  1  0.90284108  0.16009189  0.81572188  1  0.081619  0  0.104615  0.10975  0  0.998018  0
H  H109  1  0.09716582  0.83990742  0.18428293  1  0.081837  0  0.104538  0.109722  0  0.99797  0
H  H110  1  0.82625303  0.82929941  0.60267790  1  0.044734  0  0.098519  0.094872  0  1.016692  0
H  H111  1  0.17374803  0.17070155  0.39732308  1  0.044735  0  0.09851  0.094867  0  1.016663  0
H  H112  1  0.81690463  0.75616504  0.47595137  1  0.080903  0  0.101967  0.110529  0  1.020632  0
H  H113  1  0.18309449  0.24383646  0.52404864  1  0.080893  0  0.101953  0.110478  0  1.020644  0
H  H114  1  0.92719807  0.95717066  0.47813766  1  0.062906  0  0.103113  0.113556  0  1.012019  0
H  H115  1  0.07280210  0.04283085  0.52186296  1  0.062904  0  0.10312  0.113568  0  1.011993  0
H  H116  1  0.93647311  0.02981716  0.60438563  1  0.039857  0  0.096832  0.090739  0  1.03903  0
H  H117  1  0.06353026  0.97018269  0.39561568  1  0.039814  0  0.096825  0.090726  0  1.038992  0
H  H118  1  0.96351796  0.84201817  0.33152107  1  0.05788  0  0.105496  0.112402  0  0.989882  0
H  H119  1  0.03647686  0.15798276  0.66848404  1  0.057785  0  0.105497  0.112415  0  0.989874  0
H  H120  1  0.75948238  0.87180385  0.37251751  1  0.085463  0  0.099697  0.107451  0  1.036621  0
H  H121  1  0.24051257  0.12819763  0.62748326  1  0.085087  0  0.099727  0.107422  0  1.036648  0
H  H122  1  0.93037638  0.73746305  0.45231567  1  0.056135  0  0.104098  0.115429  0  1.007292  0
H  H123  1  0.06962431  0.26253845  0.54768458  1  0.056161  0  0.104119  0.115456  0  1.007256  0
H  H124  1  0.83007962  0.59471118  0.18968039  1  0.089141  0  0.103965  0.103199  0  1.000675  0
H  H125  1  0.16992683  0.40529036  0.81032162  1  0.088904  0  0.103988  0.103218  0  1.000656  0
H  H126  1  0.81571735  0.71998150  0.25572496  1  0.074993  0  0.105281  0.115501  0  1.000632  0
H  H127  1  0.18428571  0.28001722  0.74427447  1  0.074874  0  0.105283  0.115508  0  1.000662  0
H  H128  1  0.76773620  0.10485743  0.22740742  1  0.094303  0  0.104498  0.112472  0  1.011751  0
H  H129  1  0.23227373  0.89514917  0.77260134  1  0.09408  0  0.104489  0.112444  0  1.011764  0
H  H130  1  0.77077959  0.03021681  0.28947867  1  0.048783  0  0.094251  0.092805  0  1.042646  0
H  H131  1  0.22922660  0.96978753  0.71052722  1  0.048732  0  0.094213  0.092719  0  1.042758  0
C  C132  1  0.67901128  0.28942204  0.17369346  1  1.569192  0  0.226681  0.612714  0  4.150054  0
C  C133  1  0.32098750  0.71057832  0.82630052  1  1.568642  0  0.226664  0.612778  0  4.149784  0
C  C134  1  0.67201281  0.36310478  0.22459358  1  -0.076676  0  -0.019432  -0.042426  0  3.965764  0
C  C135  1  0.32798807  0.63689950  0.77539869  1  -0.076578  0  -0.01942  -0.042542  0  3.965902  0
C  C136  1  0.60275210  0.37238536  0.22798970  1  -0.074375  0  -0.083502  -0.0797  0  3.984994  0
C  C137  1  0.39724683  0.62761947  0.77200114  1  -0.07375  0  -0.083528  -0.079436  0  3.98499  0
C  C138  1  0.59533083  0.44219012  0.27169320  1  0.021536  0  -0.096979  -0.145711  0  4.000781  0
C  C139  1  0.40466541  0.55781247  0.72829768  1  0.020664  0  -0.096905  -0.14554  0  4.000605  0
C  C140  1  0.65692094  0.50483643  0.31201258  1  0.00023  0  -0.004622  0.077817  0  4.008768  0
C  C141  1  0.34307672  0.49516560  0.68797965  1  0.000193  0  -0.004573  0.077779  0  4.0088  0
C  C142  1  0.72629037  0.49452536  0.31006360  1  -0.096729  0  -0.09496  -0.140411  0  3.976998  0
C  C143  1  0.27370677  0.50547667  0.68992993  1  -0.096289  0  -0.094972  -0.140579  0  3.977128  0
C  C144  1  0.73384669  0.42439559  0.26742392  1  0.021964  0  -0.08125  -0.077037  0  3.970747  0
C  C145  1  0.26615203  0.57560645  0.73256984  1  0.022327  0  -0.08124  -0.077102  0  3.970894  0
C  C146  1  0.64849029  0.58031075  0.35173079  1  0.021496  0  -0.015306  0.05276  0  4.020617  0
C  C147  1  0.35150845  0.41969130  0.64826619  1  0.021332  0  -0.015205  0.053001  0  4.020566  0
C  C148  1  0.59859618  0.59433690  0.39244246  1  -0.074279  0  -0.093385  -0.121381  0  4.013223  0
C  C149  1  0.40139539  0.40566006  0.60754676  1  -0.0741  0  -0.093457  -0.121481  0  4.013446  0
C  C150  1  0.68905930  0.64021973  0.34677410  1  -0.025812  0  -0.093052  -0.118422  0  3.986192  0
C  C151  1  0.31094415  0.35978796  0.65323325  1  -0.02562  0  -0.093179  -0.118686  0  3.986221  0
C  C152  1  0.61421616  0.10074225  0.20091842  1  1.533638  0  0.195894  0.555798  0  4.236594  0
C  C153  1  0.38577834  0.89925195  0.79907465  1  1.533243  0  0.196007  0.555986  0  4.236408  0
C  C154  1  0.61944608  0.05534414  0.23836468  1  0.022695  0  -0.018438  -0.034175  0  3.963571  0
C  C155  1  0.38054768  0.94465117  0.76162921  1  0.023094  0  -0.018346  -0.034008  0  3.963467  0
C  C156  1  0.61387371  0.97883915  0.20154336  1  -0.130493  0  -0.083025  -0.087295  0  3.985147  0
C  C157  1  0.38612313  0.02115786  0.79845260  1  -0.130658  0  -0.083083  -0.087438  0  3.985422  0
C  C158  1  0.61372282  0.93676168  0.23663745  1  -0.005001  0  -0.094037  -0.142209  0  3.990521  0
C  C159  1  0.38627216  0.06323420  0.76335961  1  -0.004976  0  -0.094084  -0.142272  0  3.990761  0
C  C160  1  0.61967495  0.96973231  0.30997645  1  -0.080036  0  -0.010158  0.063482  0  4.023604  0
C  C161  1  0.38032229  0.03026805  0.69002097  1  -0.080113  0  -0.010185  0.063547  0  4.023593  0
C  C162  1  0.62624293  0.04696237  0.34663701  1  -0.114986  0  -0.095843  -0.146406  0  3.999872  0
C  C163  1  0.37375446  0.95303855  0.65335975  1  -0.114974  0  -0.09575  -0.146384  0  3.999824  0
C  C164  1  0.62590907  0.08889971  0.31148020  1  0.007992  0  -0.080391  -0.087212  0  3.986943  0
C  C165  1  0.37408597  0.91109841  0.68851413  1  0.007959  0  -0.080455  -0.087335  0  3.986884  0
C  C166  1  0.61961052  0.92530797  0.34729484  1  -0.021618  0  -0.020305  0.040581  0  4.02353  0
C  C167  1  0.38038687  0.07469296  0.65270376  1  -0.021464  0  -0.020323  0.04065  0  4.023649  0
C  C168  1  0.58335862  0.84807067  0.31165713  1  -0.031305  0  -0.092637  -0.117769  0  4.011008  0
C  C169  1  0.41663416  0.15192856  0.68834330  1  -0.032005  0  -0.092599  -0.117785  0  4.011149  0
C  C170  1  0.58309889  0.80604211  0.34664449  1  -0.098969  0  -0.099939  -0.177857  0  4.014282  0
C  C171  1  0.41689571  0.19395993  0.65335968  1  -0.098331  0  -0.099919  -0.177753  0  4.014203  0
C  C172  1  0.65639496  0.95820352  0.42001760  1  0.042473  0  -0.090052  -0.114172  0  4.002389  0
C  C173  1  0.34360385  0.04179686  0.57998144  1  0.042424  0  -0.090082  -0.114337  0  4.002519  0
C  C174  1  0.65075011  0.07270718  0.97224833  1  1.52489  0  0.214162  0.587423  0  4.193137  0
C  C175  1  0.34925231  0.92729490  0.02775470  1  1.524794  0  0.214155  0.58733  0  4.193214  0
C  C176  1  0.64334680  0.02698831  0.89518778  1  -0.002847  0  -0.028342  -0.061601  0  3.993681  0
C  C177  1  0.35665533  0.97301265  0.10481611  1  -0.002341  0  -0.028331  -0.061524  0  3.993659  0
C  C178  1  0.57513331  0.99874506  0.84501293  1  -0.017791  0  -0.087855  -0.088222  0  3.992355  0
C  C179  1  0.42486919  0.00125534  0.15499078  1  -0.018263  0  -0.087791  -0.088112  0  3.992003  0
C  C180  1  0.56838181  0.95730018  0.77290053  1  -0.077028  0  -0.095305  -0.143692  0  3.977936  0
C  C181  1  0.43161664  0.04269685  0.22710256  1  -0.077061  0  -0.095345  -0.14378  0  3.977707  0
C  C182  1  0.62952869  0.94242594  0.74884424  1  -0.088089  0  -0.005833  0.074408  0  4.007656  0
C  C183  1  0.37046787  0.05756996  0.25115626  1  -0.088107  0  -0.005817  0.074378  0  4.007484  0
C  C184  1  0.69758155  0.97017185  0.79968688  1  -0.08009  0  -0.095077  -0.142799  0  3.97901  0
C  C185  1  0.30241628  0.02982293  0.20031288  1  -0.080127  0  -0.095076  -0.142716  0  3.978816  0
C  C186  1  0.70465384  0.01219632  0.87186529  1  -0.024397  0  -0.087254  -0.087025  0  3.961834  0
C  C187  1  0.29534795  0.98779961  0.12813506  1  -0.024512  0  -0.087264  -0.087108  0  3.961878  0
C  C188  1  0.62346111  0.90093709  0.67235046  1  0.01127  0  -0.015866  0.049756  0  4.015518  0
C  C189  1  0.37653352  0.09905935  0.32764999  1  0.011196  0  -0.015891  0.049635  0  4.015729  0
C  C190  1  0.57673216  0.91105979  0.62269096  1  0.033945  0  -0.091194  -0.111469  0  3.996347  0
C  C191  1  0.42326233  0.08893610  0.37731199  1  0.033685  0  -0.091229  -0.111403  0  3.99646  0
C  C192  1  0.57441109  0.87609714  0.55114640  1  -0.117026  0  -0.100696  -0.181307  0  4.017938  0
C  C193  1  0.42558169  0.12390209  0.44885495  1  -0.116558  0  -0.100752  -0.18164  0  4.018352  0
C  C194  1  0.61892190  0.82929978  0.52668999  1  0.313248  0  0.093539  0.180844  0  4.040682  0
C  C195  1  0.38107305  0.17070169  0.47331077  1  0.312884  0  0.093648  0.181201  0  4.040548  0
C  C196  1  0.66345376  0.81629500  0.57525186  1  -0.024648  0  -0.099049  -0.173398  0  4.011968  0
C  C197  1  0.33654184  0.18370313  0.42474760  1  -0.024951  0  -0.099068  -0.173189  0  4.011707  0
C  C198  1  0.66586871  0.85197873  0.64675765  1  -0.084245  0  -0.09076  -0.112724  0  4.002265  0
C  C199  1  0.33412410  0.14801491  0.35324136  1  -0.083774  0  -0.090771  -0.112676  0  4.002268  0
C  C200  1  0.61974765  0.83978666  0.41937246  1  0.443654  0  0.093942  0.178426  0  4.044812  0
C  C201  1  0.38024820  0.16021427  0.58063050  1  0.444122  0  0.093989  0.178478  0  4.044644  0
C  C202  1  0.65691235  0.91668516  0.45550714  1  -0.089346  0  -0.097321  -0.175668  0  4.003956  0
C  C203  1  0.34308288  0.08331352  0.54449204  1  -0.089829  0  -0.097369  -0.175607  0  4.003899  0
C  C204  1  0.67948485  0.71111582  0.38021677  1  -0.086544  0  -0.097295  -0.168639  0  4.006988  0
C  C205  1  0.32051658  0.28889018  0.61979233  1  -0.086508  0  -0.097293  -0.168544  0  4.006769  0
C  C206  1  0.58916222  0.66537718  0.42663100  1  -0.031171  0  -0.099738  -0.176994  0  4.015972  0
C  C207  1  0.41083262  0.33462205  0.57336515  1  -0.031394  0  -0.099688  -0.176947  0  4.015984  0
C  C208  1  0.43486614  0.07569494  0.01262971  1  0.486729  0  0.053737  0.106037  0  3.910774  0
C  C209  1  0.56513548  0.92430433  0.98736653  1  0.486942  0  0.053786  0.106157  0  3.910717  0
C  C210  1  0.45993681  0.15667232  0.13403336  1  0.490823  0  0.052654  0.101582  0  3.923017  0
C  C211  1  0.54006570  0.84332249  0.86596389  1  0.490334  0  0.052615  0.10155  0  3.922856  0
C  C212  1  0.38752574  0.15483907  0.12798341  1  -0.018183  0  -0.071358  -0.181  0  3.930945  0
C  C213  1  0.61247588  0.84515629  0.87201394  1  -0.017724  0  -0.071337  -0.180956  0  3.930714  0
C  C214  1  0.33712111  0.11054650  0.06063855  1  0.275795  0  0.107775  0.196123  0  4.032471  0
C  C215  1  0.66288126  0.88945166  0.93935870  1  0.275759  0  0.107756  0.196147  0  4.032265  0
C  C216  1  0.36106033  0.07058521  0.00180134  1  -0.024115  0  -0.063231  -0.166225  0  3.879563  0
C  C217  1  0.63894166  0.92941350  0.99819380  1  -0.024093  0  -0.063193  -0.166283  0  3.879517  0
C  C218  1  0.16722071  0.13010883  0.08910319  1  0.312578  0  0.110819  0.206202  0  4.038288  0
C  C219  1  0.83278228  0.86988376  0.91090053  1  0.312719  0  0.110653  0.206067  0  4.038346  0
C  C220  1  0.73695288  0.21764443  0.96066742  1  1.340224  0  0.174047  0.299021  0  4.080741  0
C  C221  1  0.26304315  0.78236487  0.03933449  1  1.340979  0  0.174106  0.298981  0  4.080541  0
C  C222  1  0.61850302  0.19389339  0.88340840  1  0.231933  0  -0.131229  -0.268773  0  3.904561  0
C  C223  1  0.38149436  0.80611144  0.11658542  1  0.232342  0  -0.131349  -0.268976  0  3.904658  0
C  C224  1  0.72547765  0.17724079  0.83555213  1  0.251073  0  -0.125344  -0.273508  0  3.925545  0
C  C225  1  0.27452390  0.82276966  0.16444923  1  0.250383  0  -0.125327  -0.273752  0  3.925578  0
C  C226  1  0.62930196  0.72452552  0.42046748  1  0.365178  0  0.088045  0.170767  0  4.049718  0
C  C227  1  0.37069703  0.27547543  0.57953594  1  0.365344  0  0.088098  0.17081  0  4.049816  0
C  C228  1  0.04550921  0.09018992  0.01624406  1  0.482085  0  0.051208  0.098596  0  3.922681  0
C  C229  1  0.95449266  0.90980824  0.98375725  1  0.481808  0  0.051163  0.098502  0  3.922757  0
C  C230  1  0.11418327  0.07950855  0.02477383  1  0.010703  0  -0.065739  -0.175111  0  3.888505  0
C  C231  1  0.88582001  0.92048515  0.97522811  1  0.011111  0  -0.065735  -0.17498  0  3.888744  0
C  C232  1  0.07856857  0.19269291  0.12958057  1  0.51387  0  0.053608  0.103567  0  3.930444  0
C  C233  1  0.92143361  0.80730247  0.87042374  1  0.513831  0  0.053581  0.103494  0  3.93083  0
C  C234  1  0.14835573  0.18547472  0.14339713  1  -0.084189  0  -0.073662  -0.194591  0  3.936739  0
C  C235  1  0.85164643  0.81451675  0.85660646  1  -0.083983  0  -0.073578  -0.194556  0  3.936632  0
C  C236  1  0.85078330  0.11680067  0.14286056  1  1.571809  0  0.219341  0.60542  0  4.176389  0
C  C237  1  0.14922181  0.88319975  0.85714400  1  1.571757  0  0.219378  0.605344  0  4.176349  0
C  C238  1  0.85408115  0.07327329  0.18194195  1  -0.054648  0  -0.023483  -0.046297  0  3.98792  0
C  C239  1  0.14592645  0.92673050  0.81806392  1  -0.054183  0  -0.023386  -0.046076  0  3.987829  0
C  C240  1  0.90446577  0.03184663  0.17685472  1  -0.006238  0  -0.089404  -0.093202  0  4.011716  0
C  C241  1  0.09553814  0.96815322  0.82314805  1  -0.006338  0  -0.089522  -0.093517  0  4.011938  0
C  C242  1  0.90600816  0.98883975  0.21070015  1  -0.029571  0  -0.094784  -0.134641  0  3.979655  0
C  C243  1  0.09399455  0.01115954  0.78930312  1  -0.029843  0  -0.094686  -0.134289  0  3.979492  0
C  C244  1  0.85751245  0.98606011  0.25139573  1  0.014941  0  -0.005249  0.073663  0  3.986989  0
C  C245  1  0.14248945  0.01394197  0.74860676  1  0.014869  0  -0.005326  0.073481  0  3.987006  0
C  C246  1  0.85849124  0.93931164  0.28650320  1  -0.028793  0  -0.008799  0.063128  0  3.985584  0
C  C247  1  0.14150737  0.06068986  0.71349903  1  -0.028719  0  -0.008778  0.063115  0  3.985621  0
C  C248  1  0.91635729  0.90824535  0.29275890  1  -0.074113  0  -0.088435  -0.112872  0  3.980946  0
C  C249  1  0.08363893  0.09175502  0.70724251  1  -0.074429  0  -0.088395  -0.112865  0  3.980999  0
C  C250  1  0.80183778  0.92414714  0.31520236  1  -0.026356  0  -0.091146  -0.111179  0  3.969819  0
C  C251  1  0.19816055  0.07585715  0.68480053  1  -0.026477  0  -0.091113  -0.111179  0  3.969857  0
C  C252  1  0.91757300  0.29544733  0.12575777  1  1.491355  0  0.213966  0.59032  0  4.13734  0
C  C253  1  0.08242378  0.70455136  0.87423981  1  1.491553  0  0.213939  0.59024  0  4.137353  0
C  C254  1  0.90878701  0.37103804  0.16540333  1  -0.000403  0  -0.021229  -0.045565  0  3.991381  0
C  C255  1  0.09121465  0.62896124  0.83459795  1  -0.000535  0  -0.021186  -0.045541  0  3.991429  0
C  C256  1  0.96143271  0.42441951  0.22922619  1  -0.05249  0  -0.081687  -0.082049  0  3.988503  0
C  C257  1  0.03856708  0.57557864  0.77077664  1  -0.052516  0  -0.081649  -0.081903  0  3.988514  0
C  C258  1  0.95420784  0.49571479  0.26730796  1  -0.021407  0  -0.094483  -0.142282  0  3.99192  0
C  C259  1  0.04579465  0.50428561  0.73269392  1  -0.021456  0  -0.094521  -0.142323  0  3.991927  0
C  C260  1  0.84300201  0.46264812  0.17783106  1  -0.043037  0  -0.090344  -0.135697  0  3.981391  0
C  C261  1  0.15700076  0.53735340  0.82216766  1  -0.042678  0  -0.090315  -0.135731  0  3.981437  0
C  C262  1  0.84926284  0.39085814  0.14020038  1  -0.000676  0  -0.080763  -0.074556  0  3.969381  0
C  C263  1  0.15073807  0.60914225  0.85979988  1  -0.000714  0  -0.08081  -0.074646  0  3.969476  0
C  C264  1  0.88697305  0.59212153  0.28241883  1  -0.070849  0  -0.019221  0.039891  0  4.025058  0
C  C265  1  0.11302861  0.40787775  0.71758291  1  -0.070992  0  -0.019248  0.039847  0  4.025092  0
C  C266  1  0.91436939  0.63452706  0.35691649  1  -0.038192  0  -0.090121  -0.113585  0  4.009774  0
C  C267  1  0.08563391  0.36547446  0.64308459  1  -0.038083  0  -0.090125  -0.113614  0  4.009667  0
C  C268  1  0.90140807  0.11357821  0.91278452  1  1.533177  0  0.187269  0.541047  0  4.257673  0
C  C269  1  0.09859493  0.88641828  0.08721809  1  1.504845  0  0.187367  0.541201  0  4.257245  0
C  C270  1  0.89571714  0.06714249  0.83585402  1  0.082534  0  -0.022977  -0.034819  0  3.983607  0
C  C271  1  0.10429056  0.93285403  0.16414836  1  0.081945  0  -0.023019  -0.034778  0  3.983463  0
C  C272  1  0.89002853  0.99050620  0.80634754  1  -0.064864  0  -0.087662  -0.093887  0  3.997506  0
C  C273  1  0.10998156  0.00949146  0.19365520  1  -0.065145  0  -0.087652  -0.093948  0  3.997412  0
C  C274  1  0.88612942  0.94813389  0.73496632  1  -0.097597  0  -0.093206  -0.139905  0  3.990807  0
C  C275  1  0.11387799  0.05186542  0.26503719  1  -0.097446  0  -0.09318  -0.139849  0  3.990825  0
C  C276  1  0.88595404  0.98033009  0.68998622  1  -0.029407  0  -0.005036  0.074388  0  4.007743  0
C  C277  1  0.11404956  0.01966864  0.31001604  1  -0.029052  0  -0.005045  0.07441  0  4.007912  0
C  C278  1  0.89103908  0.05730503  0.72028735  1  -0.062518  0  -0.094695  -0.141897  0  3.998003  0
C  C279  1  0.10896872  0.94269373  0.27971782  1  -0.06253  0  -0.094694  -0.141949  0  3.998186  0
C  C280  1  0.89710204  0.10021373  0.79208601  1  -0.033319  0  -0.087123  -0.096854  0  4.000013  0
C  C281  1  0.10290799  0.89978560  0.20791835  1  -0.03288  0  -0.087091  -0.096897  0  3.999974  0
C  C282  1  0.88148437  0.93589949  0.61429374  1  0.086346  0  -0.020094  0.042975  0  4.018584  0
C  C283  1  0.11851796  0.06410035  0.38570788  1  0.08628  0  -0.020137  0.042871  0  4.018721  0
C  C284  1  0.84959689  0.85784049  0.57610246  1  -0.150627  0  -0.090194  -0.110417  0  4.003536  0
C  C285  1  0.15040140  0.14215988  0.42389696  1  -0.150586  0  -0.090153  -0.110361  0  4.003525  0
C  C286  1  0.84427269  0.81602523  0.50437127  1  0.001292  0  -0.100964  -0.1794  0  4.009122  0
C  C287  1  0.15572769  0.18397515  0.49562846  1  0.001279  0  -0.10095  -0.179315  0  4.009039  0
C  C288  1  0.87180340  0.85106627  0.46756727  1  0.335376  0  0.093907  0.18514  0  4.027645  0
C  C289  1  0.12819684  0.14893355  0.53243312  1  0.335378  0  0.093887  0.184984  0  4.027751  0
C  C290  1  0.90468807  0.92898500  0.50532971  1  0.019418  0  -0.102553  -0.179329  0  4.001209  0
C  C291  1  0.09531284  0.07101539  0.49467009  1  0.019377  0  -0.102594  -0.17941  0  4.001347  0
C  C292  1  0.90895033  0.97001294  0.57673815  1  -0.110407  0  -0.091853  -0.109128  0  4.008873  0
C  C293  1  0.09105042  0.02998689  0.42326232  1  -0.110415  0  -0.091777  -0.108948  0  4.008882  0
C  C294  1  0.86195442  0.85221854  0.35608973  1  0.24474  0  0.084973  0.163582  0  4.061929  0
C  C295  1  0.13803976  0.14778013  0.64390975  1  0.245533  0  0.084923  0.163527  0  4.061981  0
C  C296  1  0.91806826  0.86521608  0.32664277  1  0.005234  0  -0.093901  -0.166721  0  4.015434  0
C  C297  1  0.08192551  0.13478484  0.67336034  1  0.004873  0  -0.093879  -0.166728  0  4.015418  0
C  C298  1  0.80347766  0.88168201  0.34976354  1  -0.04368  0  -0.096301  -0.168932  0  4.0057  0
C  C299  1  0.19651630  0.11831777  0.65023409  1  -0.0433  0  -0.096299  -0.168833  0  4.005626  0
C  C300  1  0.87186080  0.73839104  0.35904573  1  0.357765  0  0.095921  0.187493  0  4.03763  0
C  C301  1  0.12814146  0.26161048  0.64095566  1  0.357504  0  0.095865  0.18743  0  4.037601  0
C  C302  1  0.90749546  0.70611485  0.39479546  1  0.011662  0  -0.104314  -0.188834  0  4.007642  0
C  C303  1  0.09250680  0.29388666  0.60520547  1  0.011679  0  -0.10426  -0.188763  0  4.007443  0
C  C304  1  0.85119492  0.62497566  0.24745119  1  -0.068105  0  -0.088827  -0.111644  0  4.007224  0
C  C305  1  0.14880645  0.37502641  0.75254984  1  -0.067928  0  -0.088813  -0.111567  0  4.007229  0
C  C306  1  0.84327988  0.69601656  0.28451799  1  -0.061126  0  -0.101176  -0.183471  0  4.01203  0
C  C307  1  0.15672432  0.30398440  0.71548207  1  -0.060774  0  -0.101182  -0.183575  0  4.012116  0
C  C308  1  0.80638016  0.07209333  0.22314874  1  -0.015202  0  -0.084345  -0.082728  0  3.97229  0
C  C309  1  0.19362977  0.92791327  0.77685956  1  -0.015052  0  -0.084226  -0.082547  0  3.971955  0
C  C310  1  0.89494507  0.51659766  0.24234274  1  -0.001136  0  -0.003257  0.076293  0  4.00102  0
C  C311  1  0.10505844  0.48340275  0.75765700  1  -0.001427  0  -0.003215  0.076386  0  4.000938  0
C  C312  1  0.80829659  0.02939724  0.25742475  1  -0.067365  0  -0.092832  -0.131913  0  3.971921  0
C  C313  1  0.19170849  0.97060877  0.74258260  1  -0.06713  0  -0.092978  -0.132015  0  3.972012  0
N  N314  1  0.48310603  0.11783117  0.07720219  1  -1.237637  0  -0.322381  -0.217618  0  3.534094  0
N  N315  1  0.51689656  0.88216587  0.92279416  1  -1.237498  0  -0.322443  -0.217765  0  3.534125  0
N  N316  1  0.26208819  0.10600911  0.04743012  1  -0.432161  0  -0.119829  -0.091309  0  3.200796  0
N  N317  1  0.73791577  0.89398907  0.95257012  1  -0.432277  0  -0.119829  -0.091244  0  3.200504  0
N  N318  1  0.24094824  0.13040658  0.10295849  1  -0.450707  0  -0.123659  -0.106467  0  3.229769  0
N  N319  1  0.75905735  0.86958601  0.89704286  1  -0.450478  0  -0.12356  -0.106472  0  3.229676  0
N  N320  1  0.02838174  0.14658902  0.06672876  1  -1.229739  0  -0.311492  -0.212223  0  3.516724  0
N  N321  1  0.97162244  0.85340804  0.93327287  1  -1.229738  0  -0.311487  -0.21216  0  3.51682  0
N  N322  1  0.69556236  0.19857503  0.89604891  1  -1.186187  0  -0.283434  0.024671  0  3.726286  0
N  N323  1  0.30443594  0.80143316  0.10394736  1  -1.18702  0  -0.283252  0.025151  0  3.726213  0
N  N324  1  0.61970589  0.79694944  0.45473638  1  -1.206129  0  -0.255639  -0.154843  0  3.679215  0
N  N325  1  0.38028959  0.20305204  0.54526538  1  -1.205859  0  -0.255613  -0.155041  0  3.67947  0
N  N326  1  0.86547237  0.81136540  0.39432201  1  -1.205155  0  -0.253182  -0.154938  0  3.679867  0
N  N327  1  0.13452219  0.18863272  0.60567776  1  -1.20546  0  -0.253232  -0.154851  0  3.679892  0
O  O328  1  0.61991983  0.23850315  0.13243474  1  -1.184813  0  -0.322316  -0.562313  0  2.417193  0
O  O329  1  0.38007747  0.76149554  0.86756200  1  -1.184721  0  -0.322362  -0.562381  0  2.417186  0
O  O330  1  0.74289562  0.28256666  0.17337728  1  -1.148488  0  -0.305776  -0.537074  0  2.348118  0
O  O331  1  0.25709980  0.71743089  0.82661825  1  -1.148358  0  -0.305714  -0.537049  0  2.347794  0
O  O332  1  0.61912653  0.06925441  0.13560510  1  -1.154043  0  -0.335646  -0.573366  0  2.324146  0
O  O333  1  0.38087472  0.93074541  0.86439040  1  -1.153939  0  -0.335719  -0.573496  0  2.323916  0
O  O334  1  0.71424765  0.09931569  0.01554727  1  -1.186533  0  -0.318575  -0.568609  0  2.382016  0
O  O335  1  0.28575497  0.90068526  0.98445073  1  -1.186344  0  -0.318526  -0.568573  0  2.382059  0
O  O336  1  0.59243136  0.08181566  0.99041319  1  -1.170844  0  -0.315556  -0.542572  0  2.361855  0
O  O337  1  0.40757121  0.91818698  0.00959010  1  -1.170899  0  -0.315614  -0.542608  0  2.361842  0
O  O338  1  0.60341860  0.16336201  0.23108043  1  -1.165748  0  -0.325107  -0.543733  0  2.102032  0
O  O339  1  0.39657156  0.83663160  0.76891039  1  -1.16575  0  -0.325146  -0.543799  0  2.102152  0
O  O340  1  0.71421526  0.23508302  0.01465714  1  -1.16242  0  -0.302666  -0.468319  0  2.321419  0
O  O341  1  0.28578196  0.76491734  0.98533799  1  -1.162283  0  -0.302755  -0.468449  0  2.320994  0
O  O342  1  0.81203253  0.16186811  0.15691531  1  -1.177772  0  -0.317533  -0.552452  0  2.314946  0
O  O343  1  0.18797123  0.83813118  0.84308858  1  -1.177896  0  -0.317596  -0.552465  0  2.315087  0
O  O344  1  0.86133606  0.23984166  0.07784396  1  -1.179473  0  -0.320991  -0.585676  0  2.453392  0
O  O345  1  0.13865971  0.76016093  0.92215648  1  -1.179309  0  -0.321034  -0.58563  0  2.453294  0
O  O346  1  0.97832048  0.28314537  0.13608743  1  -1.159311  0  -0.304619  -0.529421  0  2.176911  0
O  O347  1  0.02167693  0.71684996  0.86390517  1  -1.159559  0  -0.304611  -0.529407  0  2.176999  0
O  O348  1  0.88854670  0.07732074  0.94735864  1  -1.167394  0  -0.33638  -0.562388  0  2.28083  0
O  O349  1  0.11145340  0.92267853  0.05264470  1  -1.167312  0  -0.336376  -0.562497  0  2.280783  0
O  O350  1  0.88784020  0.10411250  0.09765323  1  -1.186422  0  -0.327944  -0.564976  0  2.378472  0
O  O351  1  0.11216718  0.89589241  0.90235354  1  -1.186292  0  -0.32791  -0.564955  0  2.378471  0
O  O352  1  0.91897434  0.18378344  0.94181256  1  -1.182287  0  -0.338015  -0.557432  0  2.085063  0
O  O353  1  0.08102955  0.81621250  0.05818948  1  -1.153929  0  -0.338074  -0.557472  0  2.084742  0
