# generated using pymatgen
data_MnH14C8(NO3)2
_symmetry_space_group_name_H-M   'P 1'
_cell_length_a   8.00067235
_cell_length_b   10.14811498
_cell_length_c   14.92216717
_cell_angle_alpha   89.99969800
_cell_angle_beta   90.00009222
_cell_angle_gamma   89.99991295
_symmetry_Int_Tables_number   1
_chemical_formula_structural   MnH14C8(NO3)2
_chemical_formula_sum   'Mn4 H56 C32 N8 O24'
_cell_volume   1211.55676029
_cell_formula_units_Z   4
loop_
 _symmetry_equiv_pos_site_id
 _symmetry_equiv_pos_as_xyz
  1  'x, y, z'
loop_
 _atom_site_type_symbol
 _atom_site_label
 _atom_site_symmetry_multiplicity
 _atom_site_fract_x
 _atom_site_fract_y
 _atom_site_fract_z
 _atom_site_occupancy
 _atom_site_hle17_ddec_charge
 _atom_site_hle17_ddec_spin_density
 _atom_site_hle17_ddec_sum_bond_order
 _atom_site_hle17_magmom
 _atom_site_hse06_10hf_ddec_charge
 _atom_site_hse06_10hf_ddec_spin_density
 _atom_site_hse06_10hf_ddec_sum_bond_order
 _atom_site_hse06_10hf_magmom
 _atom_site_hse06_ddec_charge
 _atom_site_hse06_ddec_spin_density
 _atom_site_hse06_ddec_sum_bond_order
 _atom_site_hse06_magmom
 _atom_site_pbe_cm5_charge
 _atom_site_pbe_ddec_charge
 _atom_site_pbe_ddec_spin_density
 _atom_site_pbe_ddec_sum_bond_order
 _atom_site_pbe_magmom
Mn  Mn0  1  0.16146023  0.74999830  0.49999918  1  1.149477  4.799982  1.760111  4.681  0.999017  4.730616  2.254461  4.55  1.059319  4.769606  2.185629  4.609  0.567633  0.949844  4.692011  2.307402  4.494
Mn  Mn1  1  0.33854036  0.24999892  0.99999989  1  1.149436  4.799987  1.760152  4.681  0.998964  4.730622  2.254499  4.55  1.059267  4.769611  2.185671  4.609  0.567615  0.949794  4.69202  2.307438  4.494
Mn  Mn2  1  0.83854006  0.24999863  0.50000168  1  1.149466  4.799987  1.760079  4.681  0.998994  4.730624  2.254422  4.55  1.059298  4.769614  2.18559  4.609  0.567627  0.949824  4.692023  2.307363  4.494
Mn  Mn3  1  0.66146119  0.74999899  0.00000030  1  1.149527  4.799976  1.760018  4.681  0.99904  4.730615  2.25437  4.55  1.059347  4.769606  2.185534  4.609  0.567642  0.949872  4.692011  2.30731  4.494
H  H4  1  0.47428245  0.88031128  0.42467356  1  0.047889  0.00012  0.922455  0.0  0.056538  0.000366  0.990551  0.0  0.058628  0.000163  0.98536  0.0  0.128735  0.054751  0.000594  0.994479  0.0
H  H5  1  0.02571509  0.38031564  0.07532553  1  0.047922  0.000125  0.922327  0.0  0.056513  0.000366  0.990479  0.0  0.058647  0.000163  0.985235  0.0  0.12872  0.054711  0.000594  0.994421  0.0
H  H6  1  0.47428418  0.61968790  0.57532506  1  0.047908  0.00012  0.92241  0.0  0.056526  0.000366  0.990539  0.0  0.058614  0.000163  0.985352  0.0  0.128747  0.054738  0.000594  0.994468  0.0
H  H7  1  0.02571666  0.11968358  0.92467447  1  0.047883  0.000126  0.922384  0.0  0.056496  0.000366  0.990523  0.0  0.058608  0.000163  0.985304  0.0  0.128714  0.054692  0.000594  0.994467  0.0
H  H8  1  0.52571784  0.11968860  0.57532663  1  0.047849  0.000123  0.922473  0.0  0.056507  0.000366  0.990563  0.0  0.058596  0.000163  0.985373  0.0  0.12874  0.054718  0.000595  0.994493  0.0
H  H9  1  0.97428270  0.61968425  0.92467399  1  0.047886  0.000122  0.922344  0.0  0.056496  0.000366  0.990479  0.0  0.05861  0.000163  0.985258  0.0  0.128727  0.054692  0.000594  0.994422  0.0
H  H10  1  0.52571736  0.38031199  0.42467379  1  0.04787  0.000121  0.922443  0.0  0.056517  0.000366  0.990544  0.0  0.058607  0.000163  0.985351  0.0  0.128743  0.054729  0.000594  0.994471  0.0
H  H11  1  0.97428114  0.88031630  0.07532505  1  0.047855  0.00012  0.922436  0.0  0.056476  0.000366  0.990567  0.0  0.058565  0.000163  0.985379  0.0  0.128744  0.054703  0.000594  0.994479  0.0
H  H12  1  0.70115947  0.95231589  0.36286481  1  0.105613  -0.00034  0.954369  0.0  0.122445  -0.000372  1.024021  0.0  0.123657  -0.000399  1.023293  0.0  0.109031  0.121538  -0.000336  1.02452  0.0
H  H13  1  0.79883639  0.45231549  0.13713780  1  0.105645  -0.00035  0.954356  0.0  0.122482  -0.000372  1.024002  0.0  0.123693  -0.000399  1.023279  0.0  0.10903  0.121575  -0.000336  1.024497  0.0
H  H14  1  0.70116028  0.54768498  0.63713467  1  0.105607  -0.000345  0.954377  0.0  0.122445  -0.000371  1.024016  0.0  0.123656  -0.000399  1.023291  0.0  0.109033  0.121537  -0.000336  1.024514  0.0
H  H15  1  0.79883540  0.04768477  0.86286218  1  0.105652  -0.00036  0.954337  0.0  0.122475  -0.000372  1.023999  0.0  0.123686  -0.000399  1.023275  0.0  0.109021  0.121569  -0.000336  1.024496  0.0
H  H16  1  0.29883958  0.04768695  0.63713538  1  0.10563  -0.000351  0.954343  0.0  0.122462  -0.000372  1.02399  0.0  0.123674  -0.000399  1.023265  0.0  0.109036  0.121556  -0.000336  1.024486  0.0
H  H17  1  0.20116265  0.54768439  0.86286240  1  0.105625  -0.000341  0.954379  0.0  0.122463  -0.000372  1.02402  0.0  0.123674  -0.000399  1.023296  0.0  0.109024  0.121557  -0.000336  1.024515  0.0
H  H18  1  0.29884001  0.45231589  0.36286485  1  0.105624  -0.000354  0.954344  0.0  0.12246  -0.000371  1.023993  0.0  0.123672  -0.000399  1.023268  0.0  0.109039  0.121552  -0.000336  1.024492  0.0
H  H19  1  0.20116239  0.95231708  0.13713734  1  0.105647  -0.000349  0.954404  0.0  0.12247  -0.000372  1.024052  0.0  0.123683  -0.000399  1.023327  0.0  0.109028  0.121562  -0.000336  1.024552  0.0
H  H20  1  0.72978319  0.89488891  0.25045297  1  0.105533  -0.000127  0.950206  0.0  0.124891  -8e-05  1.014008  0.0  0.125976  -0.000129  1.013721  0.0  0.105654  0.123969  -1.5e-05  1.01433  0.0
H  H21  1  0.77022652  0.39489061  0.24955185  1  0.105396  -0.000133  0.95043  0.0  0.124885  -8e-05  1.014072  0.0  0.125971  -0.000129  1.013786  0.0  0.105643  0.123963  -1.5e-05  1.014391  0.0
H  H22  1  0.72978549  0.60511194  0.74954721  1  0.105546  -0.00013  0.950187  0.0  0.124907  -8e-05  1.01398  0.0  0.125991  -0.000129  1.013697  0.0  0.105659  0.123984  -1.5e-05  1.014301  0.0
H  H23  1  0.77022508  0.10510870  0.75044810  1  0.105414  -0.00014  0.950394  0.0  0.124905  -8e-05  1.014036  0.0  0.125991  -0.000129  1.013752  0.0  0.105652  0.123984  -1.5e-05  1.014356  0.0
H  H24  1  0.27021585  0.10511393  0.74954722  1  0.105547  -0.000133  0.950182  0.0  0.124909  -8e-05  1.013971  0.0  0.125994  -0.000129  1.013686  0.0  0.105661  0.123987  -1.5e-05  1.014291  0.0
H  H25  1  0.22977377  0.60511026  0.75044834  1  0.105423  -0.000127  0.950396  0.0  0.124903  -8e-05  1.014048  0.0  0.12599  -0.000129  1.01376  0.0  0.105657  0.123981  -1.5e-05  1.014366  0.0
H  H26  1  0.27021605  0.39488795  0.25045366  1  0.105525  -0.000138  0.950235  0.0  0.124888  -8e-05  1.014028  0.0  0.125972  -0.000129  1.013746  0.0  0.105653  0.123967  -1.5e-05  1.014348  0.0
H  H27  1  0.22977521  0.89489217  0.24955142  1  0.105437  -0.000134  0.950396  0.0  0.124886  -8e-05  1.014082  0.0  0.125971  -0.000129  1.013799  0.0  0.105644  0.123963  -1.5e-05  1.014402  0.0
H  H28  1  0.85223061  0.82612399  0.33968214  1  0.117993  -0.000335  0.936046  0.0  0.136826  -0.000276  0.997181  0.0  0.137972  -0.000339  0.997146  0.0  0.109374  0.135822  -0.000205  0.997403  0.0
H  H29  1  0.64776674  0.32612654  0.16032628  1  0.118065  -0.000346  0.93604  0.0  0.13689  -0.000276  0.997177  0.0  0.138044  -0.000339  0.997133  0.0  0.109413  0.135884  -0.000205  0.997401  0.0
H  H30  1  0.85223125  0.67387671  0.66031747  1  0.11797  -0.000341  0.93606  0.0  0.136779  -0.000276  0.997223  0.0  0.137947  -0.000339  0.997162  0.0  0.109354  0.135776  -0.000205  0.997442  0.0
H  H31  1  0.64776794  0.17387489  0.83967358  1  0.118061  -0.000356  0.936035  0.0  0.136886  -0.000276  0.997171  0.0  0.138042  -0.000339  0.997125  0.0  0.109405  0.135881  -0.000205  0.997393  0.0
H  H32  1  0.14776844  0.17387885  0.66031738  1  0.117973  -0.000349  0.936059  0.0  0.136799  -0.000276  0.997206  0.0  0.137955  -0.000339  0.997161  0.0  0.109356  0.135796  -0.000205  0.997428  0.0
H  H33  1  0.35223105  0.67387433  0.83967392  1  0.118072  -0.00034  0.936034  0.0  0.13689  -0.000275  0.997175  0.0  0.138046  -0.000338  0.99713  0.0  0.109406  0.135884  -0.000205  0.997398  0.0
H  H34  1  0.14776779  0.32612416  0.33968205  1  0.117985  -0.000349  0.936037  0.0  0.136801  -0.000275  0.997196  0.0  0.137969  -0.000339  0.997136  0.0  0.109366  0.135798  -0.000205  0.997416  0.0
H  H35  1  0.35223110  0.82612696  0.16032594  1  0.118059  -0.000352  0.936063  0.0  0.136879  -0.000275  0.997196  0.0  0.138042  -0.000339  0.997144  0.0  0.109409  0.135875  -0.000205  0.997417  0.0
H  H36  1  0.72847745  0.58706005  0.31514988  1  0.10839  -0.000189  0.968347  0.0  0.122134  -5.1e-05  1.04148  0.0  0.123944  -0.000165  1.039705  0.0  0.102526  0.120593  7.2e-05  1.042974  0.0
H  H37  1  0.77152411  0.08705931  0.18485067  1  0.108381  -0.000189  0.968393  0.0  0.122151  -5.1e-05  1.041489  0.0  0.12395  -0.000165  1.039725  0.0  0.102534  0.120609  7.2e-05  1.042984  0.0
H  H38  1  0.72847521  0.91294079  0.68484963  1  0.108401  -0.000192  0.968373  0.0  0.12217  -5.1e-05  1.041474  0.0  0.123966  -0.000165  1.039712  0.0  0.102533  0.120628  7.2e-05  1.042968  0.0
H  H39  1  0.77152477  0.41294099  0.81514929  1  0.108393  -0.000186  0.968374  0.0  0.122165  -5.1e-05  1.041469  0.0  0.123964  -0.000165  1.039705  0.0  0.102532  0.120616  7.2e-05  1.042972  0.0
H  H40  1  0.27152409  0.41294279  0.68484830  1  0.108346  -0.000184  0.968424  0.0  0.122118  -5.1e-05  1.041522  0.0  0.123914  -0.000165  1.039761  0.0  0.102514  0.120576  7.2e-05  1.043016  0.0
H  H41  1  0.22847493  0.91294057  0.81514953  1  0.108407  -0.000191  0.96836  0.0  0.122177  -5.1e-05  1.041452  0.0  0.123976  -0.000165  1.039688  0.0  0.102535  0.12063  7.2e-05  1.042953  0.0
H  H42  1  0.27152383  0.08705910  0.31515191  1  0.108367  -0.000186  0.968391  0.0  0.12213  -5.1e-05  1.041505  0.0  0.12393  -0.000165  1.039739  0.0  0.102515  0.120587  7.2e-05  1.043  0.0
H  H43  1  0.22847427  0.58706087  0.18485090  1  0.108402  -0.000192  0.968428  0.0  0.122173  -5.1e-05  1.041516  0.0  0.123972  -0.000165  1.03975  0.0  0.102538  0.120631  7.2e-05  1.043009  0.0
H  H44  1  0.64718030  0.66362151  0.21557034  1  0.114276  -0.000421  0.957516  0.0  0.132012  -0.000332  1.022236  0.0  0.133072  -0.000394  1.022141  0.0  0.108322  0.131081  -0.000247  1.022505  0.0
H  H45  1  0.85282486  0.16361791  0.28442993  1  0.114323  -0.000423  0.957455  0.0  0.132042  -0.000332  1.022195  0.0  0.133105  -0.000394  1.022096  0.0  0.108352  0.131111  -0.000247  1.022465  0.0
H  H46  1  0.64717852  0.83637844  0.78442910  1  0.114265  -0.000421  0.957472  0.0  0.132007  -0.000332  1.022195  0.0  0.133072  -0.000394  1.022092  0.0  0.108324  0.131077  -0.000247  1.022463  0.0
H  H47  1  0.85282536  0.33638229  0.71557009  1  0.114287  -0.000417  0.957425  0.0  0.132018  -0.000332  1.022165  0.0  0.133083  -0.000394  1.022065  0.0  0.108332  0.131088  -0.000246  1.022435  0.0
H  H48  1  0.35281999  0.33638133  0.78442851  1  0.114277  -0.000418  0.957347  0.0  0.132003  -0.000332  1.022098  0.0  0.133068  -0.000394  1.021995  0.0  0.108318  0.131072  -0.000246  1.022367  0.0
H  H49  1  0.14717293  0.83638296  0.71557026  1  0.114287  -0.000423  0.957433  0.0  0.132016  -0.000332  1.022171  0.0  0.133078  -0.000394  1.022074  0.0  0.108328  0.131086  -0.000247  1.022439  0.0
H  H50  1  0.35281927  0.16362046  0.21557176  1  0.11426  -0.000419  0.957399  0.0  0.131998  -0.000332  1.022144  0.0  0.133062  -0.000394  1.022042  0.0  0.108324  0.131067  -0.000247  1.022413  0.0
H  H51  1  0.14717493  0.66361858  0.28443010  1  0.114325  -0.000421  0.957478  0.0  0.132044  -0.000332  1.022213  0.0  0.133109  -0.000394  1.022111  0.0  0.108342  0.131113  -0.000247  1.022482  0.0
H  H52  1  0.50837091  0.58413461  0.29228515  1  0.10578  -0.000141  0.955533  0.0  0.125066  -7e-05  1.019773  0.0  0.126216  -0.000122  1.019441  0.0  0.108332  0.124115  -1.4e-05  1.020016  0.0
H  H53  1  0.99163065  0.08413539  0.20771205  1  0.105824  -0.000142  0.955569  0.0  0.125112  -7e-05  1.019816  0.0  0.126264  -0.000122  1.019485  0.0  0.108349  0.12416  -1.4e-05  1.02006  0.0
H  H54  1  0.50836874  0.91586453  0.70771350  1  0.105861  -0.00014  0.95554  0.0  0.125143  -7e-05  1.019781  0.0  0.126291  -0.000122  1.01945  0.0  0.108354  0.124192  -1.4e-05  1.020023  0.0
H  H55  1  0.99163249  0.41586464  0.79228809  1  0.105886  -0.000139  0.955516  0.0  0.125184  -7e-05  1.019756  0.0  0.126341  -0.000122  1.019425  0.0  0.108356  0.124233  -1.4e-05  1.019999  0.0
H  H56  1  0.49162938  0.41586725  0.70771303  1  0.105844  -0.000138  0.95555  0.0  0.125147  -7e-05  1.019773  0.0  0.126301  -0.000122  1.019441  0.0  0.108365  0.124195  -1.4e-05  1.020016  0.0
H  H57  1  0.00836964  0.91586351  0.79228747  1  0.105881  -0.000141  0.955566  0.0  0.125181  -7e-05  1.019787  0.0  0.12634  -0.000122  1.019456  0.0  0.108359  0.12423  -1.4e-05  1.02003  0.0
H  H58  1  0.49162780  0.08413437  0.29228736  1  0.10584  -0.000137  0.955574  0.0  0.125141  -7e-05  1.019793  0.0  0.126293  -0.000122  1.019466  0.0  0.108369  0.124191  -1.4e-05  1.020037  0.0
H  H59  1  0.00836781  0.58413623  0.20771277  1  0.105839  -0.000141  0.955572  0.0  0.125121  -7e-05  1.019826  0.0  0.126271  -0.000122  1.019496  0.0  0.108356  0.12417  -1.4e-05  1.020069  0.0
C  C60  1  0.04750794  0.02004524  0.45640152  1  0.523545  0.003653  3.943654  0.004  0.484503  0.009537  4.230637  0.009  0.513918  0.006526  4.226472  0.007  0.211515  0.464082  0.012695  4.232174  0.011
C  C61  1  0.45249529  0.52003998  0.04359884  1  0.523593  0.003656  3.943642  0.004  0.484572  0.009536  4.230601  0.009  0.513984  0.006526  4.22643  0.007  0.211558  0.46415  0.012695  4.232136  0.011
C  C62  1  0.04750764  0.47995494  0.54360185  1  0.523379  0.003656  3.943831  0.004  0.484345  0.009535  4.23081  0.009  0.513758  0.006526  4.226648  0.007  0.211467  0.463926  0.012695  4.232344  0.011
C  C63  1  0.45249751  0.97995824  0.95639976  1  0.523417  0.003656  3.943844  0.004  0.484414  0.009537  4.230805  0.009  0.513825  0.006526  4.226639  0.007  0.211488  0.463991  0.012697  4.232337  0.011
C  C64  1  0.95248860  0.97995169  0.54360135  1  0.523511  0.003653  3.943538  0.004  0.484481  0.009535  4.230508  0.009  0.513892  0.006526  4.226344  0.007  0.211517  0.46406  0.012694  4.232044  0.011
C  C65  1  0.54750625  0.47995104  0.95639666  1  0.523472  0.003651  3.943596  0.004  0.484432  0.009535  4.230603  0.009  0.513843  0.006525  4.226437  0.007  0.211491  0.464013  0.012694  4.232133  0.011
C  C66  1  0.95249265  0.52004297  0.45639834  1  0.523367  0.003657  3.943842  0.004  0.484349  0.009536  4.230804  0.009  0.513761  0.006526  4.226639  0.007  0.211454  0.463927  0.012695  4.23234  0.011
C  C67  1  0.54751153  0.02004657  0.04360244  1  0.523425  0.003656  3.943658  0.004  0.484355  0.009537  4.230677  0.009  0.513769  0.006527  4.226513  0.007  0.211448  0.463936  0.012695  4.232207  0.011
C  C68  1  0.47571487  0.78312981  0.39161151  1  0.384061  0.001286  3.81168  0.001  0.309545  0.003915  4.095902  0.004  0.338087  0.002604  4.097362  0.003  0.179503  0.290259  0.005245  4.094191  0.004
C  C69  1  0.02428535  0.28313096  0.10838725  1  0.384161  0.001264  3.811557  0.001  0.309689  0.003916  4.095757  0.004  0.338204  0.002601  4.097209  0.003  0.17956  0.290414  0.005244  4.094046  0.004
C  C70  1  0.47571527  0.71686936  0.60838711  1  0.384138  0.001284  3.811642  0.001  0.309644  0.003916  4.095854  0.004  0.338188  0.002603  4.097315  0.003  0.179516  0.290358  0.005245  4.094144  0.004
C  C71  1  0.02428538  0.21686629  0.89161342  1  0.384186  0.001262  3.81154  0.001  0.309695  0.003915  4.095754  0.004  0.338224  0.002601  4.097207  0.003  0.179573  0.29042  0.005243  4.094043  0.004
C  C72  1  0.52428542  0.21687007  0.60838868  1  0.384187  0.001269  3.81171  0.001  0.309665  0.003915  4.095924  0.004  0.338207  0.002604  4.097382  0.003  0.179492  0.290377  0.005245  4.094213  0.004
C  C73  1  0.97571494  0.71686597  0.89161093  1  0.384253  0.001271  3.811484  0.001  0.309775  0.003915  4.095688  0.004  0.338304  0.002602  4.097138  0.003  0.179534  0.2905  0.005244  4.093978  0.004
C  C74  1  0.52428627  0.28312855  0.39161174  1  0.384127  0.001287  3.811768  0.001  0.309611  0.003915  4.095987  0.004  0.338152  0.002603  4.097445  0.003  0.179495  0.290325  0.005244  4.094277  0.004
C  C75  1  0.97571491  0.78313458  0.10838878  1  0.384269  0.001286  3.811512  0.001  0.309764  0.003916  4.095751  0.004  0.338306  0.002602  4.097202  0.003  0.179537  0.290468  0.005244  4.094039  0.004
C  C76  1  0.72904964  0.86575711  0.32140183  1  -0.184562  0.000289  3.630098  0.0  -0.283972  0.000502  3.874639  0.0  -0.281521  0.000281  3.88564  0.0  -0.130877  -0.285294  0.000741  3.867207  0.0
C  C77  1  0.77095138  0.36576036  0.17860242  1  -0.184562  0.000328  3.63034  0.0  -0.284063  0.000501  3.874842  0.0  -0.281623  0.000283  3.885842  0.0  -0.130896  -0.285383  0.000741  3.867406  0.0
C  C78  1  0.72905042  0.63424275  0.67859767  1  -0.184526  0.00031  3.630094  0.0  -0.283915  0.000502  3.874643  0.0  -0.281484  0.000282  3.885632  0.0  -0.130863  -0.285236  0.000741  3.867209  0.0
C  C79  1  0.77095135  0.13423994  0.82139820  1  -0.184563  0.000366  3.630265  0.0  -0.284057  0.000502  3.874782  0.0  -0.281617  0.000283  3.885778  0.0  -0.130884  -0.285376  0.000741  3.867345  0.0
C  C80  1  0.27095065  0.13424475  0.67859769  1  -0.184524  0.000333  3.630083  0.0  -0.283939  0.000502  3.874642  0.0  -0.281497  0.000282  3.885635  0.0  -0.13086  -0.285261  0.000742  3.867209  0.0
C  C81  1  0.22904766  0.63423953  0.82139844  1  -0.18457  0.000295  3.630224  0.0  -0.28406  0.000502  3.874728  0.0  -0.28162  0.000281  3.885725  0.0  -0.130905  -0.285379  0.000741  3.867288  0.0
C  C82  1  0.27095112  0.36575713  0.32140185  1  -0.184522  0.000345  3.63021  0.0  -0.283929  0.000501  3.874767  0.0  -0.281497  0.000282  3.885754  0.0  -0.130856  -0.285252  0.000741  3.867334  0.0
C  C83  1  0.22904769  0.86576093  0.17860199  1  -0.184583  0.000337  3.6304  0.0  -0.284023  0.000502  3.874893  0.0  -0.281589  0.000282  3.88588  0.0  -0.130882  -0.285343  0.000741  3.867458  0.0
C  C84  1  0.62306371  0.64204975  0.28635901  1  -0.184073  1.6e-05  3.622344  0.0  -0.282553  0.000321  3.865469  0.0  -0.279371  0.00011  3.873989  0.0  -0.139697  -0.284357  0.000537  3.859939  0.0
C  C85  1  0.87693899  0.14204866  0.21364067  1  -0.18416  1.9e-05  3.622388  0.0  -0.282663  0.00032  3.865513  0.0  -0.279483  0.000109  3.874041  0.0  -0.139768  -0.284466  0.000536  3.859985  0.0
C  C86  1  0.62306166  0.85795122  0.71363973  1  -0.18418  1.8e-05  3.622327  0.0  -0.282688  0.00032  3.865442  0.0  -0.279499  0.000109  3.873967  0.0  -0.139753  -0.28449  0.000536  3.859911  0.0
C  C87  1  0.87694092  0.35795151  0.78636005  1  -0.184162  2e-06  3.62231  0.0  -0.282688  0.00032  3.865401  0.0  -0.279513  0.000109  3.87393  0.0  -0.139708  -0.28449  0.000536  3.859876  0.0
C  C88  1  0.37693658  0.35795309  0.71363850  1  -0.184034  -5e-06  3.62229  0.0  -0.282541  0.000321  3.865373  0.0  -0.279359  0.000109  3.873904  0.0  -0.139696  -0.284345  0.000536  3.859844  0.0
C  C89  1  0.12305880  0.85795221  0.78635952  1  -0.184182  2e-05  3.622387  0.0  -0.28268  0.000319  3.86545  0.0  -0.279508  0.000109  3.873982  0.0  -0.139706  -0.284482  0.000536  3.859921  0.0
C  C90  1  0.37693613  0.14204768  0.28636113  1  -0.184061  -1e-06  3.622291  0.0  -0.282581  0.00032  3.865392  0.0  -0.279404  0.000109  3.873922  0.0  -0.139715  -0.284385  0.000536  3.859864  0.0
C  C91  1  0.12306062  0.64204936  0.21364081  1  -0.184207  1.9e-05  3.622469  0.0  -0.282707  0.00032  3.865585  0.0  -0.279522  0.00011  3.874107  0.0  -0.139769  -0.284509  0.000536  3.860054  0.0
N  N92  1  0.60213418  0.76505567  0.33521429  1  -0.061643  0.002423  3.509231  0.003  0.043079  0.004366  3.738003  0.005  0.023574  0.003441  3.763292  0.004  -0.273392  0.055975  0.005345  3.72063  0.006
N  N93  1  0.89786579  0.26505789  0.16478630  1  -0.061718  0.002424  3.509193  0.003  0.042987  0.004366  3.738002  0.005  0.023476  0.003441  3.763308  0.004  -0.273433  0.055882  0.005346  3.720625  0.006
N  N94  1  0.60213347  0.73494335  0.66478444  1  -0.06171  0.00242  3.5092  0.003  0.043002  0.004366  3.738015  0.005  0.023494  0.003441  3.763306  0.004  -0.273409  0.055896  0.005345  3.720644  0.006
N  N95  1  0.89786561  0.23494226  0.83521444  1  -0.061768  0.002419  3.509193  0.003  0.042945  0.004366  3.73801  0.005  0.023436  0.00344  3.763306  0.004  -0.273467  0.055841  0.005346  3.72063  0.006
N  N96  1  0.39786612  0.23494520  0.66478456  1  -0.061806  0.002433  3.509357  0.003  0.042916  0.004365  3.738156  0.005  0.02341  0.003441  3.763446  0.004  -0.273412  0.055811  0.005345  3.720784  0.006
N  N97  1  0.10213325  0.73494298  0.83521390  1  -0.061747  0.002434  3.50915  0.003  0.042938  0.004365  3.737972  0.005  0.023431  0.003441  3.763267  0.004  -0.273438  0.055835  0.005344  3.72059  0.006
N  N98  1  0.39786433  0.26505653  0.33521441  1  -0.06175  0.002415  3.509258  0.003  0.042979  0.004366  3.738056  0.005  0.023472  0.003439  3.763353  0.004  -0.273421  0.055875  0.005344  3.720684  0.006
N  N99  1  0.10213343  0.76505861  0.16478643  1  -0.061734  0.002417  3.509176  0.003  0.042969  0.004365  3.737995  0.005  0.023465  0.003441  3.763282  0.004  -0.273435  0.055862  0.005345  3.720627  0.006
O  O100  1  0.14551502  0.93511082  0.42285590  1  -0.601567  0.03161  2.042008  0.023  -0.548036  0.040056  2.294234  0.028  -0.575889  0.035418  2.28354  0.024  -0.30202  -0.527054  0.044385  2.30095  0.032
O  O101  1  0.35448366  0.43510788  0.07714367  1  -0.601523  0.031612  2.042101  0.023  -0.54799  0.040056  2.294304  0.028  -0.575843  0.035419  2.283614  0.024  -0.301983  -0.527012  0.044386  2.301029  0.032
O  O102  1  0.14551687  0.56488875  0.57714513  1  -0.601468  0.031613  2.042253  0.023  -0.547929  0.040057  2.29446  0.028  -0.575778  0.03542  2.283759  0.024  -0.302022  -0.526949  0.044386  2.301175  0.032
O  O103  1  0.35448282  0.06488996  0.92285593  1  -0.601502  0.031611  2.042264  0.023  -0.54798  0.040056  2.294461  0.028  -0.575833  0.035421  2.283775  0.024  -0.302014  -0.526995  0.044386  2.301175  0.032
O  O104  1  0.85448027  0.06488611  0.57714697  1  -0.601541  0.031615  2.042077  0.023  -0.548006  0.040057  2.294294  0.028  -0.575864  0.035422  2.28361  0.024  -0.302037  -0.527027  0.044388  2.301012  0.032
O  O105  1  0.64551538  0.56488708  0.92285183  1  -0.601566  0.031613  2.042061  0.023  -0.548019  0.040055  2.294267  0.028  -0.575867  0.035418  2.283571  0.024  -0.30205  -0.527037  0.044385  2.300978  0.032
O  O106  1  0.85448092  0.43511015  0.42285640  1  -0.601442  0.03161  2.042157  0.023  -0.547915  0.040054  2.294369  0.028  -0.575767  0.035418  2.283676  0.024  -0.302  -0.526935  0.044384  2.301087  0.032
O  O107  1  0.64551872  0.93510992  0.07714627  1  -0.601474  0.031612  2.042114  0.023  -0.547919  0.040054  2.294327  0.028  -0.575766  0.035419  2.283626  0.024  -0.302007  -0.526938  0.044385  2.301045  0.032
O  O108  1  0.01927891  0.13422422  0.42552308  1  -0.590704  0.033919  2.056323  0.024  -0.5352  0.042132  2.308743  0.029  -0.562937  0.036905  2.298256  0.024  -0.298476  -0.51425  0.047088  2.315288  0.033
O  O109  1  0.48073535  0.63421375  0.07448023  1  -0.590778  0.033917  2.056288  0.024  -0.535279  0.042133  2.308703  0.029  -0.563024  0.036905  2.298237  0.024  -0.298528  -0.514332  0.047088  2.315261  0.033
O  O110  1  0.01927642  0.36577698  0.57448160  1  -0.590646  0.033915  2.056264  0.024  -0.535154  0.042132  2.30868  0.029  -0.562897  0.036905  2.298207  0.024  -0.298446  -0.514203  0.047088  2.315218  0.033
O  O111  1  0.48073395  0.86578246  0.92551840  1  -0.590632  0.033915  2.0562  0.024  -0.535139  0.04213  2.308587  0.029  -0.562893  0.036903  2.298147  0.024  -0.298455  -0.514209  0.047085  2.315179  0.033
O  O112  1  0.98072263  0.86577369  0.57448046  1  -0.590717  0.033916  2.056167  0.024  -0.535223  0.042132  2.308573  0.029  -0.562966  0.036904  2.298105  0.024  -0.298488  -0.514274  0.047086  2.315119  0.033
O  O113  1  0.51927119  0.36577529  0.92551393  1  -0.590691  0.033915  2.056164  0.024  -0.535215  0.042132  2.308587  0.029  -0.562965  0.036905  2.298135  0.024  -0.298484  -0.514271  0.047088  2.31514  0.033
O  O114  1  0.98072887  0.63421995  0.42551658  1  -0.590643  0.033914  2.056342  0.024  -0.53516  0.042133  2.30874  0.029  -0.562911  0.036905  2.298286  0.024  -0.298447  -0.514216  0.047087  2.315297  0.033
O  O115  1  0.51928134  0.13422629  0.07448179  1  -0.590693  0.033913  2.056166  0.024  -0.535196  0.042132  2.308609  0.029  -0.562931  0.036904  2.298123  0.024  -0.29845  -0.514247  0.047087  2.315156  0.033
O  O116  1  0.36401311  0.69829337  0.40744242  1  -0.565248  0.02824  2.098261  0.018  -0.506774  0.034677  2.37076  0.02  -0.534966  0.031295  2.361665  0.018  -0.302332  -0.486131  0.038108  2.376411  0.023
O  O117  1  0.13598477  0.19829648  0.09255731  1  -0.565284  0.028246  2.098381  0.018  -0.50677  0.034674  2.37082  0.02  -0.534963  0.031293  2.361736  0.018  -0.302326  -0.486128  0.038105  2.376463  0.023
O  O118  1  0.36401330  0.80170594  0.59255544  1  -0.565265  0.028243  2.098312  0.018  -0.506792  0.034677  2.370819  0.02  -0.534961  0.031295  2.361671  0.018  -0.302312  -0.486149  0.038108  2.37647  0.023
O  O119  1  0.13598219  0.30170261  0.90744480  1  -0.565293  0.028251  2.09839  0.018  -0.506793  0.034678  2.370856  0.02  -0.534981  0.031296  2.361758  0.018  -0.302356  -0.486151  0.038107  2.376498  0.023
O  O120  1  0.63599093  0.30170454  0.59255911  1  -0.565263  0.028242  2.098211  0.018  -0.506798  0.034677  2.370736  0.02  -0.534984  0.031294  2.361627  0.018  -0.302322  -0.486155  0.038108  2.376385  0.023
O  O121  1  0.86401302  0.80170144  0.90744087  1  -0.565367  0.028243  2.098283  0.018  -0.506868  0.034677  2.370749  0.02  -0.535062  0.031295  2.36166  0.018  -0.302338  -0.486224  0.038108  2.376395  0.023
O  O122  1  0.63598449  0.19829690  0.40744208  1  -0.565254  0.02824  2.098382  0.018  -0.506776  0.034674  2.370881  0.02  -0.534959  0.031294  2.361771  0.018  -0.302334  -0.486136  0.038105  2.376534  0.023
O  O123  1  0.86401436  0.69829826  0.09255875  1  -0.565334  0.028244  2.098296  0.018  -0.506829  0.034678  2.370769  0.02  -0.535025  0.031296  2.361682  0.018  -0.302326  -0.486189  0.038109  2.376426  0.023
