# generated using pymatgen
data_H8RhC9O4
_symmetry_space_group_name_H-M   'P 1'
_cell_length_a   9.50053915
_cell_length_b   10.64043837
_cell_length_c   10.64060534
_cell_angle_alpha   102.39497884
_cell_angle_beta   99.95905463
_cell_angle_gamma   99.96338155
_symmetry_Int_Tables_number   1
_chemical_formula_structural   H8RhC9O4
_chemical_formula_sum   'H32 Rh4 C36 O16'
_cell_volume   1009.76392750
_cell_formula_units_Z   4
loop_
 _symmetry_equiv_pos_site_id
 _symmetry_equiv_pos_as_xyz
  1  'x, y, z'
loop_
 _atom_site_type_symbol
 _atom_site_label
 _atom_site_symmetry_multiplicity
 _atom_site_fract_x
 _atom_site_fract_y
 _atom_site_fract_z
 _atom_site_occupancy
 _atom_site_hle17_bader_spin_density
 _atom_site_hle17_ddec_charge
 _atom_site_hle17_ddec_spin_density
 _atom_site_hle17_ddec_sum_bond_order
 _atom_site_hle17_magmom
 _atom_site_hse06_10hf_bader_spin_density
 _atom_site_hse06_10hf_ddec_charge
 _atom_site_hse06_10hf_ddec_spin_density
 _atom_site_hse06_10hf_ddec_sum_bond_order
 _atom_site_hse06_10hf_magmom
 _atom_site_hse06_bader_spin_density
 _atom_site_hse06_ddec_charge
 _atom_site_hse06_ddec_spin_density
 _atom_site_hse06_ddec_sum_bond_order
 _atom_site_hse06_magmom
 _atom_site_pbe_bader_spin_density
 _atom_site_pbe_cm5_charge
 _atom_site_pbe_ddec_charge
 _atom_site_pbe_ddec_spin_density
 _atom_site_pbe_ddec_sum_bond_order
 _atom_site_pbe_magmom
H  H0  1  0.83934267  0.38475342  0.18602393  1  0  0.130921  0  0.972835  0  0  0.150826  0  1.03312  0  0  0.151113  0  1.035033  0  0  0.095874  0.150807  0  1.031719  0
H  H1  1  0.66069647  0.81395488  0.61519117  1  0  0.131045  0  0.972878  0  0  0.150993  0  1.033107  0  0  0.151285  0  1.035023  0  0  0.095842  0.150973  0  1.031705  0
H  H2  1  0.16065924  0.61523812  0.81394975  1  0  0.130791  0  0.972862  0  0  0.150751  0  1.033094  0  0  0.151042  0  1.035012  0  0  0.095818  0.150733  0  1.031695  0
H  H3  1  0.33932956  0.18604120  0.38481485  1  0  0.130775  0  0.972757  0  0  0.150708  0  1.033028  0  0  0.150999  0  1.034945  0  0  0.095743  0.150696  0  1.031631  0
H  H4  1  0.64241149  0.34021732  0.13985638  1  0  0.145791  0  0.951689  0  0  0.164233  0  1.011384  0  0  0.166617  0  1.010343  0  0  0.104746  0.162505  0  1.012143  0
H  H5  1  0.85760278  0.86017161  0.65984257  1  0  0.146023  0  0.951658  0  0  0.164414  0  1.011367  0  0  0.166798  0  1.010323  0  0  0.104772  0.162684  0  1.01213  0
H  H6  1  0.35759248  0.65977821  0.86012408  1  0  0.145762  0  0.951598  0  0  0.164167  0  1.011356  0  0  0.166554  0  1.010302  0  0  0.104752  0.16244  0  1.012115  0
H  H7  1  0.14241301  0.13982127  0.34019113  1  0  0.145796  0  0.951598  0  0  0.16424  0  1.011287  0  0  0.166623  0  1.010245  0  0  0.104688  0.162514  0  1.012053  0
H  H8  1  0.74632908  0.34613665  0.01763977  1  0  0.143909  0  0.925025  0  0  0.164717  0  0.981919  0  0  0.166815  0  0.981696  0  0  0.105961  0.163323  0  0.982047  0
H  H9  1  0.75364867  0.98235286  0.65386398  1  0  0.143869  0  0.924875  0  0  0.164796  0  0.981642  0  0  0.166895  0  0.981417  0  0  0.106025  0.163402  0  0.981769  0
H  H10  1  0.25366198  0.65382048  0.98232714  1  0  0.143985  0  0.924868  0  0  0.164771  0  0.981789  0  0  0.166876  0  0.981556  0  0  0.105978  0.163374  0  0.981922  0
H  H11  1  0.24636662  0.01764368  0.34614685  1  0  0.143893  0  0.92508  0  0  0.164692  0  0.981941  0  0  0.166793  0  0.981714  0  0  0.105964  0.163296  0  0.982079  0
H  H12  1  0.52978657  0.07657403  0.58071477  1  0  0.10125  0  0.961802  0  0  0.112461  0  1.022521  0  0  0.116696  0  1.019785  0  0  0.104324  0.109069  0  1.025503  0
H  H13  1  0.97021595  0.41930360  0.92342077  1  0  0.10133  0  0.961575  0  0  0.112436  0  1.022408  0  0  0.116728  0  1.019606  0  0  0.104291  0.109047  0  1.025401  0
H  H14  1  0.47021015  0.92343322  0.41930339  1  0  0.101208  0  0.961684  0  0  0.112349  0  1.022491  0  0  0.116626  0  1.019704  0  0  0.104278  0.108957  0  1.025483  0
H  H15  1  0.02976195  0.58070177  0.07655615  1  0  0.101255  0  0.961775  0  0  0.11242  0  1.022542  0  0  0.116678  0  1.019783  0  0  0.104276  0.109029  0  1.025531  0
H  H16  1  0.60964409  0.24181460  0.47958603  1  0  0.091283  0  0.924708  0  0  0.103962  0  0.978094  0  0  0.107397  0  0.974966  0  0  0.107304  0.101138  0  0.981092  0
H  H17  1  0.89032569  0.52039838  0.75814799  1  0  0.091361  0  0.925032  0  0  0.104084  0  0.978341  0  0  0.107523  0  0.975204  0  0  0.107349  0.101263  0  0.981337  0
H  H18  1  0.39036359  0.75818115  0.52041956  1  0  0.091254  0  0.924874  0  0  0.104018  0  0.978147  0  0  0.107455  0  0.975017  0  0  0.107345  0.10119  0  0.981146  0
H  H19  1  0.10967154  0.47959930  0.24182608  1  0  0.091376  0  0.92462  0  0  0.104075  0  0.977974  0  0  0.107511  0  0.974845  0  0  0.107355  0.101253  0  0.980972  0
H  H20  1  0.61495060  0.46919330  0.54244502  1  0  0.080623  0  0.961488  0  0  0.091238  0  1.024079  0  0  0.094001  0  1.024127  0  0  0.096697  0.088941  0  1.024922  0
H  H21  1  0.88501860  0.45750481  0.53079093  1  0  0.080633  0  0.961974  0  0  0.091196  0  1.02455  0  0  0.093956  0  1.024601  0  0  0.0967  0.088912  0  1.025375  0
H  H22  1  0.38505905  0.53081619  0.45755514  1  0  0.080799  0  0.961704  0  0  0.09139  0  1.024276  0  0  0.094154  0  1.024321  0  0  0.09677  0.089093  0  1.025118  0
H  H23  1  0.11498376  0.54250367  0.46918897  1  0  0.080654  0  0.962067  0  0  0.09127  0  1.024596  0  0  0.094027  0  1.024648  0  0  0.096794  0.088987  0  1.025418  0
H  H24  1  0.54838364  0.58545906  0.73083731  1  0  0.096379  0  0.935689  0  0  0.106491  0  0.994476  0  0  0.110428  0  0.990665  0  0  0.105151  0.103566  0  0.997171  0
H  H25  1  0.95161377  0.26912959  0.41456274  1  0  0.096479  0  0.936146  0  0  0.106561  0  0.994933  0  0  0.110506  0  0.991097  0  0  0.10511  0.103626  0  0.997634  0
H  H26  1  0.45161524  0.41454690  0.26916593  1  0  0.096342  0  0.935776  0  0  0.106513  0  0.994499  0  0  0.110454  0  0.990678  0  0  0.105171  0.103581  0  0.997197  0
H  H27  1  0.04840415  0.73087172  0.58544102  1  0  0.096258  0  0.935652  0  0  0.106266  0  0.994576  0  0  0.110206  0  0.990755  0  0  0.105036  0.103343  0  0.997277  0
H  H28  1  0.46352307  0.50457141  0.89666345  1  0  0.113718  0  0.970608  0  0  0.121944  0  1.035106  0  0  0.126972  0  1.031867  0  0  0.106918  0.118244  0  1.037606  0
H  H29  1  0.03648474  0.10332430  0.49547416  1  0  0.113755  0  0.970793  0  0  0.121816  0  1.035439  0  0  0.126945  0  1.032081  0  0  0.106958  0.118121  0  1.03793  0
H  H30  1  0.53646958  0.49543871  0.10333670  1  0  0.11379  0  0.970573  0  0  0.12187  0  1.035213  0  0  0.127008  0  1.031841  0  0  0.106943  0.118174  0  1.037698  0
H  H31  1  0.96352848  0.89667913  0.50452732  1  0  0.113759  0  0.970784  0  0  0.121807  0  1.035426  0  0  0.126941  0  1.032063  0  0  0.106961  0.118112  0  1.037913  0
Rh  Rh32  1  0.38629898  0.10137172  0.95760549  1  0  0.684337  0  2.976263  0  0  0.603395  0  3.581896  0  0  0.647575  0  3.528358  0  0  0.62649  0.578623  0  3.614441  0
Rh  Rh33  1  0.11368954  0.04239820  0.89863011  1  0  0.684495  0  2.976035  0  0  0.603471  0  3.58172  0  0  0.64767  0  3.528181  0  0  0.626492  0.578709  0  3.614247  0
Rh  Rh34  1  0.61369373  0.89862465  0.04240420  1  0  0.684336  0  2.976609  0  0  0.603419  0  3.582283  0  0  0.647573  0  3.528782  0  0  0.626559  0.57867  0  3.614787  0
Rh  Rh35  1  0.88631003  0.95761082  0.10138043  1  0  0.684445  0  2.976127  0  0  0.603512  0  3.58175  0  0  0.647688  0  3.528234  0  0  0.626516  0.578745  0  3.614293  0
C  C36  1  0.74813694  0.17962145  0.09820410  1  0  0.728657  0  3.738541  0  0  0.69056  0  4.026857  0  0  0.729513  0  4.017943  0  0  0.223318  0.664043  0  4.031944  0
C  C37  1  0.75183726  0.90178375  0.82038495  1  0  0.728838  0  3.738472  0  0  0.690949  0  4.026499  0  0  0.729891  0  4.017595  0  0  0.223396  0.664428  0  4.031596  0
C  C38  1  0.25185762  0.82037386  0.90180571  1  0  0.728559  0  3.738623  0  0  0.690463  0  4.02691  0  0  0.729387  0  4.018044  0  0  0.22334  0.663945  0  4.031999  0
C  C39  1  0.24816984  0.09821809  0.17962832  1  0  0.728842  0  3.738792  0  0  0.690745  0  4.027037  0  0  0.729694  0  4.018137  0  0  0.22329  0.664231  0  4.032138  0
C  C40  1  0.74438893  0.32180960  0.11281616  1  0  -0.445529  0  3.653034  0  0  -0.523036  0  3.87926  0  0  -0.530247  0  3.882542  0  0  -0.24007  -0.518007  0  3.8765  0
C  C41  1  0.75559283  0.88715386  0.67820092  1  0  -0.445992  0  3.652991  0  0  -0.523632  0  3.879106  0  0  -0.530844  0  3.882382  0  0  -0.240162  -0.518595  0  3.87634  0
C  C42  1  0.25560393  0.67818548  0.88717357  1  0  -0.445403  0  3.652901  0  0  -0.522924  0  3.879138  0  0  -0.530131  0  3.882425  0  0  -0.240019  -0.517883  0  3.876366  0
C  C43  1  0.24442373  0.11280990  0.32180933  1  0  -0.445395  0  3.652956  0  0  -0.522939  0  3.879152  0  0  -0.530153  0  3.882438  0  0  -0.239855  -0.517881  0  3.876334  0
C  C44  1  0.46746358  0.18208281  0.74353439  1  0  0.270244  0  3.791192  0  0  0.261526  0  4.046226  0  0  0.2803  0  4.056716  0  0  0.096971  0.248054  0  4.040103  0
C  C45  1  0.03251677  0.25645098  0.81790216  1  0  0.270486  0  3.790844  0  0  0.261576  0  4.046169  0  0  0.280343  0  4.056677  0  0  0.096871  0.248109  0  4.040045  0
C  C46  1  0.53252048  0.81791964  0.25646277  1  0  0.270264  0  3.790838  0  0  0.261472  0  4.045994  0  0  0.280248  0  4.056484  0  0  0.096843  0.247997  0  4.039876  0
C  C47  1  0.96747248  0.74353814  0.18207730  1  0  0.270069  0  3.790992  0  0  0.261369  0  4.046124  0  0  0.280129  0  4.056636  0  0  0.096843  0.247899  0  4.040001  0
C  C48  1  0.52286536  0.17632735  0.62824441  1  0  -0.161386  0  3.706013  0  0  -0.185365  0  3.961478  0  0  -0.193491  0  3.978742  0  0  -0.093796  -0.181174  0  3.952326  0
C  C49  1  0.97711269  0.37175304  0.82365915  1  0  -0.161657  0  3.704915  0  0  -0.185476  0  3.960499  0  0  -0.193643  0  3.977747  0  0  -0.093754  -0.181297  0  3.951363  0
C  C50  1  0.47712803  0.82367493  0.37176374  1  0  -0.161236  0  3.705932  0  0  -0.185164  0  3.961472  0  0  -0.193314  0  3.978715  0  0  -0.093727  -0.180986  0  3.952333  0
C  C51  1  0.02287950  0.62824700  0.17632861  1  0  -0.161531  0  3.70603  0  0  -0.185448  0  3.961505  0  0  -0.1936  0  3.978778  0  0  -0.093832  -0.181257  0  3.952358  0
C  C52  1  0.56974284  0.27531805  0.56864913  1  0  -0.01462  0  3.795417  0  0  -0.030802  0  4.055418  0  0  -0.024003  0  4.072699  0  0  -0.077268  -0.035962  0  4.045179  0
C  C53  1  0.93021684  0.43134821  0.72464818  1  0  -0.014652  0  3.7953  0  0  -0.03088  0  4.05525  0  0  -0.024084  0  4.072551  0  0  -0.077275  -0.036037  0  4.045013  0
C  C54  1  0.43025812  0.72468788  0.43135635  1  0  -0.014632  0  3.795273  0  0  -0.030848  0  4.055244  0  0  -0.024055  0  4.072538  0  0  -0.077308  -0.035999  0  4.044995  0
C  C55  1  0.06977216  0.56867085  0.27534370  1  0  -0.014645  0  3.795634  0  0  -0.030836  0  4.055617  0  0  -0.024033  0  4.072911  0  0  -0.07725  -0.035995  0  4.045372  0
C  C56  1  0.57390372  0.41036576  0.60602884  1  0  -0.108685  0  3.801405  0  0  -0.129141  0  4.067005  0  0  -0.137343  0  4.089787  0  0  -0.100815  -0.123497  0  4.051834  0
C  C57  1  0.92606727  0.39395086  0.58960984  1  0  -0.108652  0  3.801783  0  0  -0.129054  0  4.067372  0  0  -0.137254  0  4.090145  0  0  -0.100875  -0.123415  0  4.052205  0
C  C58  1  0.42609428  0.58962240  0.39397545  1  0  -0.109031  0  3.801186  0  0  -0.129522  0  4.066903  0  0  -0.13772  0  4.089671  0  0  -0.100993  -0.123882  0  4.051736  0
C  C59  1  0.07394340  0.60605342  0.41037538  1  0  -0.108835  0  3.802399  0  0  -0.129303  0  4.068013  0  0  -0.13751  0  4.090792  0  0  -0.101006  -0.123659  0  4.052846  0
C  C60  1  0.53421601  0.47873439  0.71713160  1  0  -0.016956  0  3.773431  0  0  -0.033697  0  4.03219  0  0  -0.026249  0  4.046972  0  0  -0.078364  -0.038293  0  4.021721  0
C  C61  1  0.96576641  0.28283649  0.52124291  1  0  -0.016935  0  3.7732  0  0  -0.033676  0  4.031863  0  0  -0.026224  0  4.046654  0  0  -0.078164  -0.038265  0  4.021404  0
C  C62  1  0.46577679  0.52126074  0.28286094  1  0  -0.016755  0  3.773703  0  0  -0.033531  0  4.032418  0  0  -0.026091  0  4.047229  0  0  -0.078285  -0.038118  0  4.021949  0
C  C63  1  0.03424404  0.71715472  0.47872936  1  0  -0.016656  0  3.772971  0  0  -0.033323  0  4.031675  0  0  -0.025867  0  4.046473  0  0  -0.078145  -0.037932  0  4.021224  0
C  C64  1  0.48243470  0.43114504  0.81629474  1  0  -0.157683  0  3.705641  0  0  -0.182517  0  3.961534  0  0  -0.190314  0  3.97789  0  0  -0.094776  -0.177289  0  3.951142  0
C  C65  1  0.01755775  0.18368214  0.56885710  1  0  -0.157883  0  3.705839  0  0  -0.182548  0  3.961796  0  0  -0.190429  0  3.978097  0  0  -0.095027  -0.177323  0  3.951411  0
C  C66  1  0.51754274  0.56884578  0.18370369  1  0  -0.157702  0  3.705901  0  0  -0.182419  0  3.961829  0  0  -0.190295  0  3.978127  0  0  -0.094868  -0.177193  0  3.951439  0
C  C67  1  0.98245986  0.81631419  0.43114468  1  0  -0.157802  0  3.70581  0  0  -0.182385  0  3.961716  0  0  -0.190275  0  3.97802  0  0  -0.094973  -0.177148  0  3.951319  0
C  C68  1  0.45452775  0.30243222  0.83375341  1  0  0.255656  0  3.799459  0  0  0.247105  0  4.055186  0  0  0.264651  0  4.067838  0  0  0.094579  0.234246  0  4.047995  0
C  C69  1  0.04545384  0.16623160  0.69756795  1  0  0.25581  0  3.799705  0  0  0.247244  0  4.055524  0  0  0.264789  0  4.068196  0  0  0.094725  0.23438  0  4.048337  0
C  C70  1  0.54545130  0.69757140  0.16624311  1  0  0.255625  0  3.799232  0  0  0.247113  0  4.054974  0  0  0.264658  0  4.067644  0  0  0.094738  0.234248  0  4.047789  0
C  C71  1  0.95454851  0.83377925  0.30243874  1  0  0.255918  0  3.79929  0  0  0.247207  0  4.055227  0  0  0.26476  0  4.067903  0  0  0.094822  0.234341  0  4.04804  0
O  O72  1  0.63107947  0.09268380  0.03490507  1  0  -0.537261  0  2.275931  0  0  -0.473997  0  2.553105  0  0  -0.507192  0  2.5433  0  0  -0.299818  -0.451595  0  2.557998  0
O  O73  1  0.86893116  0.96509236  0.90730220  1  0  -0.537365  0  2.27521  0  0  -0.474248  0  2.552408  0  0  -0.507448  0  2.542605  0  0  -0.299903  -0.451849  0  2.557318  0
O  O74  1  0.36892016  0.90731432  0.96510616  1  0  -0.537289  0  2.275741  0  0  -0.473997  0  2.552883  0  0  -0.507216  0  2.543139  0  0  -0.299857  -0.451587  0  2.557759  0
O  O75  1  0.13107840  0.03491837  0.09271512  1  0  -0.537519  0  2.275486  0  0  -0.474248  0  2.552673  0  0  -0.507474  0  2.542887  0  0  -0.299928  -0.451851  0  2.557578  0
O  O76  1  0.86570007  0.14946050  0.14721154  1  0  -0.516227  0  2.12443  0  0  -0.469565  0  2.388984  0  0  -0.500389  0  2.379916  0  0  -0.29419  -0.4483  0  2.393606  0
O  O77  1  0.63430653  0.85279586  0.85058415  1  0  -0.516159  0  2.125336  0  0  -0.469588  0  2.389899  0  0  -0.500395  0  2.380828  0  0  -0.294235  -0.448331  0  2.394521  0
O  O78  1  0.13430170  0.85053871  0.85281250  1  0  -0.516158  0  2.12447  0  0  -0.469473  0  2.389022  0  0  -0.50028  0  2.379961  0  0  -0.294181  -0.448211  0  2.393644  0
O  O79  1  0.36571152  0.14720773  0.14944076  1  0  -0.516151  0  2.125061  0  0  -0.469493  0  2.389654  0  0  -0.500301  0  2.38058  0  0  -0.294098  -0.448235  0  2.394277  0
O  O80  1  0.42874346  0.07224114  0.77699817  1  0  -0.431131  0  2.133551  0  0  -0.38655  0  2.394425  0  0  -0.416315  0  2.393344  0  0  -0.295029  -0.366281  0  2.394492  0
O  O81  1  0.07124955  0.22300921  0.92774956  1  0  -0.431199  0  2.133443  0  0  -0.386523  0  2.394367  0  0  -0.416296  0  2.393297  0  0  -0.294972  -0.366252  0  2.394437  0
O  O82  1  0.57124853  0.92777511  0.22301248  1  0  -0.43116  0  2.1332  0  0  -0.386558  0  2.3941  0  0  -0.416327  0  2.393023  0  0  -0.294946  -0.36629  0  2.394165  0
O  O83  1  0.92872406  0.77699753  0.07224286  1  0  -0.431109  0  2.133759  0  0  -0.386518  0  2.394648  0  0  -0.416279  0  2.393574  0  0  -0.294994  -0.366249  0  2.394719  0
O  O84  1  0.41433352  0.28683906  0.94214790  1  0  -0.453372  0  2.191564  0  0  -0.403816  0  2.463375  0  0  -0.436579  0  2.465437  0  0  -0.29419  -0.382203  0  2.461981  0
O  O85  1  0.08566338  0.05785355  0.71317779  1  0  -0.453518  0  2.191964  0  0  -0.403925  0  2.463772  0  0  -0.43669  0  2.46584  0  0  -0.29423  -0.382312  0  2.462383  0
O  O86  1  0.58565070  0.71317934  0.05785525  1  0  -0.45338  0  2.191878  0  0  -0.403856  0  2.463735  0  0  -0.436607  0  2.465778  0  0  -0.294292  -0.38225  0  2.462343  0
O  O87  1  0.91434609  0.94215205  0.28682723  1  0  -0.453399  0  2.192217  0  0  -0.40378  0  2.464055  0  0  -0.436535  0  2.466124  0  0  -0.294217  -0.382176  0  2.462667  0
