# generated using pymatgen
data_NaH11C4(N6O)3
_symmetry_space_group_name_H-M   'P 1'
_cell_length_a   6.34096502
_cell_length_b   12.38284737
_cell_length_c   18.30540244
_cell_angle_alpha   90.00008749
_cell_angle_beta   90.00027120
_cell_angle_gamma   89.99999230
_symmetry_Int_Tables_number   1
_chemical_formula_structural   NaH11C4(N6O)3
_chemical_formula_sum   'Na4 H44 C16 N72 O12'
_cell_volume   1437.32559309
_cell_formula_units_Z   4
loop_
 _symmetry_equiv_pos_site_id
 _symmetry_equiv_pos_as_xyz
  1  'x, y, z'
loop_
 _atom_site_type_symbol
 _atom_site_label
 _atom_site_symmetry_multiplicity
 _atom_site_fract_x
 _atom_site_fract_y
 _atom_site_fract_z
 _atom_site_occupancy
 _atom_site_hle17_bader_spin_density
 _atom_site_hle17_ddec_charge
 _atom_site_hle17_ddec_spin_density
 _atom_site_hle17_ddec_sum_bond_order
 _atom_site_hle17_magmom
 _atom_site_hse06_10hf_bader_spin_density
 _atom_site_hse06_10hf_ddec_charge
 _atom_site_hse06_10hf_ddec_spin_density
 _atom_site_hse06_10hf_ddec_sum_bond_order
 _atom_site_hse06_10hf_magmom
 _atom_site_hse06_bader_spin_density
 _atom_site_hse06_ddec_charge
 _atom_site_hse06_ddec_spin_density
 _atom_site_hse06_ddec_sum_bond_order
 _atom_site_hse06_magmom
 _atom_site_pbe_bader_spin_density
 _atom_site_pbe_cm5_charge
 _atom_site_pbe_ddec_charge
 _atom_site_pbe_ddec_spin_density
 _atom_site_pbe_ddec_sum_bond_order
 _atom_site_pbe_magmom
Na  Na0  1  0.78827629  0.75417070  0.07038300  1  0  0.876825  0  0.405097  0  0  0.81313  0  0.583427  0  0  0.824925  0  0.559895  0  0  0.661593  0.804638  0  0.600135  0
Na  Na1  1  0.71172358  0.24583018  0.57038151  1  0  0.87682  0  0.405116  0  0  0.813122  0  0.583447  0  0  0.824913  0  0.559907  0  0  0.661596  0.804632  0  0.600155  0
Na  Na2  1  0.28827621  0.74582950  0.92961744  1  0  0.876821  0  0.4051  0  0  0.813127  0  0.583427  0  0  0.824922  0  0.559893  0  0  0.661593  0.804635  0  0.600134  0
Na  Na3  1  0.21172302  0.25416981  0.42961829  1  0  0.876827  0  0.405106  0  0  0.813141  0  0.583415  0  0  0.824932  0  0.559876  0  0  0.661605  0.804653  0  0.600123  0
H  H4  1  0.71075536  0.50851240  0.12378671  1  0  0.396917  0  0.917223  0  0  0.354015  0  1.000843  0  0  0.365618  0  0.984085  0  0  0.283466  0.345878  0  1.012571  0
H  H5  1  0.78924366  0.49148780  0.62378670  1  0  0.396896  0  0.917252  0  0  0.353998  0  1.000868  0  0  0.3656  0  0.98411  0  0  0.283462  0.345861  0  1.012595  0
H  H6  1  0.21075607  0.99148619  0.87621305  1  0  0.396921  0  0.917222  0  0  0.353984  0  1.000885  0  0  0.365586  0  0.984127  0  0  0.283455  0.345848  0  1.012612  0
H  H7  1  0.28924559  0.00851219  0.37621322  1  0  0.396914  0  0.91723  0  0  0.354023  0  1.000837  0  0  0.365625  0  0.984079  0  0  0.283476  0.345886  0  1.012564  0
H  H8  1  0.51125404  0.57551071  0.10387716  1  0  0.391768  0  0.907055  0  0  0.354884  0  0.993226  0  0  0.364226  0  0.979389  0  0  0.29558  0.348249  0  1.003045  0
H  H9  1  0.98874471  0.42449025  0.60387795  1  0  0.391783  0  0.907009  0  0  0.354901  0  0.993193  0  0  0.364243  0  0.979357  0  0  0.295593  0.348266  0  1.003012  0
H  H10  1  0.01125346  0.92448870  0.89612228  1  0  0.391749  0  0.907037  0  0  0.354867  0  0.993237  0  0  0.364209  0  0.979401  0  0  0.295577  0.348232  0  1.003056  0
H  H11  1  0.48874532  0.07551053  0.39612230  1  0  0.39177  0  0.907046  0  0  0.354885  0  0.993222  0  0  0.364227  0  0.979385  0  0  0.295596  0.34825  0  1.003042  0
H  H12  1  0.88495992  0.63842285  0.94028413  1  0  0.383963  0  0.93487  0  0  0.344144  0  1.015014  0  0  0.354592  0  0.999565  0  0  0.285586  0.336778  0  1.025893  0
H  H13  1  0.61504024  0.36157725  0.44028383  1  0  0.383995  0  0.93482  0  0  0.344182  0  1.014955  0  0  0.354629  0  0.999507  0  0  0.2856  0.336817  0  1.025833  0
H  H14  1  0.38495905  0.86157734  0.05971592  1  0  0.383947  0  0.934894  0  0  0.344129  0  1.015038  0  0  0.354577  0  0.999589  0  0  0.28558  0.336763  0  1.025916  0
H  H15  1  0.11504147  0.13842194  0.55971635  1  0  0.383918  0  0.934933  0  0  0.344098  0  1.015079  0  0  0.354546  0  0.999632  0  0  0.28556  0.336732  0  1.025958  0
H  H16  1  0.80849194  0.75425726  0.92340933  1  0  0.414316  0  0.896516  0  0  0.387548  0  0.953828  0  0  0.398223  0  0.938187  0  0  0.28275  0.379983  0  0.964907  0
H  H17  1  0.69150957  0.24574280  0.42340849  1  0  0.414378  0  0.896456  0  0  0.387611  0  0.953761  0  0  0.398285  0  0.938122  0  0  0.282774  0.380047  0  0.964841  0
H  H18  1  0.30849132  0.74574213  0.07659114  1  0  0.414329  0  0.896495  0  0  0.387559  0  0.95381  0  0  0.398235  0  0.938168  0  0  0.28275  0.379995  0  0.96489  0
H  H19  1  0.19150943  0.25425719  0.57659127  1  0  0.414316  0  0.896514  0  0  0.387547  0  0.953828  0  0  0.398221  0  0.938187  0  0  0.28275  0.379982  0  0.964907  0
H  H20  1  0.14770699  0.61060364  0.12513071  1  0  0.40225  0  0.881899  0  0  0.363906  0  0.971803  0  0  0.373479  0  0.957457  0  0  0.29907  0.357119  0  0.981963  0
H  H21  1  0.35229284  0.38939659  0.62513124  1  0  0.402267  0  0.881868  0  0  0.363928  0  0.971765  0  0  0.3735  0  0.957421  0  0  0.299073  0.357141  0  0.981926  0
H  H22  1  0.64770691  0.88939657  0.87486950  1  0  0.40224  0  0.881908  0  0  0.363899  0  0.97181  0  0  0.373472  0  0.957464  0  0  0.299064  0.357112  0  0.98197  0
H  H23  1  0.85229394  0.11060339  0.37486878  1  0  0.402268  0  0.881873  0  0  0.363927  0  0.971771  0  0  0.373499  0  0.957425  0  0  0.299083  0.357139  0  0.981931  0
H  H24  1  0.15571401  0.71146580  0.17843580  1  0  0.381157  0  0.944351  0  0  0.33507  0  1.03289  0  0  0.346182  0  1.016997  0  0  0.283251  0.327283  0  1.043993  0
H  H25  1  0.34428655  0.28853374  0.67843567  1  0  0.381095  0  0.94444  0  0  0.335001  0  1.03299  0  0  0.346113  0  1.017097  0  0  0.283224  0.327214  0  1.044093  0
H  H26  1  0.65571166  0.78853441  0.82156442  1  0  0.381162  0  0.944341  0  0  0.335081  0  1.032876  0  0  0.346194  0  1.016983  0  0  0.283258  0.327295  0  1.043979  0
H  H27  1  0.84428689  0.21146624  0.32156489  1  0  0.381167  0  0.944339  0  0  0.33508  0  1.032877  0  0  0.346192  0  1.016985  0  0  0.283258  0.327293  0  1.04398  0
H  H28  1  0.78047272  0.30327757  0.01098226  1  0  0.323549  0  0.907761  0  0  0.292066  0  0.992603  0  0  0.300514  0  0.984746  0  0  0.322246  0.28608  0  0.998165  0
H  H29  1  0.71952792  0.69672237  0.51098180  1  0  0.323571  0  0.907741  0  0  0.292083  0  0.992566  0  0  0.300531  0  0.98471  0  0  0.322258  0.286097  0  0.99813  0
H  H30  1  0.28047346  0.19672242  0.98901765  1  0  0.323567  0  0.907746  0  0  0.292084  0  0.992557  0  0  0.30053  0  0.984705  0  0  0.32227  0.286098  0  0.998122  0
H  H31  1  0.21952973  0.80327783  0.48901798  1  0  0.323531  0  0.90779  0  0  0.292042  0  0.992626  0  0  0.30049  0  0.984772  0  0  0.322232  0.286057  0  0.99819  0
H  H32  1  0.78827362  0.04162221  0.12771980  1  0  0.301884  0  0.946586  0  0  0.252491  0  1.061857  0  0  0.263602  0  1.05138  0  0  0.319502  0.244682  0  1.069183  0
H  H33  1  0.71172703  0.95837961  0.62772014  1  0  0.301826  0  0.946628  0  0  0.25241  0  1.061925  0  0  0.263519  0  1.051448  0  0  0.31948  0.244601  0  1.06925  0
H  H34  1  0.28827271  0.45837858  0.87228012  1  0  0.301866  0  0.946589  0  0  0.252473  0  1.061865  0  0  0.263585  0  1.051386  0  0  0.319493  0.244663  0  1.069189  0
H  H35  1  0.21172733  0.54162059  0.37228017  1  0  0.301875  0  0.946582  0  0  0.252488  0  1.061846  0  0  0.263599  0  1.051368  0  0  0.319515  0.244678  0  1.069173  0
H  H36  1  0.68681633  0.63851248  0.20533536  1  0  0.346301  0  0.89933  0  0  0.321883  0  0.963259  0  0  0.331656  0  0.955135  0  0  0.313596  0.315012  0  0.968905  0
H  H37  1  0.81318538  0.36149275  0.70533471  1  0  0.346312  0  0.899238  0  0  0.321836  0  0.963277  0  0  0.331603  0  0.955158  0  0  0.313585  0.314963  0  0.968923  0
H  H38  1  0.18681596  0.86148773  0.79466436  1  0  0.346301  0  0.89933  0  0  0.321878  0  0.963274  0  0  0.331655  0  0.955137  0  0  0.313608  0.315007  0  0.96892  0
H  H39  1  0.31318459  0.13850724  0.29466580  1  0  0.346307  0  0.899234  0  0  0.321818  0  0.963291  0  0  0.331586  0  0.955172  0  0  0.31357  0.314945  0  0.968936  0
H  H40  1  0.72643547  0.45569032  0.28528219  1  0  0.285785  0  0.961151  0  0  0.248456  0  1.045882  0  0  0.258982  0  1.038227  0  0  0.3145  0.241095  0  1.051228  0
H  H41  1  0.77356259  0.54431266  0.78528330  1  0  0.285715  0  0.961256  0  0  0.248391  0  1.046002  0  0  0.258916  0  1.038349  0  0  0.314478  0.241028  0  1.051347  0
H  H42  1  0.22643568  0.04431048  0.71471763  1  0  0.285748  0  0.961212  0  0  0.248441  0  1.045905  0  0  0.258967  0  1.03825  0  0  0.314493  0.24108  0  1.05125  0
H  H43  1  0.27356379  0.95568754  0.21471711  1  0  0.285725  0  0.961224  0  0  0.248443  0  1.045882  0  0  0.258969  0  1.038225  0  0  0.314489  0.241081  0  1.051228  0
H  H44  1  0.72818648  0.85107847  0.36488950  1  0  0.306375  0  0.943807  0  0  0.261862  0  1.048937  0  0  0.273128  0  1.038455  0  0  0.314218  0.253988  0  1.056239  0
H  H45  1  0.77181424  0.14892873  0.86488746  1  0  0.306151  0  0.944035  0  0  0.261753  0  1.04908  0  0  0.27302  0  1.038603  0  0  0.314154  0.253879  0  1.056378  0
H  H46  1  0.22818558  0.64892254  0.63511030  1  0  0.306386  0  0.943787  0  0  0.261876  0  1.048907  0  0  0.273143  0  1.038425  0  0  0.314232  0.254003  0  1.056207  0
H  H47  1  0.27181596  0.35107126  0.13511298  1  0  0.306143  0  0.944031  0  0  0.261748  0  1.049079  0  0  0.273015  0  1.0386  0  0  0.314146  0.253873  0  1.056374  0
C  C48  1  0.77840124  0.27256101  0.12199045  1  0  0.472376  0  3.836399  0  0  0.425137  0  4.133242  0  0  0.44281  0  4.145057  0  0  0.317155  0.413279  0  4.125064  0
C  C49  1  0.72160091  0.72743918  0.62199003  1  0  0.47228  0  3.836465  0  0  0.425066  0  4.133254  0  0  0.442736  0  4.14507  0  0  0.317135  0.413207  0  4.125081  0
C  C50  1  0.27839888  0.22743898  0.87801000  1  0  0.47235  0  3.83652  0  0  0.425106  0  4.133323  0  0  0.442772  0  4.145147  0  0  0.317151  0.413247  0  4.125147  0
C  C51  1  0.22160438  0.77256021  0.37800975  1  0  0.472316  0  3.836449  0  0  0.425084  0  4.133294  0  0  0.442756  0  4.145107  0  0  0.317126  0.413224  0  4.125119  0
C  C52  1  0.78785974  0.13816532  0.02715227  1  0  0.525867  0  3.759302  0  0  0.464797  0  4.049324  0  0  0.487423  0  4.058047  0  0  0.352065  0.449608  0  4.043269  0
C  C53  1  0.71213955  0.86183547  0.52715251  1  0  0.525801  0  3.759358  0  0  0.464798  0  4.049239  0  0  0.487422  0  4.057963  0  0  0.352121  0.44961  0  4.043183  0
C  C54  1  0.28786021  0.36183467  0.97284765  1  0  0.525881  0  3.759272  0  0  0.464827  0  4.049247  0  0  0.487455  0  4.057967  0  0  0.35209  0.449622  0  4.043216  0
C  C55  1  0.21214276  0.63816474  0.47284725  1  0  0.525859  0  3.759222  0  0  0.4648  0  4.04921  0  0  0.487427  0  4.057933  0  0  0.352109  0.449605  0  4.043165  0
C  C56  1  0.71058320  0.62475164  0.31970981  1  0  0.522649  0  3.796508  0  0  0.461401  0  4.09154  0  0  0.483676  0  4.100396  0  0  0.350315  0.446494  0  4.085348  0
C  C57  1  0.78941690  0.37525142  0.81970913  1  0  0.522649  0  3.796599  0  0  0.46154  0  4.09146  0  0  0.48381  0  4.100324  0  0  0.350401  0.446626  0  4.08527  0
C  C58  1  0.21058443  0.87524857  0.68029050  1  0  0.522715  0  3.796413  0  0  0.461451  0  4.091464  0  0  0.483731  0  4.100312  0  0  0.350346  0.446542  0  4.085271  0
C  C59  1  0.28941614  0.12474856  0.18029134  1  0  0.522678  0  3.796583  0  0  0.461559  0  4.091457  0  0  0.483829  0  4.100321  0  0  0.350417  0.446647  0  4.085265  0
C  C60  1  0.73056549  0.78890767  0.25215389  1  0  0.525144  0  3.797487  0  0  0.462961  0  4.090489  0  0  0.484704  0  4.100977  0  0  0.350264  0.448358  0  4.083397  0
C  C61  1  0.76943055  0.21109767  0.75215192  1  0  0.5251  0  3.797446  0  0  0.462941  0  4.090484  0  0  0.484679  0  4.10098  0  0  0.350264  0.448335  0  4.083393  0
C  C62  1  0.23056452  0.71109254  0.74784590  1  0  0.52518  0  3.797493  0  0  0.462977  0  4.090501  0  0  0.484719  0  4.100989  0  0  0.350284  0.448375  0  4.08341  0
C  C63  1  0.26943066  0.28890232  0.24784797  1  0  0.525241  0  3.797502  0  0  0.463073  0  4.090547  0  0  0.484813  0  4.101041  0  0  0.350349  0.448463  0  4.083453  0
N  N64  1  0.78118897  0.24280606  0.04942880  1  0  -0.468559  0  3.314244  0  0  -0.409959  0  3.562541  0  0  -0.43001  0  3.566417  0  0  -0.382102  -0.396033  0  3.559534  0
N  N65  1  0.71881377  0.75719397  0.54942895  1  0  -0.468546  0  3.314302  0  0  -0.409933  0  3.562517  0  0  -0.429982  0  3.566395  0  0  -0.382095  -0.396008  0  3.559512  0
N  N66  1  0.28118759  0.25719393  0.95057165  1  0  -0.4686  0  3.314253  0  0  -0.409953  0  3.562481  0  0  -0.429998  0  3.566356  0  0  -0.382135  -0.396024  0  3.559483  0
N  N67  1  0.21881666  0.74280623  0.45057137  1  0  -0.468541  0  3.314197  0  0  -0.409905  0  3.562445  0  0  -0.429955  0  3.566322  0  0  -0.38208  -0.395979  0  3.559441  0
N  N68  1  0.76088828  0.37486869  0.14612326  1  0  -0.36431  0  2.975586  0  0  -0.327413  0  3.252007  0  0  -0.341093  0  3.263252  0  0  -0.225356  -0.3182  0  3.24444  0
N  N69  1  0.73911104  0.62513156  0.64612330  1  0  -0.364241  0  2.975605  0  0  -0.327363  0  3.252022  0  0  -0.341041  0  3.263267  0  0  -0.225322  -0.318155  0  3.244462  0
N  N70  1  0.26088878  0.12513049  0.85387662  1  0  -0.364296  0  2.97563  0  0  -0.327372  0  3.252026  0  0  -0.34105  0  3.263275  0  0  -0.225318  -0.318164  0  3.244467  0
N  N71  1  0.23911416  0.87486864  0.35387705  1  0  -0.364359  0  2.975606  0  0  -0.327477  0  3.252052  0  0  -0.341154  0  3.263293  0  0  -0.225376  -0.318268  0  3.244492  0
N  N72  1  0.76274970  0.36466998  0.21949394  1  0  -0.093132  0  3.106211  0  0  -0.071214  0  3.389501  0  0  -0.074309  0  3.404567  0  0  -0.101282  -0.068849  0  3.37927  0
N  N73  1  0.73724905  0.63533043  0.71949400  1  0  -0.093097  0  3.106233  0  0  -0.071176  0  3.389536  0  0  -0.074268  0  3.404599  0  0  -0.101276  -0.068814  0  3.379311  0
N  N74  1  0.26275077  0.13533000  0.78050594  1  0  -0.093077  0  3.106224  0  0  -0.071188  0  3.389522  0  0  -0.074283  0  3.404589  0  0  -0.101277  -0.068826  0  3.379297  0
N  N75  1  0.23725117  0.86466977  0.28050636  1  0  -0.093045  0  3.10622  0  0  -0.071145  0  3.3895  0  0  -0.074239  0  3.404563  0  0  -0.101255  -0.068785  0  3.379277  0
N  N76  1  0.78131798  0.26222103  0.23753557  1  0  -0.085807  0  3.103238  0  0  -0.051474  0  3.386762  0  0  -0.053031  0  3.398638  0  0  -0.090465  -0.050096  0  3.378686  0
N  N77  1  0.71868416  0.73777942  0.73753570  1  0  -0.08582  0  3.103236  0  0  -0.051495  0  3.38677  0  0  -0.053052  0  3.398641  0  0  -0.09049  -0.050119  0  3.378697  0
N  N78  1  0.28131879  0.23777815  0.76246434  1  0  -0.085797  0  3.103219  0  0  -0.051459  0  3.386749  0  0  -0.053015  0  3.398623  0  0  -0.090489  -0.050082  0  3.378676  0
N  N79  1  0.21867975  0.76222078  0.26246462  1  0  -0.085891  0  3.103257  0  0  -0.051543  0  3.386788  0  0  -0.053098  0  3.398661  0  0  -0.090489  -0.050167  0  3.378718  0
N  N80  1  0.79199734  0.20120511  0.17714354  1  0  -0.365955  0  2.963158  0  0  -0.348184  0  3.258731  0  0  -0.360375  0  3.271353  0  0  -0.236379  -0.339989  0  3.25018  0
N  N81  1  0.70800556  0.79879521  0.67714372  1  0  -0.365937  0  2.963217  0  0  -0.348164  0  3.258756  0  0  -0.360362  0  3.271401  0  0  -0.236385  -0.339969  0  3.250206  0
N  N82  1  0.29199580  0.29879407  0.82285638  1  0  -0.365993  0  2.963288  0  0  -0.348235  0  3.258864  0  0  -0.360426  0  3.271493  0  0  -0.23641  -0.34004  0  3.250311  0
N  N83  1  0.20800514  0.70120419  0.32285604  1  0  -0.365844  0  2.963187  0  0  -0.348105  0  3.258775  0  0  -0.360296  0  3.271398  0  0  -0.236366  -0.339911  0  3.250226  0
N  N84  1  0.79166358  0.10393191  0.95752841  1  0  -0.355935  0  2.956326  0  0  -0.330446  0  3.249445  0  0  -0.344752  0  3.259148  0  0  -0.217369  -0.320919  0  3.242869  0
N  N85  1  0.70833523  0.89606823  0.45752882  1  0  -0.355941  0  2.956305  0  0  -0.33049  0  3.249427  0  0  -0.344794  0  3.259127  0  0  -0.217418  -0.320968  0  3.242854  0
N  N86  1  0.29166562  0.39606726  0.04247151  1  0  -0.355917  0  2.956292  0  0  -0.330441  0  3.249395  0  0  -0.344749  0  3.259096  0  0  -0.217377  -0.320909  0  3.242824  0
N  N87  1  0.20833782  0.60393198  0.54247149  1  0  -0.355964  0  2.956237  0  0  -0.330487  0  3.249392  0  0  -0.344792  0  3.259092  0  0  -0.21741  -0.320961  0  3.24282  0
N  N88  1  0.79862458  0.99467616  0.96096065  1  0  -0.074122  0  3.06611  0  0  -0.043224  0  3.353013  0  0  -0.042996  0  3.362421  0  0  -0.068069  -0.042999  0  3.346612  0
N  N89  1  0.70137429  0.00532399  0.46096122  1  0  -0.074137  0  3.066129  0  0  -0.043233  0  3.353031  0  0  -0.043004  0  3.362437  0  0  -0.068068  -0.043008  0  3.346631  0
N  N90  1  0.29862667  0.50532404  0.03903871  1  0  -0.074088  0  3.066101  0  0  -0.04318  0  3.35299  0  0  -0.042952  0  3.362398  0  0  -0.068035  -0.042954  0  3.346587  0
N  N91  1  0.20137515  0.49467600  0.53903910  1  0  -0.074101  0  3.066078  0  0  -0.043198  0  3.352971  0  0  -0.04297  0  3.362379  0  0  -0.068053  -0.042972  0  3.34657  0
N  N92  1  0.79920807  0.96080729  0.02800819  1  0  -0.075807  0  2.92916  0  0  -0.075173  0  3.212032  0  0  -0.073823  0  3.223021  0  0  -0.102027  -0.075886  0  3.204674  0
N  N93  1  0.70078965  0.03919350  0.52800866  1  0  -0.07581  0  2.929167  0  0  -0.075193  0  3.212021  0  0  -0.073845  0  3.223009  0  0  -0.102025  -0.075906  0  3.204662  0
N  N94  1  0.29920861  0.53919290  0.97199172  1  0  -0.075857  0  2.929196  0  0  -0.075228  0  3.212071  0  0  -0.073878  0  3.223059  0  0  -0.102063  -0.075943  0  3.204711  0
N  N95  1  0.20079119  0.46080730  0.47199167  1  0  -0.075808  0  2.92913  0  0  -0.075173  0  3.211997  0  0  -0.073822  0  3.222985  0  0  -0.102024  -0.075887  0  3.204639  0
N  N96  1  0.79229155  0.04972367  0.07076667  1  0  -0.289499  0  3.410444  0  0  -0.228044  0  3.669921  0  0  -0.245527  0  3.682678  0  0  -0.253666  -0.216534  0  3.661615  0
N  N97  1  0.70770991  0.95027640  0.57076646  1  0  -0.289417  0  3.410441  0  0  -0.227928  0  3.669851  0  0  -0.245407  0  3.68261  0  0  -0.253674  -0.216419  0  3.661541  0
N  N98  1  0.29228983  0.45027631  0.92923325  1  0  -0.289483  0  3.410444  0  0  -0.228043  0  3.669923  0  0  -0.245528  0  3.68268  0  0  -0.253664  -0.216528  0  3.661617  0
N  N99  1  0.20771097  0.54972299  0.42923330  1  0  -0.289473  0  3.410375  0  0  -0.22802  0  3.669842  0  0  -0.245506  0  3.682603  0  0  -0.253693  -0.21651  0  3.661538  0
N  N100  1  0.71101172  0.67939974  0.25547634  1  0  -0.487376  0  3.310617  0  0  -0.425075  0  3.558025  0  0  -0.44767  0  3.562354  0  0  -0.376833  -0.40946  0  3.554652  0
N  N101  1  0.78898594  0.32060560  0.75547560  1  0  -0.487378  0  3.310559  0  0  -0.425099  0  3.55801  0  0  -0.447685  0  3.56234  0  0  -0.37686  -0.409478  0  3.554638  0
N  N102  1  0.21101226  0.82059966  0.74452397  1  0  -0.487367  0  3.310621  0  0  -0.425068  0  3.558051  0  0  -0.447661  0  3.562379  0  0  -0.376831  -0.409452  0  3.554678  0
N  N103  1  0.28898604  0.17939519  0.24452432  1  0  -0.487475  0  3.310618  0  0  -0.425163  0  3.558052  0  0  -0.447751  0  3.562381  0  0  -0.376875  -0.409539  0  3.554675  0
N  N104  1  0.71097280  0.51645830  0.32687813  1  0  -0.271194  0  3.343574  0  0  -0.21043  0  3.597036  0  0  -0.227467  0  3.609027  0  0  -0.246132  -0.199135  0  3.588981  0
N  N105  1  0.78902425  0.48354559  0.82687865  1  0  -0.27125  0  3.3437  0  0  -0.210558  0  3.59718  0  0  -0.227596  0  3.609167  0  0  -0.246181  -0.199261  0  3.589134  0
N  N106  1  0.21097390  0.98354191  0.67312219  1  0  -0.271186  0  3.343598  0  0  -0.210426  0  3.59706  0  0  -0.227465  0  3.609047  0  0  -0.246123  -0.199133  0  3.589013  0
N  N107  1  0.28902816  0.01645440  0.17312127  1  0  -0.271206  0  3.343673  0  0  -0.210542  0  3.597154  0  0  -0.227579  0  3.609141  0  0  -0.246177  -0.199243  0  3.589101  0
N  N108  1  0.70921173  0.49336514  0.39922069  1  0  -0.055943  0  2.944509  0  0  -0.0412  0  3.225671  0  0  -0.041402  0  3.234749  0  0  -0.065514  -0.040918  0  3.219631  0
N  N109  1  0.79078630  0.50663567  0.89922179  1  0  -0.055862  0  2.944521  0  0  -0.041099  0  3.225677  0  0  -0.041299  0  3.234753  0  0  -0.065489  -0.040821  0  3.219635  0
N  N110  1  0.20921198  0.00663485  0.60077910  1  0  -0.055925  0  2.944477  0  0  -0.041181  0  3.225643  0  0  -0.041383  0  3.234722  0  0  -0.065508  -0.040898  0  3.219601  0
N  N111  1  0.29078752  0.99336452  0.10077865  1  0  -0.055897  0  2.944557  0  0  -0.041139  0  3.225746  0  0  -0.04134  0  3.234825  0  0  -0.065493  -0.040858  0  3.219703  0
N  N112  1  0.70855117  0.58537148  0.43364828  1  0  -0.07421  0  3.021449  0  0  -0.069181  0  3.333079  0  0  -0.065956  0  3.341055  0  0  -0.088379  -0.070977  0  3.327698  0
N  N113  1  0.79145048  0.41462860  0.93364765  1  0  -0.074193  0  3.021391  0  0  -0.06916  0  3.333023  0  0  -0.065934  0  3.340999  0  0  -0.088351  -0.070958  0  3.327645  0
N  N114  1  0.20855242  0.91462872  0.56635148  1  0  -0.07421  0  3.021421  0  0  -0.069187  0  3.333052  0  0  -0.065962  0  3.341028  0  0  -0.088401  -0.070985  0  3.327671  0
N  N115  1  0.29144977  0.08537138  0.06635228  1  0  -0.074196  0  3.021414  0  0  -0.069164  0  3.333045  0  0  -0.065938  0  3.341022  0  0  -0.088366  -0.070961  0  3.327665  0
N  N116  1  0.70922108  0.66922614  0.38634425  1  0  -0.368076  0  2.924984  0  0  -0.34771  0  3.231988  0  0  -0.360629  0  3.241646  0  0  -0.234848  -0.339127  0  3.225374  0
N  N117  1  0.79078150  0.33077465  0.88634299  1  0  -0.368033  0  2.924931  0  0  -0.347717  0  3.231912  0  0  -0.360637  0  3.241571  0  0  -0.234863  -0.339135  0  3.225306  0
N  N118  1  0.20922142  0.83077407  0.61365551  1  0  -0.368103  0  2.924921  0  0  -0.347722  0  3.231926  0  0  -0.360643  0  3.241581  0  0  -0.23485  -0.339145  0  3.225331  0
N  N119  1  0.29077826  0.16922533  0.11365694  1  0  -0.368018  0  2.924913  0  0  -0.347698  0  3.231891  0  0  -0.360619  0  3.241552  0  0  -0.234842  -0.339112  0  3.225282  0
N  N120  1  0.74633079  0.84355496  0.18933805  1  0  -0.420757  0  2.935724  0  0  -0.397538  0  3.242228  0  0  -0.411772  0  3.251037  0  0  -0.29827  -0.388146  0  3.236344  0
N  N121  1  0.75366912  0.15644942  0.68933600  1  0  -0.420827  0  2.935929  0  0  -0.397572  0  3.242408  0  0  -0.411806  0  3.25122  0  0  -0.298276  -0.388177  0  3.236518  0
N  N122  1  0.24633227  0.65644605  0.81066177  1  0  -0.420778  0  2.935735  0  0  -0.397545  0  3.242233  0  0  -0.411787  0  3.25106  0  0  -0.298276  -0.38815  0  3.236342  0
N  N123  1  0.25366692  0.34355057  0.31066387  1  0  -0.420843  0  2.935924  0  0  -0.397597  0  3.242421  0  0  -0.41183  0  3.251228  0  0  -0.298303  -0.3882  0  3.236534  0
N  N124  1  0.76575697  0.94860594  0.20871874  1  0  -0.054249  0  3.086301  0  0  -0.039122  0  3.409379  0  0  -0.037456  0  3.418072  0  0  -0.076681  -0.039798  0  3.40333  0
N  N125  1  0.73423847  0.05139848  0.70871600  1  0  -0.05425  0  3.086373  0  0  -0.039135  0  3.409452  0  0  -0.037471  0  3.418149  0  0  -0.0767  -0.039809  0  3.403401  0
N  N126  1  0.26575822  0.55139507  0.79128111  1  0  -0.05425  0  3.086237  0  0  -0.039143  0  3.409337  0  0  -0.037479  0  3.418029  0  0  -0.076692  -0.039817  0  3.403285  0
N  N127  1  0.23424071  0.44860151  0.29128383  1  0  -0.054248  0  3.086333  0  0  -0.039133  0  3.409399  0  0  -0.03747  0  3.418094  0  0  -0.076683  -0.039806  0  3.403343  0
N  N128  1  0.76257339  0.96060003  0.27923836  1  0  -0.053476  0  2.871106  0  0  -0.061862  0  3.167166  0  0  -0.059124  0  3.17533  0  0  -0.086338  -0.063634  0  3.16179  0
N  N129  1  0.73742616  0.03940455  0.77923616  1  0  -0.053467  0  2.870991  0  0  -0.06181  0  3.167099  0  0  -0.059072  0  3.175266  0  0  -0.086325  -0.063582  0  3.161724  0
N  N130  1  0.26257211  0.53940017  0.72076149  1  0  -0.053458  0  2.871105  0  0  -0.061858  0  3.167152  0  0  -0.059118  0  3.175316  0  0  -0.086352  -0.063629  0  3.161777  0
N  N131  1  0.23742744  0.46059624  0.22076422  1  0  -0.053479  0  2.870946  0  0  -0.061817  0  3.167059  0  0  -0.05908  0  3.175225  0  0  -0.086339  -0.063587  0  3.161681  0
N  N132  1  0.74025523  0.86023058  0.30783477  1  0  -0.292247  0  3.390323  0  0  -0.228181  0  3.648734  0  0  -0.244994  0  3.660222  0  0  -0.256318  -0.21703  0  3.641059  0
N  N133  1  0.75974629  0.13977326  0.80783271  1  0  -0.291969  0  3.390404  0  0  -0.228084  0  3.648829  0  0  -0.24488  0  3.66028  0  0  -0.256272  -0.216946  0  3.641189  0
N  N134  1  0.24025511  0.63976962  0.69216504  1  0  -0.292323  0  3.390386  0  0  -0.22821  0  3.64873  0  0  -0.245015  0  3.660193  0  0  -0.256345  -0.217062  0  3.641061  0
N  N135  1  0.25974721  0.36022673  0.19216771  1  0  -0.292031  0  3.390535  0  0  -0.228142  0  3.648935  0  0  -0.24494  0  3.660384  0  0  -0.256309  -0.217024  0  3.64135  0
O  O136  1  0.65582522  0.58491728  0.12249419  1  0  -0.836307  0  1.886448  0  0  -0.779977  0  2.077332  0  0  -0.797575  0  2.045509  0  0  -0.616941  -0.767536  0  2.099526  0
O  O137  1  0.84417378  0.41508372  0.62249419  1  0  -0.836301  0  1.886456  0  0  -0.779948  0  2.077357  0  0  -0.797542  0  2.045532  0  0  -0.61694  -0.767509  0  2.099551  0
O  O138  1  0.15582439  0.91508292  0.87750548  1  0  -0.836288  0  1.886402  0  0  -0.779934  0  2.077368  0  0  -0.797532  0  2.045545  0  0  -0.616927  -0.767494  0  2.099559  0
O  O139  1  0.34417414  0.08491546  0.37750582  1  0  -0.836302  0  1.886477  0  0  -0.779946  0  2.077358  0  0  -0.797541  0  2.045532  0  0  -0.616956  -0.767508  0  2.099552  0
O  O140  1  0.91406441  0.71413647  0.95387581  1  0  -0.921503  0  1.814661  0  0  -0.870969  0  1.997946  0  0  -0.887574  0  1.964174  0  0  -0.708898  -0.859236  0  2.021599  0
O  O141  1  0.58593594  0.28586366  0.45387538  1  0  -0.921596  0  1.814615  0  0  -0.871069  0  1.997898  0  0  -0.887671  0  1.964121  0  0  -0.708941  -0.859336  0  2.021553  0
O  O142  1  0.41406494  0.78586372  0.04612374  1  0  -0.921509  0  1.814676  0  0  -0.870975  0  1.99796  0  0  -0.88758  0  1.964187  0  0  -0.708899  -0.85924  0  2.021613  0
O  O143  1  0.08593539  0.21413553  0.54612420  1  0  -0.921466  0  1.814715  0  0  -0.87093  0  1.997997  0  0  -0.887534  0  1.964222  0  0  -0.708884  -0.859199  0  2.021651  0
O  O144  1  0.11756332  0.68797761  0.12736886  1  0  -0.848653  0  1.908647  0  0  -0.787401  0  2.104025  0  0  -0.806239  0  2.072928  0  0  -0.613281  -0.774023  0  2.125693  0
O  O145  1  0.38243654  0.31202263  0.62736827  1  0  -0.848605  0  1.908663  0  0  -0.787349  0  2.104038  0  0  -0.806183  0  2.072945  0  0  -0.613253  -0.773972  0  2.125706  0
O  O146  1  0.61756323  0.81202341  0.87263129  1  0  -0.848631  0  1.908626  0  0  -0.787381  0  2.103966  0  0  -0.806217  0  2.07287  0  0  -0.613283  -0.774003  0  2.125634  0
O  O147  1  0.88243601  0.18797816  0.37263126  1  0  -0.848664  0  1.908587  0  0  -0.78742  0  2.103968  0  0  -0.806254  0  2.072871  0  0  -0.613298  -0.774043  0  2.125638  0
