# generated using pymatgen
data_CoP2H22(CO)10
_symmetry_space_group_name_H-M   'P 1'
_cell_length_a   4.83333345
_cell_length_b   6.89522360
_cell_length_c   12.00196554
_cell_angle_alpha   98.69393537
_cell_angle_beta   89.33192624
_cell_angle_gamma   105.71477564
_symmetry_Int_Tables_number   1
_chemical_formula_structural   CoP2H22(CO)10
_chemical_formula_sum   'Co1 P2 H22 C10 O10'
_cell_volume   380.43332462
_cell_formula_units_Z   1
loop_
 _symmetry_equiv_pos_site_id
 _symmetry_equiv_pos_as_xyz
  1  'x, y, z'
loop_
 _atom_site_type_symbol
 _atom_site_label
 _atom_site_symmetry_multiplicity
 _atom_site_fract_x
 _atom_site_fract_y
 _atom_site_fract_z
 _atom_site_occupancy
 _atom_site_hse06_10hf_ddec_charge
 _atom_site_hse06_10hf_ddec_spin_density
 _atom_site_hse06_10hf_ddec_sum_bond_order
 _atom_site_hse06_10hf_magmom
 _atom_site_hse06_ddec_charge
 _atom_site_hse06_ddec_spin_density
 _atom_site_hse06_ddec_sum_bond_order
 _atom_site_hse06_magmom
 _atom_site_pbe_cm5_charge
 _atom_site_pbe_ddec_charge
 _atom_site_pbe_ddec_spin_density
 _atom_site_pbe_ddec_sum_bond_order
 _atom_site_pbe_magmom
Co  Co0  1  0.99999794  0.00000268  0.00000160  1  1.059384  0.994607  2.375706  0.943  1.146499  0.99536  2.293873  0.948  0.568442  0.985284  0.989953  2.448923  0.934
P  P1  1  0.79118524  0.28729001  0.79949465  1  1.357452  0.003271  5.213687  0.006  1.40814  0.002408  5.173123  0.005  0.367707  1.321515  0.004114  5.241422  0.007
P  P2  1  0.20881450  0.71271939  0.20050708  1  1.357321  0.003272  5.213539  0.006  1.40801  0.002408  5.172983  0.005  0.367701  1.321379  0.004115  5.241272  0.007
H  H3  1  0.26680838  0.42488662  0.80512496  1  0.405296  -4e-06  0.923773  0.0  0.416785  -1e-05  0.90725  0.0  0.313235  0.397244  2e-06  0.935342  0.0
H  H4  1  0.73319827  0.57512424  0.19487526  1  0.405282  -4e-06  0.923792  0.0  0.416771  -1e-05  0.907269  0.0  0.31322  0.397227  2e-06  0.935365  0.0
H  H5  1  0.60636772  0.14748286  0.08127908  1  0.398122  0.000416  0.935975  0.001  0.409162  0.000467  0.920316  0.001  0.302233  0.39011  0.000334  0.947224  0.001
H  H6  1  0.39362917  0.85252503  0.91872500  1  0.398111  0.000417  0.935992  0.001  0.409152  0.000467  0.92033  0.001  0.302211  0.390066  0.000334  0.947283  0.001
H  H7  1  0.87899749  0.26911723  0.15336307  1  0.399863  -0.000103  0.920482  0.0  0.410372  -6.8e-05  0.905492  0.0  0.308037  0.39217  -0.000134  0.930702  0.0
H  H8  1  0.12100085  0.73088910  0.84664090  1  0.399818  -0.000103  0.920492  0.0  0.410321  -6.8e-05  0.905517  0.0  0.308031  0.392129  -0.000134  0.930615  0.0
H  H9  1  0.42262327  0.28311437  0.95421596  1  0.395987  0.000171  0.943248  0.0  0.407465  0.000189  0.927045  0.0  0.304149  0.387786  0.000157  0.953955  0.0
H  H10  1  0.57737210  0.71688897  0.04578274  1  0.396099  0.000171  0.94309  0.0  0.407577  0.000189  0.926887  0.0  0.304194  0.387897  0.000157  0.953832  0.0
H  H11  1  0.33758957  0.36263570  0.07744030  1  0.400942  -0.000164  0.931242  0.0  0.413011  -0.000159  0.914074  0.0  0.30315  0.392163  -0.000137  0.943651  0.0
H  H12  1  0.66240622  0.63737376  0.92255891  1  0.400726  -0.000164  0.931528  0.0  0.412794  -0.000159  0.914362  0.0  0.303067  0.391947  -0.000138  0.943936  0.0
H  H13  1  0.06159949  0.37073096  0.52429407  1  0.098612  5e-06  1.037944  0.0  0.101148  4e-06  1.036847  0.0  0.094855  0.096759  5e-06  1.038838  0.0
H  H14  1  0.93841066  0.62925839  0.47570686  1  0.098611  5e-06  1.037839  0.0  0.101143  4e-06  1.036751  0.0  0.094837  0.096778  5e-06  1.038711  0.0
H  H15  1  0.43685995  0.08629534  0.66555458  1  0.159212  -0.000152  0.997733  0.0  0.161426  -0.000128  0.99832  0.0  0.114437  0.157597  -0.000172  0.997453  0.0
H  H16  1  0.56314390  0.91370330  0.33444293  1  0.159218  -0.000152  0.997751  0.0  0.16143  -0.000128  0.99834  0.0  0.114419  0.157584  -0.000172  0.99749  0.0
H  H17  1  0.61481994  0.32104301  0.62328712  1  0.137953  0.000318  1.030835  0.0  0.140215  0.000235  1.030616  0.0  0.104616  0.136314  0.000412  1.031073  0.001
H  H18  1  0.38521492  0.67893994  0.37670675  1  0.137952  0.000318  1.030735  0.0  0.140223  0.000235  1.030503  0.0  0.104606  0.136311  0.000412  1.030974  0.001
H  H19  1  0.57923148  0.58471870  0.60908235  1  0.115533  2.2e-05  1.04821  0.0  0.116803  1.7e-05  1.047936  0.0  0.084373  0.114534  3e-05  1.048522  0.0
H  H20  1  0.42072341  0.41526675  0.39091626  1  0.115514  2.2e-05  1.048316  0.0  0.116775  1.6e-05  1.048045  0.0  0.084344  0.114514  3e-05  1.048627  0.0
H  H21  1  0.36617743  0.75898816  0.62089447  1  0.124756  -7.1e-05  1.037953  0.0  0.125958  -5.9e-05  1.038282  0.0  0.087988  0.123825  -7.7e-05  1.037807  0.0
H  H22  1  0.63382345  0.24101671  0.37909271  1  0.124738  -7.1e-05  1.037953  0.0  0.12594  -6e-05  1.038282  0.0  0.087975  0.123805  -7.7e-05  1.037804  0.0
H  H23  1  0.63785852  0.79000386  0.72397665  1  0.150483  -0.000107  0.998568  0.0  0.152386  -9.3e-05  0.998136  0.0  0.095698  0.14898  -0.000114  0.999071  0.0
H  H24  1  0.36211007  0.20998449  0.27602063  1  0.150445  -0.000107  0.998514  0.0  0.152349  -9.4e-05  0.998076  0.0  0.095689  0.148944  -0.000114  0.999015  0.0
C  C25  1  0.03346911  0.20629682  0.51273009  1  -0.221648  0.000105  4.005304  0.0  -0.225014  7.5e-05  4.026327  0.0  -0.101748  -0.219191  0.000146  3.991006  0.0
C  C26  1  0.96654022  0.79370630  0.48727533  1  -0.221605  0.000105  4.005478  0.0  -0.224969  7.5e-05  4.026504  0.0  -0.101699  -0.219161  0.000146  3.991179  0.0
C  C27  1  0.79808248  0.87770234  0.56564949  1  0.111431  3.7e-05  3.984269  0.0  0.111356  2e-05  4.008783  0.0  -0.014417  0.111395  5.8e-05  3.967523  0.0
C  C28  1  0.20192203  0.12227328  0.43435109  1  0.111271  3.7e-05  3.984137  0.0  0.111198  1.9e-05  4.008649  0.0  -0.014501  0.111243  5.8e-05  3.967386  0.0
C  C29  1  0.65069828  0.18982949  0.65661701  1  -0.503797  0.001762  3.960444  0.002  -0.513967  0.001363  3.969562  0.002  -0.163902  -0.496601  0.002193  3.954377  0.003
C  C30  1  0.34931418  0.81016594  0.34338695  1  -0.503839  0.001762  3.96018  0.002  -0.514012  0.001365  3.9693  0.002  -0.163902  -0.49662  0.002194  3.954104  0.003
C  C31  1  0.83221394  0.08923239  0.57800662  1  0.107969  -6.3e-05  3.992437  0.0  0.108553  -8.5e-05  4.01752  0.0  -0.011754  0.107529  -1.6e-05  3.97531  0.0
C  C32  1  0.16779333  0.91075083  0.42199962  1  0.107975  -6.3e-05  3.992431  0.0  0.108556  -9e-05  4.017516  0.0  -0.011797  0.107522  -1.6e-05  3.975325  0.0
C  C33  1  0.58498117  0.74541149  0.63335357  1  -0.408671  -0.000103  3.9481  0.0  -0.410768  -9.6e-05  3.957  0.0  -0.245915  -0.406905  -9.8e-05  3.942085  0.0
C  C34  1  0.41500853  0.25458273  0.36664266  1  -0.408521  -0.000103  3.948113  0.0  -0.410605  -9.2e-05  3.957008  0.0  -0.245831  -0.406758  -9.8e-05  3.942092  0.0
O  O35  1  0.57809628  0.40461079  0.85376659  1  -0.775121  5.2e-05  2.208042  0.0  -0.802499  2.7e-05  2.188053  0.0  -0.364575  -0.75585  8.6e-05  2.221812  0.0
O  O36  1  0.42190213  0.59539869  0.14622430  1  -0.775147  5.2e-05  2.207942  0.0  -0.802525  2.7e-05  2.187955  0.0  -0.364645  -0.755872  8.6e-05  2.221713  0.0
O  O37  1  0.84333494  0.12547974  0.86016925  1  -0.794112  0.016303  2.28005  0.024  -0.823513  0.014124  2.255638  0.021  -0.36521  -0.771344  0.018204  2.297336  0.026
O  O38  1  0.15665558  0.87453283  0.13983520  1  -0.794058  0.016303  2.280027  0.024  -0.823458  0.014124  2.255615  0.021  -0.365153  -0.77128  0.018204  2.297295  0.026
O  O39  1  0.08535643  0.46288935  0.78836490  1  -0.679302  -6.6e-05  2.229899  0.0  -0.700659  -8.9e-05  2.203905  0.0  -0.386046  -0.664415  -6.7e-05  2.247984  0.0
O  O40  1  0.91464207  0.53711700  0.21163657  1  -0.679282  -6.6e-05  2.229903  0.0  -0.700645  -9e-05  2.203909  0.0  -0.386021  -0.664394  -6.7e-05  2.248  0.0
O  O41  1  0.78447554  0.12971720  0.11503237  1  -0.748751  -0.013488  2.212008  -0.008  -0.782058  -0.011255  2.177286  -0.007  -0.562392  -0.72221  -0.014459  2.236606  -0.009
O  O42  1  0.21552136  0.87029069  0.88497171  1  -0.748733  -0.013492  2.212111  -0.008  -0.782035  -0.01126  2.177393  -0.007  -0.562372  -0.722161  -0.014461  2.236682  -0.009
O  O43  1  0.34482647  0.23331105  0.02652358  1  -0.761819  -0.005443  2.296391  -0.004  -0.797466  -0.004562  2.260579  -0.003  -0.548702  -0.733981  -0.005441  2.32115  -0.004
O  O44  1  0.65517389  0.76669988  0.97347828  1  -0.76167  -0.005443  2.296388  -0.004  -0.797324  -0.004563  2.260596  -0.003  -0.548631  -0.733805  -0.005441  2.321149  -0.004
