# generated using pymatgen
data_LiH17C24(NO)6
_symmetry_space_group_name_H-M   'P 1'
_cell_length_a   4.95490911
_cell_length_b   16.05461706
_cell_length_c   37.30902824
_cell_angle_alpha   90.00006754
_cell_angle_beta   90.00003973
_cell_angle_gamma   92.62093760
_symmetry_Int_Tables_number   1
_chemical_formula_structural   LiH17C24(NO)6
_chemical_formula_sum   'Li4 H68 C96 N24 O24'
_cell_volume   2964.79752459
_cell_formula_units_Z   4
loop_
 _symmetry_equiv_pos_site_id
 _symmetry_equiv_pos_as_xyz
  1  'x, y, z'
loop_
 _atom_site_type_symbol
 _atom_site_label
 _atom_site_symmetry_multiplicity
 _atom_site_fract_x
 _atom_site_fract_y
 _atom_site_fract_z
 _atom_site_occupancy
 _atom_site_pbe_bader_charge
 _atom_site_pbe_bader_spin_density
 _atom_site_pbe_cm5_charge
 _atom_site_pbe_ddec_charge
 _atom_site_pbe_ddec_spin_density
 _atom_site_pbe_ddec_sum_bond_order
 _atom_site_pbe_magmom
Li  Li0  1  0.19931730  0.48588346  0.52314563  1  0.861451  0  0.522772  0.806296  0  0.529497  0
Li  Li1  1  0.80068014  0.01411744  0.02314564  1  0.861459  0  0.522748  0.806271  0  0.529527  0
Li  Li2  1  0.80067897  0.51411776  0.47685445  1  0.861458  0  0.52276  0.806272  0  0.529529  0
Li  Li3  1  0.19931999  0.98588254  0.97685417  1  0.86148  0  0.522778  0.806283  0  0.529517  0
H  H4  1  0.09641755  0.30492274  0.68378230  1  0.520663  0  0.305115  0.271074  0  1.003127  0
H  H5  1  0.40198144  0.27302058  0.57059442  1  0.102739  0  0.107443  0.110224  0  0.992107  0
H  H6  1  0.51961229  0.21030947  0.62940109  1  0.116373  0  0.094245  0.105415  0  1.054365  0
H  H7  1  0.16732463  0.39643980  0.64161532  1  0.073695  0  0.106262  0.119707  0  1.01169  0
H  H8  1  0.04893937  0.45850670  0.58359425  1  0.115811  0  0.111973  0.097826  0  1.067731  0
H  H9  1  0.23687670  0.08051253  0.67588067  1  0.435173  0  0.333706  0.28692  0  0.90521  0
H  H10  1  0.13302414  0.78743276  0.75609307  1  0.626541  0  0.289307  0.307136  0  1.036975  0
H  H11  1  0.81571437  0.95974421  0.80108440  1  0.13243  0  0.109176  0.110989  0  1.000277  0
H  H12  1  0.17853920  0.05363320  0.77466024  1  0.095669  0  0.102758  0.110914  0  1.068239  0
H  H13  1  0.90348503  0.98425473  0.66886440  1  0.035115  0  0.105604  0.112655  0  0.988177  0
H  H14  1  0.54584438  0.89016591  0.69530676  1  0.098113  0  0.10431  0.107781  0  0.998522  0
H  H15  1  0.99149574  0.24380806  0.79124344  1  0.475837  0  0.327286  0.282538  0  0.940162  0
H  H16  1  0.60148833  0.13331696  0.98322535  1  0.651033  0  0.313149  0.367259  0  0.974952  0
H  H17  1  0.89370516  0.22959647  0.91099300  1  0.10561  0  0.112506  0.117503  0  0.987518  0
H  H18  1  0.02119841  0.26753047  0.84848558  1  0.019761  0  0.104704  0.112105  0  0.996116  0
H  H19  1  0.45045630  0.07928150  0.80857055  1  0.107006  0  0.102487  0.113982  0  1.062876  0
H  H20  1  0.31846024  0.04357794  0.87133175  1  0.096845  0  0.112242  0.11572  0  0.998619  0
H  H21  1  0.90358436  0.19507550  0.18378269  1  0.520658  0  0.305103  0.271063  0  1.003122  0
H  H22  1  0.59801204  0.22697921  0.07059479  1  0.102798  0  0.107425  0.110233  0  0.992134  0
H  H23  1  0.48038336  0.28968924  0.12940148  1  0.116449  0  0.094265  0.105453  0  1.054353  0
H  H24  1  0.83266916  0.10355957  0.14161539  1  0.073646  0  0.106244  0.119711  0  1.011692  0
H  H25  1  0.95105400  0.04149188  0.08359430  1  0.11581  0  0.112001  0.097878  0  1.067852  0
H  H26  1  0.76311957  0.41948880  0.17588224  1  0.435239  0  0.333703  0.286907  0  0.905202  0
H  H27  1  0.86697779  0.71256816  0.25609293  1  0.626531  0  0.289335  0.307141  0  1.036927  0
H  H28  1  0.18429396  0.54025747  0.30108518  1  0.132534  0  0.109192  0.111033  0  1.000279  0
H  H29  1  0.82146763  0.44636779  0.27466155  1  0.095591  0  0.10277  0.110954  0  1.068175  0
H  H30  1  0.09651210  0.51574408  0.16886596  1  0.035165  0  0.105569  0.112627  0  0.988246  0
H  H31  1  0.45415290  0.60983297  0.19530733  1  0.098149  0  0.104321  0.107798  0  0.998509  0
H  H32  1  0.00850293  0.25619173  0.29124378  1  0.475823  0  0.327278  0.282517  0  0.940187  0
H  H33  1  0.39851317  0.36668150  0.48322524  1  0.651012  0  0.313139  0.367272  0  0.974962  0
H  H34  1  0.10630428  0.27040366  0.41099282  1  0.105639  0  0.11251  0.117529  0  0.987534  0
H  H35  1  0.97880260  0.23246948  0.34848573  1  0.01978  0  0.104703  0.112092  0  0.996043  0
H  H36  1  0.54954449  0.42071834  0.30857048  1  0.107079  0  0.102499  0.114022  0  1.062813  0
H  H37  1  0.68154512  0.45642333  0.37133198  1  0.096813  0  0.112221  0.115713  0  0.998588  0
H  H38  1  0.90358257  0.69507724  0.31621778  1  0.520658  0  0.305106  0.271042  0  1.003166  0
H  H39  1  0.59801694  0.72698127  0.42940593  1  0.102732  0  0.107433  0.110216  0  0.992099  0
H  H40  1  0.48038599  0.78969176  0.37059899  1  0.116348  0  0.094265  0.105438  0  1.054411  0
H  H41  1  0.83267549  0.60356018  0.35838476  1  0.073696  0  0.106264  0.119704  0  1.011693  0
H  H42  1  0.95106075  0.54149328  0.41640583  1  0.115802  0  0.11197  0.097819  0  1.067759  0
H  H43  1  0.76311755  0.91948870  0.32411887  1  0.435189  0  0.333701  0.286988  0  0.905106  0
H  H44  1  0.86697598  0.21256722  0.24390701  1  0.626541  0  0.289317  0.307147  0  1.036992  0
H  H45  1  0.18428768  0.04025515  0.19891568  1  0.132414  0  0.109206  0.111035  0  1.000311  0
H  H46  1  0.82145899  0.94636740  0.22533957  1  0.095661  0  0.102764  0.110902  0  1.068253  0
H  H47  1  0.09651298  0.01574463  0.33113514  1  0.035132  0  0.105575  0.112639  0  0.988197  0
H  H48  1  0.45415556  0.10983282  0.30469306  1  0.098136  0  0.104314  0.107814  0  0.998522  0
H  H49  1  0.00850429  0.75619130  0.20875637  1  0.475826  0  0.327294  0.282521  0  0.940145  0
H  H50  1  0.39851363  0.86668177  0.01677446  1  0.651007  0  0.313161  0.367307  0  0.974893  0
H  H51  1  0.10629707  0.77040413  0.08900681  1  0.105608  0  0.112501  0.117522  0  0.987529  0
H  H52  1  0.97880162  0.73246889  0.15151396  1  0.019755  0  0.104727  0.112137  0  0.996056  0
H  H53  1  0.54954383  0.92071848  0.19142953  1  0.107034  0  0.102507  0.114053  0  1.062802  0
H  H54  1  0.68153805  0.95642329  0.12866806  1  0.096838  0  0.112233  0.115725  0  0.998615  0
H  H55  1  0.09641961  0.80492323  0.81621766  1  0.52065  0  0.305102  0.27104  0  1.003161  0
H  H56  1  0.40198606  0.77302077  0.92940528  1  0.102784  0  0.107422  0.110221  0  0.992145  0
H  H57  1  0.51961658  0.71030949  0.87059860  1  0.116431  0  0.094277  0.105462  0  1.054354  0
H  H58  1  0.16732885  0.89643979  0.85838469  1  0.073712  0  0.106244  0.119721  0  1.011693  0
H  H59  1  0.04894594  0.95850686  0.91640578  1  0.115825  0  0.111993  0.097904  0  1.067825  0
H  H60  1  0.23688064  0.58051180  0.82411811  1  0.435227  0  0.333692  0.286864  0  0.90527  0
H  H61  1  0.13302610  0.28742995  0.74390688  1  0.626534  0  0.289329  0.307141  0  1.036922  0
H  H62  1  0.81570616  0.45974251  0.69891517  1  0.132548  0  0.109199  0.111055  0  1.000279  0
H  H63  1  0.17853249  0.55363219  0.72533826  1  0.095606  0  0.10276  0.110956  0  1.068154  0
H  H64  1  0.90349004  0.48425590  0.83113438  1  0.035169  0  0.105536  0.112555  0  0.988282  0
H  H65  1  0.54584906  0.39016576  0.80469302  1  0.098137  0  0.104317  0.107769  0  0.998535  0
H  H66  1  0.99149720  0.74380825  0.70875630  1  0.475821  0  0.327275  0.282517  0  0.940192  0
H  H67  1  0.60148319  0.63332035  0.51677484  1  0.651069  0  0.313148  0.36729  0  0.974949  0
H  H68  1  0.89370190  0.72959632  0.58900726  1  0.105635  0  0.112523  0.117539  0  0.987502  0
H  H69  1  0.02120156  0.76753050  0.65151462  1  0.019775  0  0.104713  0.112104  0  0.99615  0
H  H70  1  0.45045765  0.57928164  0.69142933  1  0.107  0  0.102487  0.113972  0  1.062892  0
H  H71  1  0.31845527  0.54357852  0.62866809  1  0.096821  0  0.112235  0.115713  0  0.998608  0
C  C72  1  0.79482625  0.22235201  0.69713457  1  1.586973  0  0.351361  0.555622  0  4.111853  0
C  C73  1  0.46060081  0.13039716  0.71481390  1  1.5879  0  0.351233  0.545671  0  4.112221  0
C  C74  1  0.73826390  0.18755303  0.75648936  1  1.584209  0  0.354381  0.550153  0  4.105297  0
C  C75  1  0.65217525  0.40521016  0.53723980  1  1.531346  0  0.236391  0.635885  0  4.182607  0
C  C76  1  0.71914055  0.36882625  0.57267411  1  -0.014401  0  -0.018648  -0.066386  0  3.982253  0
C  C77  1  0.57114797  0.29928910  0.58621719  1  -0.060595  0  -0.078371  -0.067184  0  3.98985  0
C  C78  1  0.63591370  0.26391184  0.61901649  1  0.01006  0  -0.10572  -0.190607  0  3.972708  0
C  C79  1  0.85118036  0.29928108  0.63927192  1  0.308952  0  0.102408  0.25963  0  4.000975  0
C  C80  1  0.99939020  0.36950163  0.62589503  1  0.00676  0  -0.096353  -0.193756  0  3.972984  0
C  C81  1  0.93362689  0.40362237  0.59313486  1  -0.074165  0  -0.074096  -0.074359  0  4.00041  0
C  C82  1  0.43607507  0.86707243  0.76623756  1  1.482687  0  0.220427  0.569567  0  4.145989  0
C  C83  1  0.65649587  0.91937012  0.75000774  1  -0.032036  0  -0.032522  -0.080336  0  4.01955  0
C  C84  1  0.83765879  0.96514389  0.77210026  1  -0.005199  0  -0.073911  -0.051723  0  3.953031  0
C  C85  1  0.04082115  0.01729520  0.75763325  1  -0.026833  0  -0.099523  -0.1827  0  3.945282  0
C  C86  1  0.06487182  0.02513998  0.72024311  1  0.34871  0  0.10685  0.260925  0  4.019609  0
C  C87  1  0.88564374  0.97804383  0.69793189  1  -0.044557  0  -0.102517  -0.202611  0  3.994254  0
C  C88  1  0.68520317  0.92577402  0.71262215  1  0.000749  0  -0.087827  -0.071768  0  4.005731  0
C  C89  1  0.51752262  0.11086495  0.93236151  1  1.547409  0  0.248585  0.611832  0  4.120629  0
C  C90  1  0.59474164  0.13477860  0.89519625  1  0.010422  0  -0.023278  -0.074298  0  4.000641  0
C  C91  1  0.79427558  0.19779516  0.88848905  1  -0.056167  0  -0.078067  -0.066449  0  3.998324  0
C  C92  1  0.86488312  0.21877795  0.85361359  1  0.041864  0  -0.102054  -0.207983  0  4.009325  0
C  C93  1  0.73938469  0.17693051  0.82439518  1  0.308872  0  0.105319  0.258647  0  4.027916  0
C  C94  1  0.54214818  0.11313428  0.83093110  1  -0.032628  0  -0.099601  -0.191274  0  3.958742  0
C  C95  1  0.47135792  0.09302499  0.86607219  1  -0.024488  0  -0.071972  -0.056099  0  3.966118  0
C  C96  1  0.20517400  0.27764814  0.19713494  1  1.5871  0  0.351322  0.555554  0  4.111864  0
C  C97  1  0.53939770  0.36960428  0.21481408  1  1.587894  0  0.351185  0.545626  0  4.112256  0
C  C98  1  0.26173247  0.31244604  0.25648948  1  1.584244  0  0.354397  0.550169  0  4.105298  0
C  C99  1  0.34782007  0.09478954  0.03723928  1  1.531352  0  0.236376  0.635856  0  4.18276  0
C  C100  1  0.28085083  0.13117292  0.07267388  1  -0.014411  0  -0.018695  -0.066435  0  3.982278  0
C  C101  1  0.42884551  0.20071011  0.08621754  1  -0.06059  0  -0.078395  -0.067191  0  3.989915  0
C  C102  1  0.36407978  0.23608622  0.11901631  1  0.010055  0  -0.105659  -0.190583  0  3.972818  0
C  C103  1  0.14881140  0.20071828  0.13927144  1  0.308976  0  0.102436  0.259647  0  4.000948  0
C  C104  1  0.00060140  0.13049707  0.12589476  1  0.006745  0  -0.09632  -0.193697  0  3.973022  0
C  C105  1  0.06636461  0.09637686  0.09313379  1  -0.074234  0  -0.074152  -0.074514  0  4.000652  0
C  C106  1  0.56392902  0.63292914  0.26623735  1  1.482674  0  0.220389  0.569558  0  4.146058  0
C  C107  1  0.34350795  0.58063016  0.25000855  1  -0.032051  0  -0.032439  -0.08022  0  4.019561  0
C  C108  1  0.16234727  0.53485708  0.27210131  1  -0.005492  0  -0.073884  -0.051716  0  3.95305  0
C  C109  1  0.95918146  0.48270512  0.25763459  1  -0.025982  0  -0.099608  -0.182803  0  3.945367  0
C  C110  1  0.93512645  0.47485961  0.22024444  1  0.348171  0  0.106839  0.260836  0  4.019599  0
C  C111  1  0.11435566  0.52195568  0.19793212  1  -0.044583  0  -0.10246  -0.202445  0  3.994208  0
C  C112  1  0.31479824  0.57422491  0.21262269  1  0.000771  0  -0.087921  -0.07196  0  4.005745  0
C  C113  1  0.48248079  0.38913461  0.43236142  1  1.547412  0  0.248611  0.611818  0  4.120792  0
C  C114  1  0.40526367  0.36522148  0.39519641  1  0.010163  0  -0.023256  -0.07412  0  4.00061  0
C  C115  1  0.20572565  0.30220491  0.38848890  1  -0.05617  0  -0.078069  -0.066549  0  3.998388  0
C  C116  1  0.13512003  0.28122264  0.35361368  1  0.041871  0  -0.102089  -0.20798  0  4.009282  0
C  C117  1  0.26061829  0.32307000  0.32439530  1  0.308813  0  0.105319  0.258663  0  4.027975  0
C  C118  1  0.45785466  0.38686500  0.33093101  1  -0.032704  0  -0.099588  -0.191335  0  3.958719  0
C  C119  1  0.52864521  0.40697501  0.36607238  1  -0.024224  0  -0.071944  -0.056116  0  3.966076  0
C  C120  1  0.20517397  0.77764859  0.30286524  1  1.587091  0  0.351277  0.555529  0  4.11196  0
C  C121  1  0.53939555  0.86960469  0.28518591  1  1.587875  0  0.351233  0.545711  0  4.112149  0
C  C122  1  0.26173806  0.81244571  0.24351045  1  1.584298  0  0.354245  0.549863  0  4.105574  0
C  C123  1  0.34782102  0.59479107  0.46276054  1  1.531347  0  0.23642  0.635883  0  4.182722  0
C  C124  1  0.28085774  0.63117498  0.42732623  1  -0.014397  0  -0.0187  -0.066475  0  3.982335  0
C  C125  1  0.42885022  0.70071150  0.41378315  1  -0.060577  0  -0.078383  -0.067186  0  3.989807  0
C  C126  1  0.36408046  0.73608876  0.38098359  1  0.010102  0  -0.105681  -0.190582  0  3.972765  0
C  C127  1  0.14881802  0.70072077  0.36072762  1  0.308956  0  0.102387  0.259627  0  4.000992  0
C  C128  1  0.00060993  0.63049835  0.37410505  1  0.006789  0  -0.096304  -0.193685  0  3.973007  0
C  C129  1  0.06637121  0.59637761  0.40686548  1  -0.074174  0  -0.074119  -0.074367  0  4.000483  0
C  C130  1  0.56393101  0.13292692  0.23376251  1  1.48241  0  0.220437  0.569614  0  4.145945  0
C  C131  1  0.34350599  0.08062799  0.24999234  1  -0.031717  0  -0.032501  -0.080287  0  4.01955  0
C  C132  1  0.16234326  0.03485546  0.22789928  1  -0.005299  0  -0.073952  -0.051777  0  3.953075  0
C  C133  1  0.95917898  0.98270478  0.24236656  1  -0.026589  0  -0.099506  -0.182645  0  3.945327  0
C  C134  1  0.93512629  0.97486000  0.27975644  1  0.348555  0  0.106814  0.260852  0  4.019703  0
C  C135  1  0.11435620  0.02195490  0.30206792  1  -0.044567  0  -0.102476  -0.202512  0  3.994281  0
C  C136  1  0.31479869  0.07422409  0.28737766  1  0.00072  0  -0.087838  -0.071875  0  4.005834  0
C  C137  1  0.48247539  0.88913440  0.06763830  1  1.547399  0  0.248672  0.611966  0  4.12066  0
C  C138  1  0.40525454  0.86522200  0.10480329  1  0.010411  0  -0.023292  -0.074272  0  4.000591  0
C  C139  1  0.20572059  0.80220545  0.11151076  1  -0.056198  0  -0.078142  -0.066617  0  3.998438  0
C  C140  1  0.13511691  0.78122140  0.14638595  1  0.041849  0  -0.102021  -0.207923  0  4.009383  0
C  C141  1  0.26061524  0.82306823  0.17560437  1  0.30915  0  0.105327  0.258637  0  4.028019  0
C  C142  1  0.45784993  0.88686570  0.16906871  1  -0.032653  0  -0.099656  -0.191437  0  3.958757  0
C  C143  1  0.52863826  0.90697561  0.13392736  1  -0.024463  0  -0.071928  -0.056055  0  3.966003  0
C  C144  1  0.79482603  0.72235122  0.80286487  1  1.587114  0  0.351277  0.555504  0  4.111994  0
C  C145  1  0.46060453  0.63039632  0.78518600  1  1.587872  0  0.351185  0.54559  0  4.11225  0
C  C146  1  0.73826573  0.68755456  0.74351059  1  1.584284  0  0.354411  0.550245  0  4.105252  0
C  C147  1  0.65218006  0.90521044  0.96275999  1  1.531331  0  0.236423  0.635972  0  4.182528  0
C  C148  1  0.71914727  0.86882706  0.92732567  1  -0.014433  0  -0.01864  -0.066431  0  3.982287  0
C  C149  1  0.57115058  0.79928987  0.91378227  1  -0.060601  0  -0.078412  -0.067178  0  3.989919  0
C  C150  1  0.63592025  0.76391314  0.88098377  1  0.010048  0  -0.105701  -0.190651  0  3.972864  0
C  C151  1  0.85118661  0.79928108  0.86072864  1  0.309023  0  0.102453  0.25969  0  4.000938  0
C  C152  1  0.99939900  0.86950478  0.87410532  1  0.006678  0  -0.096312  -0.193738  0  3.973066  0
C  C153  1  0.93363350  0.90362312  0.90686603  1  -0.074248  0  -0.074149  -0.074508  0  4.00071  0
C  C154  1  0.43607101  0.36707021  0.73376272  1  1.4827  0  0.220422  0.569552  0  4.145986  0
C  C155  1  0.65649419  0.41936982  0.74999153  1  -0.032022  0  -0.032527  -0.080323  0  4.019574  0
C  C156  1  0.83765487  0.46514290  0.72789877  1  -0.00547  0  -0.073942  -0.051813  0  3.953076  0
C  C157  1  0.04081664  0.51729486  0.74236602  1  -0.026232  0  -0.099555  -0.18275  0  3.945288  0
C  C158  1  0.06487165  0.52514037  0.77975564  1  0.348252  0  0.10682  0.260821  0  4.019634  0
C  C159  1  0.88564455  0.47804492  0.80206742  1  -0.044553  0  -0.102439  -0.202413  0  3.994273  0
C  C160  1  0.68520381  0.42577444  0.78737766  1  0.000746  0  -0.087769  -0.071707  0  4.005706  0
C  C161  1  0.51751969  0.61086786  0.56763866  1  1.547391  0  0.248557  0.611847  0  4.120773  0
C  C162  1  0.59474048  0.63477850  0.60480367  1  0.010404  0  -0.023243  -0.074156  0  4.000612  0
C  C163  1  0.79427832  0.69779383  0.61151118  1  -0.056175  0  -0.078098  -0.066555  0  3.998397  0
C  C164  1  0.86488606  0.71877672  0.64638640  1  0.04186  0  -0.102052  -0.207967  0  4.009391  0
C  C165  1  0.73938578  0.67692935  0.67560504  1  0.308822  0  0.105331  0.258698  0  4.027829  0
C  C166  1  0.54214729  0.61313373  0.66906907  1  -0.03263  0  -0.099594  -0.191272  0  3.958718  0
C  C167  1  0.47135693  0.59302497  0.63392770  1  -0.02447  0  -0.071962  -0.05612  0  3.966074  0
N  N168  1  0.58709718  0.17098581  0.68745968  1  -1.239484  0  -0.347732  -0.541914  0  3.236993  0
N  N169  1  0.51908850  0.13739040  0.74991024  1  -1.210602  0  -0.334982  -0.509034  0  3.212602  0
N  N170  1  0.88559384  0.22968107  0.73141502  1  -1.262419  0  -0.344376  -0.535786  0  3.345395  0
N  N171  1  0.93097538  0.27161015  0.67312003  1  -1.295131  0  -0.386855  -0.368348  0  3.549539  0
N  N172  1  0.25285095  0.07806327  0.70302370  1  -1.219783  0  -0.384499  -0.363387  0  3.580593  0
N  N173  1  0.83043345  0.20215869  0.79055110  1  -1.257874  0  -0.385665  -0.359576  0  3.551268  0
N  N174  1  0.41289907  0.32901494  0.18746009  1  -1.239573  0  -0.34767  -0.541814  0  3.236931  0
N  N175  1  0.48091003  0.36260990  0.24991067  1  -1.210659  0  -0.334955  -0.509042  0  3.212547  0
N  N176  1  0.11440431  0.27031730  0.23141511  1  -1.262465  0  -0.344379  -0.535773  0  3.34539  0
N  N177  1  0.06902455  0.22838869  0.17312036  1  -1.295102  0  -0.386873  -0.368368  0  3.549473  0
N  N178  1  0.74714539  0.42193752  0.20302473  1  -1.219903  0  -0.384456  -0.36331  0  3.580543  0
N  N179  1  0.16956320  0.29784110  0.29055147  1  -1.257784  0  -0.385667  -0.359564  0  3.551247  0
N  N180  1  0.41289908  0.82901542  0.31254013  1  -1.239571  0  -0.347674  -0.541836  0  3.236964  0
N  N181  1  0.48091162  0.86260958  0.25008957  1  -1.210688  0  -0.334993  -0.509014  0  3.212634  0
N  N182  1  0.11440601  0.77031704  0.26858479  1  -1.262424  0  -0.344374  -0.535791  0  3.345414  0
N  N183  1  0.06902272  0.72838983  0.32687951  1  -1.295156  0  -0.386844  -0.36832  0  3.549547  0
N  N184  1  0.74714330  0.92193796  0.29697611  1  -1.219782  0  -0.384461  -0.363463  0  3.580494  0
N  N185  1  0.16956842  0.79783942  0.20944844  1  -1.258103  0  -0.385562  -0.359285  0  3.55121  0
N  N186  1  0.58710307  0.67098504  0.81253972  1  -1.2396  0  -0.347651  -0.54176  0  3.236984  0
N  N187  1  0.51909028  0.63739133  0.75008941  1  -1.210653  0  -0.33501  -0.509117  0  3.212556  0
N  N188  1  0.88559581  0.72968268  0.76858497  1  -1.262464  0  -0.344384  -0.535808  0  3.345422  0
N  N189  1  0.93097741  0.77161005  0.82687972  1  -1.295086  0  -0.386857  -0.368334  0  3.54949  0
N  N190  1  0.25285482  0.57806308  0.79697535  1  -1.219765  0  -0.384429  -0.363249  0  3.580569  0
N  N191  1  0.83043509  0.70216012  0.70944887  1  -1.257845  0  -0.385678  -0.359615  0  3.551288  0
O  O192  1  0.82287764  0.45562190  0.52233298  1  -1.242066  0  -0.447499  -0.725064  0  2.258374  0
O  O193  1  0.42074729  0.38525989  0.52327105  1  -1.217958  0  -0.368195  -0.646393  0  2.218133  0
O  O194  1  0.28845278  0.82189156  0.74275798  1  -1.187374  0  -0.343476  -0.499948  0  2.378968  0
O  O195  1  0.39164519  0.86520539  0.79899907  1  -1.151185  0  -0.290441  -0.500416  0  2.178086  0
O  O196  1  0.34298171  0.05456294  0.93857500  1  -1.196302  0  -0.35204  -0.597827  0  2.223284  0
O  O197  1  0.64958036  0.15410379  0.95746698  1  -1.175478  0  -0.311759  -0.478697  0  2.278538  0
O  O198  1  0.17711951  0.04437713  0.02233242  1  -1.242288  0  -0.447479  -0.725031  0  2.258539  0
O  O199  1  0.57924813  0.11474102  0.02327137  1  -1.217922  0  -0.368173  -0.64638  0  2.218195  0
O  O200  1  0.71154485  0.67810808  0.24275807  1  -1.187401  0  -0.343449  -0.499875  0  2.379047  0
O  O201  1  0.60835735  0.63479815  0.29899886  1  -1.151181  0  -0.290476  -0.500514  0  2.178016  0
O  O202  1  0.65702192  0.44543789  0.43857522  1  -1.196332  0  -0.352067  -0.597838  0  2.223294  0
O  O203  1  0.35042484  0.34589335  0.45746632  1  -1.175453  0  -0.311821  -0.4788  0  2.278557  0
O  O204  1  0.17711854  0.54437870  0.47766710  1  -1.242197  0  -0.447498  -0.725073  0  2.258481  0
O  O205  1  0.57924898  0.61474134  0.47672930  1  -1.217941  0  -0.368165  -0.646359  0  2.218189  0
O  O206  1  0.71154926  0.17810779  0.25724210  1  -1.187391  0  -0.343467  -0.499922  0  2.379048  0
O  O207  1  0.60835897  0.13479459  0.20100128  1  -1.151174  0  -0.290483  -0.500526  0  2.17806  0
O  O208  1  0.65701832  0.94543642  0.06142481  1  -1.19628  0  -0.352099  -0.597915  0  2.223293  0
O  O209  1  0.35042343  0.84589369  0.04253337  1  -1.175487  0  -0.311766  -0.478753  0  2.278476  0
O  O210  1  0.82288042  0.95562160  0.97766740  1  -1.242096  0  -0.447517  -0.725086  0  2.258363  0
O  O211  1  0.42075006  0.88525959  0.97672871  1  -1.217914  0  -0.368186  -0.64641  0  2.218122  0
O  O212  1  0.28845481  0.32188878  0.75724201  1  -1.187427  0  -0.343478  -0.499897  0  2.378904  0
O  O213  1  0.39163901  0.36520370  0.70100095  1  -1.151172  0  -0.290479  -0.500507  0  2.178042  0
O  O214  1  0.34297664  0.55456521  0.56142432  1  -1.196268  0  -0.352061  -0.597931  0  2.223289  0
O  O215  1  0.64957353  0.65410850  0.54253403  1  -1.175547  0  -0.311792  -0.478758  0  2.278541  0
