# generated using pymatgen
data_CaH22(CO)12
_symmetry_space_group_name_H-M   'P 1'
_cell_length_a   5.74064640
_cell_length_b   6.81931740
_cell_length_c   19.31039475
_cell_angle_alpha   90.00025140
_cell_angle_beta   90.00056412
_cell_angle_gamma   89.99968859
_symmetry_Int_Tables_number   1
_chemical_formula_structural   CaH22(CO)12
_chemical_formula_sum   'Ca2 H44 C24 O24'
_cell_volume   755.94962030
_cell_formula_units_Z   2
loop_
 _symmetry_equiv_pos_site_id
 _symmetry_equiv_pos_as_xyz
  1  'x, y, z'
loop_
 _atom_site_type_symbol
 _atom_site_label
 _atom_site_symmetry_multiplicity
 _atom_site_fract_x
 _atom_site_fract_y
 _atom_site_fract_z
 _atom_site_occupancy
 _atom_site_hle17_bader_spin_density
 _atom_site_hle17_ddec_charge
 _atom_site_hle17_ddec_spin_density
 _atom_site_hle17_ddec_sum_bond_order
 _atom_site_hle17_magmom
 _atom_site_hse06_10hf_bader_spin_density
 _atom_site_hse06_10hf_ddec_charge
 _atom_site_hse06_10hf_ddec_spin_density
 _atom_site_hse06_10hf_ddec_sum_bond_order
 _atom_site_hse06_10hf_magmom
 _atom_site_hse06_bader_spin_density
 _atom_site_hse06_ddec_charge
 _atom_site_hse06_ddec_spin_density
 _atom_site_hse06_ddec_sum_bond_order
 _atom_site_hse06_magmom
 _atom_site_pbe_bader_spin_density
 _atom_site_pbe_cm5_charge
 _atom_site_pbe_ddec_charge
 _atom_site_pbe_ddec_spin_density
 _atom_site_pbe_ddec_sum_bond_order
 _atom_site_pbe_magmom
Ca  Ca0  1  0.27705855  0.00000853  0.99999653  1  0  1.499206  0  1.163958  0  0  1.353034  0  1.524027  0  0  1.396197  0  1.479512  0  0  0.877949  1.320518  0  1.555747  0
Ca  Ca1  1  0.72293744  0.49999873  0.50000262  1  0  1.499175  0  1.164033  0  0  1.352962  0  1.524114  0  0  1.396126  0  1.479603  0  0  0.877926  1.320445  0  1.55583  0
H  H2  1  0.55433772  0.80188623  0.12412163  1  0  0.389774  0  0.892115  0  0  0.362611  0  0.963512  0  0  0.374021  0  0.950924  0  0  0.304142  0.354176  0  0.972793  0
H  H3  1  0.55433124  0.19811200  0.87587482  1  0  0.389753  0  0.892241  0  0  0.362655  0  0.96353  0  0  0.374076  0  0.950925  0  0  0.304188  0.354226  0  0.972799  0
H  H4  1  0.44566760  0.30188638  0.37587927  1  0  0.389733  0  0.892155  0  0  0.362562  0  0.96357  0  0  0.373971  0  0.950983  0  0  0.304125  0.354128  0  0.972848  0
H  H5  1  0.44566869  0.69811233  0.62412308  1  0  0.389789  0  0.892168  0  0  0.36266  0  0.963518  0  0  0.374089  0  0.950889  0  0  0.304168  0.354229  0  0.972789  0
H  H6  1  0.18961456  0.16579269  0.13885619  1  0  0.373826  0  0.918476  0  0  0.348743  0  0.991201  0  0  0.358481  0  0.980192  0  0  0.301464  0.341849  0  0.998964  0
H  H7  1  0.18961390  0.83421599  0.86114334  1  0  0.373806  0  0.918513  0  0  0.348713  0  0.991226  0  0  0.35845  0  0.980219  0  0  0.30145  0.34182  0  0.998987  0
H  H8  1  0.81038468  0.66578992  0.36114398  1  0  0.373834  0  0.918462  0  0  0.34874  0  0.991193  0  0  0.358477  0  0.980184  0  0  0.301449  0.341843  0  0.998966  0
H  H9  1  0.81038514  0.33421447  0.63885633  1  0  0.373858  0  0.918508  0  0  0.348763  0  0.99123  0  0  0.3585  0  0.980221  0  0  0.301465  0.341871  0  0.998988  0
H  H10  1  0.73736577  0.22170675  0.00314878  1  0  0.39262  0  0.884851  0  0  0.368322  0  0.953732  0  0  0.379207  0  0.94103  0  0  0.316079  0.360523  0  0.962906  0
H  H11  1  0.73736823  0.77830677  0.99685080  1  0  0.392719  0  0.884717  0  0  0.368402  0  0.95364  0  0  0.379295  0  0.940918  0  0  0.316094  0.3606  0  0.962815  0
H  H12  1  0.26262962  0.72169643  0.49684837  1  0  0.392692  0  0.884713  0  0  0.368383  0  0.953611  0  0  0.379267  0  0.940908  0  0  0.3161  0.360584  0  0.962782  0
H  H13  1  0.26262594  0.27830458  0.50315137  1  0  0.392703  0  0.884699  0  0  0.368379  0  0.953632  0  0  0.379268  0  0.940916  0  0  0.316081  0.360577  0  0.962811  0
H  H14  1  0.19342299  0.11436456  0.26428601  1  0  0.369274  0  0.925012  0  0  0.340863  0  1.004428  0  0  0.35145  0  0.992363  0  0  0.291677  0.33345  0  1.012823  0
H  H15  1  0.19343526  0.88563090  0.73571560  1  0  0.369287  0  0.925103  0  0  0.34084  0  1.004552  0  0  0.351418  0  0.99251  0  0  0.291663  0.333431  0  1.012939  0
H  H16  1  0.80657658  0.61436171  0.23571305  1  0  0.369355  0  0.924827  0  0  0.340895  0  1.004316  0  0  0.351479  0  0.992259  0  0  0.291692  0.333482  0  1.01271  0
H  H17  1  0.80657215  0.38562950  0.76428207  1  0  0.369365  0  0.925058  0  0  0.340978  0  1.004437  0  0  0.351557  0  0.992389  0  0  0.291693  0.33357  0  1.012821  0
H  H18  1  0.43791567  0.51491247  0.19582562  1  0  0.091991  0  0.97053  0  0  0.108156  0  1.033737  0  0  0.109333  0  1.033886  0  0  0.099058  0.107233  0  1.033727  0
H  H19  1  0.43792585  0.48509802  0.80417463  1  0  0.091995  0  0.970514  0  0  0.108192  0  1.033701  0  0  0.109375  0  1.033836  0  0  0.099078  0.107271  0  1.033692  0
H  H20  1  0.56208455  0.01491120  0.30417483  1  0  0.09199  0  0.970586  0  0  0.108171  0  1.033777  0  0  0.10935  0  1.033922  0  0  0.099068  0.107248  0  1.033767  0
H  H21  1  0.56208614  0.98509139  0.69582734  1  0  0.092043  0  0.970517  0  0  0.108215  0  1.033726  0  0  0.109395  0  1.033865  0  0  0.099074  0.107292  0  1.033719  0
H  H22  1  0.13936754  0.45923160  0.19276720  1  0  0.104224  0  0.952342  0  0  0.118673  0  1.016425  0  0  0.120125  0  1.016278  0  0  0.103718  0.117501  0  1.016698  0
H  H23  1  0.13937223  0.54078024  0.80722959  1  0  0.1042  0  0.952331  0  0  0.118694  0  1.016363  0  0  0.120133  0  1.016231  0  0  0.103712  0.117522  0  1.016639  0
H  H24  1  0.86063502  0.95922646  0.30723394  1  0  0.104235  0  0.95232  0  0  0.118694  0  1.01639  0  0  0.120145  0  1.016244  0  0  0.103719  0.117523  0  1.01666  0
H  H25  1  0.86063743  0.04077330  0.69276911  1  0  0.104204  0  0.952333  0  0  0.118665  0  1.01642  0  0  0.120122  0  1.016262  0  0  0.103711  0.117494  0  1.016689  0
H  H26  1  0.26169450  0.49627814  0.05120790  1  0  0.041352  0  0.930847  0  0  0.051122  0  0.995142  0  0  0.051937  0  0.993944  0  0  0.115562  0.05045  0  0.996093  0
H  H27  1  0.26169193  0.50372581  0.94878925  1  0  0.041448  0  0.930799  0  0  0.051192  0  0.995155  0  0  0.052007  0  0.993957  0  0  0.115582  0.050522  0  0.996103  0
H  H28  1  0.73829910  0.99627679  0.44879278  1  0  0.041355  0  0.93082  0  0  0.051105  0  0.995143  0  0  0.051919  0  0.993948  0  0  0.115558  0.050433  0  0.996094  0
H  H29  1  0.73830229  0.00372207  0.55120939  1  0  0.041411  0  0.930846  0  0  0.051139  0  0.995155  0  0  0.051954  0  0.993959  0  0  0.115585  0.050467  0  0.996104  0
H  H30  1  0.67705760  0.48230381  0.07671083  1  0  0.063832  0  0.949971  0  0  0.076054  0  1.016504  0  0  0.07706  0  1.015677  0  0  0.104423  0.075217  0  1.017224  0
H  H31  1  0.67705584  0.51769825  0.92329116  1  0  0.063922  0  0.949965  0  0  0.076126  0  1.016444  0  0  0.077132  0  1.015613  0  0  0.104465  0.075253  0  1.017204  0
H  H32  1  0.32293609  0.98230110  0.42328828  1  0  0.063832  0  0.950017  0  0  0.076036  0  1.016559  0  0  0.07704  0  1.015728  0  0  0.104407  0.075191  0  1.01729  0
H  H33  1  0.32294003  0.01769671  0.57671216  1  0  0.063857  0  0.949949  0  0  0.07608  0  1.016473  0  0  0.077089  0  1.015643  0  0  0.104423  0.075243  0  1.017195  0
H  H34  1  0.63867327  0.27443446  0.13186018  1  0  0.050173  0  0.928312  0  0  0.064879  0  0.994858  0  0  0.065724  0  0.993233  0  0  0.09767  0.064055  0  0.996308  0
H  H35  1  0.63866310  0.72557071  0.86814066  1  0  0.050238  0  0.928314  0  0  0.064905  0  0.994856  0  0  0.065727  0  0.993255  0  0  0.097664  0.064084  0  0.9963  0
H  H36  1  0.36133571  0.77443089  0.36814016  1  0  0.050165  0  0.928403  0  0  0.064865  0  0.994934  0  0  0.065699  0  0.993317  0  0  0.097667  0.064044  0  0.996381  0
H  H37  1  0.36133490  0.22557114  0.63186091  1  0  0.050203  0  0.928303  0  0  0.064884  0  0.994878  0  0  0.065727  0  0.993254  0  0  0.097664  0.064061  0  0.996327  0
H  H38  1  0.11926710  0.77653948  0.26018292  1  0  0.05722  0  0.964613  0  0  0.067676  0  1.037166  0  0  0.069362  0  1.034986  0  0  0.099379  0.066292  0  1.03891  0
H  H39  1  0.11928382  0.22345778  0.73981122  1  0  0.057272  0  0.96461  0  0  0.067822  0  1.037029  0  0  0.06951  0  1.034849  0  0  0.099405  0.066434  0  1.038781  0
H  H40  1  0.88073142  0.27653450  0.23981742  1  0  0.057229  0  0.964617  0  0  0.067683  0  1.037185  0  0  0.069368  0  1.035005  0  0  0.099349  0.066299  0  1.03893  0
H  H41  1  0.88071943  0.72345491  0.76018724  1  0  0.05727  0  0.964579  0  0  0.067742  0  1.037122  0  0  0.06943  0  1.034937  0  0  0.099362  0.066357  0  1.038872  0
H  H42  1  0.42098534  0.81615850  0.24423603  1  0  0.054423  0  0.952727  0  0  0.065686  0  1.023782  0  0  0.067149  0  1.022075  0  0  0.096734  0.064488  0  1.025206  0
H  H43  1  0.42101156  0.18383593  0.75576418  1  0  0.054495  0  0.952757  0  0  0.065687  0  1.023872  0  0  0.067145  0  1.022163  0  0  0.096698  0.06449  0  1.02529  0
H  H44  1  0.57901292  0.31615802  0.25576541  1  0  0.054476  0  0.95268  0  0  0.065723  0  1.023762  0  0  0.067187  0  1.022055  0  0  0.09675  0.064524  0  1.025188  0
H  H45  1  0.57899543  0.68383716  0.74423163  1  0  0.054453  0  0.952723  0  0  0.065698  0  1.023825  0  0  0.06716  0  1.022112  0  0  0.09672  0.064501  0  1.025246  0
C  C46  1  0.98430329  0.76953595  0.12072924  1  0  0.643379  0  3.790771  0  0  0.588758  0  4.091901  0  0  0.621255  0  4.08493  0  0  0.231026  0.566547  0  4.096187  0
C  C47  1  0.98434026  0.23046472  0.87926329  1  0  0.643268  0  3.789977  0  0  0.588827  0  4.090879  0  0  0.621341  0  4.08389  0  0  0.231033  0.566589  0  4.095202  0
C  C48  1  0.01568134  0.26954250  0.37927886  1  0  0.643446  0  3.790419  0  0  0.588725  0  4.091683  0  0  0.621224  0  4.084707  0  0  0.230961  0.566507  0  4.09598  0
C  C49  1  0.01565946  0.73046110  0.62073622  1  0  0.643266  0  3.78995  0  0  0.588779  0  4.090855  0  0  0.621308  0  4.083849  0  0  0.230972  0.566547  0  4.095166  0
C  C50  1  0.22919730  0.74554426  0.15332869  1  0  0.184627  0  3.620096  0  0  0.186186  0  3.867768  0  0  0.187716  0  3.880214  0  0  0.066161  0.18484  0  3.859325  0
C  C51  1  0.22918949  0.25445397  0.84666888  1  0  0.184538  0  3.620694  0  0  0.186063  0  3.868361  0  0  0.187578  0  3.880803  0  0  0.066205  0.184725  0  3.859925  0
C  C52  1  0.77080839  0.24553818  0.34667264  1  0  0.184334  0  3.620502  0  0  0.185969  0  3.868111  0  0  0.187494  0  3.880554  0  0  0.066076  0.184626  0  3.859669  0
C  C53  1  0.77081704  0.75445906  0.65332963  1  0  0.184525  0  3.620546  0  0  0.18613  0  3.868174  0  0  0.187625  0  3.880612  0  0  0.066175  0.184789  0  3.85974  0
C  C54  1  0.28204589  0.52538580  0.16308604  1  0  -0.260261  0  3.60287  0  0  -0.310004  0  3.847778  0  0  -0.313349  0  3.859881  0  0  -0.165234  -0.307374  0  3.839408  0
C  C55  1  0.28205025  0.47462098  0.83691221  1  0  -0.260292  0  3.602849  0  0  -0.310109  0  3.847833  0  0  -0.313439  0  3.859935  0  0  -0.165264  -0.307476  0  3.839463  0
C  C56  1  0.71795253  0.02538717  0.33691443  1  0  -0.260227  0  3.603061  0  0  -0.309998  0  3.847935  0  0  -0.313344  0  3.86004  0  0  -0.165223  -0.307369  0  3.839563  0
C  C57  1  0.71795484  0.97461471  0.66308871  1  0  -0.260229  0  3.602899  0  0  -0.310038  0  3.847762  0  0  -0.313371  0  3.85985  0  0  -0.165223  -0.307408  0  3.839398  0
C  C58  1  0.31738090  0.40802605  0.09582067  1  0  0.237784  0  3.573904  0  0  0.213857  0  3.835025  0  0  0.22048  0  3.843746  0  0  -0.001161  0.209248  0  3.829093  0
C  C59  1  0.31737453  0.59197031  0.90417871  1  0  0.237919  0  3.573876  0  0  0.213882  0  3.835115  0  0  0.220506  0  3.843822  0  0  -0.001101  0.209275  0  3.82917  0
C  C60  1  0.68262025  0.90802880  0.40418194  1  0  0.237845  0  3.57361  0  0  0.213893  0  3.834774  0  0  0.220514  0  3.843483  0  0  -0.001139  0.209285  0  3.82884  0
C  C61  1  0.68262260  0.09197031  0.59582214  1  0  0.237733  0  3.573966  0  0  0.213893  0  3.834981  0  0  0.220516  0  3.843695  0  0  -0.001173  0.209284  0  3.82905  0
C  C62  1  0.57231039  0.34979231  0.08529299  1  0  0.084483  0  3.623441  0  0  0.018849  0  3.901156  0  0  0.026124  0  3.905176  0  0  -0.074778  0.013838  0  3.898646  0
C  C63  1  0.57230748  0.65021317  0.91470921  1  0  0.084224  0  3.623695  0  0  0.01877  0  3.90121  0  0  0.026063  0  3.905224  0  0  -0.074832  0.013784  0  3.898706  0
C  C64  1  0.42768417  0.84978754  0.41470642  1  0  0.084469  0  3.623506  0  0  0.018896  0  3.901125  0  0  0.026191  0  3.905123  0  0  -0.07475  0.013889  0  3.898618  0
C  C65  1  0.42768927  0.15020979  0.58529380  1  0  0.084379  0  3.62361  0  0  0.018745  0  3.901298  0  0  0.026021  0  3.905318  0  0  -0.074834  0.013732  0  3.898793  0
C  C66  1  0.24421040  0.84458977  0.22431232  1  0  0.060737  0  3.645233  0  0  -0.009651  0  3.924821  0  0  -0.002483  0  3.927311  0  0  -0.081866  -0.014335  0  3.923105  0
C  C67  1  0.24423049  0.15541425  0.77568840  1  0  0.060681  0  3.645576  0  0  -0.009739  0  3.925081  0  0  -0.002557  0  3.927558  0  0  -0.081715  -0.01442  0  3.923363  0
C  C68  1  0.75578942  0.34458728  0.27568864  1  0  0.060766  0  3.645322  0  0  -0.009688  0  3.924905  0  0  -0.002517  0  3.927388  0  0  -0.081823  -0.014372  0  3.923185  0
C  C69  1  0.75577494  0.65540857  0.72431047  1  0  0.06083  0  3.645347  0  0  -0.00967  0  3.925031  0  0  -0.002482  0  3.927501  0  0  -0.081707  -0.014351  0  3.923315  0
O  O70  1  0.97166936  0.81734096  0.05734578  1  0  -0.648544  0  1.981098  0  0  -0.586962  0  2.215258  0  0  -0.61273  0  2.204848  0  0  -0.336249  -0.568805  0  2.221992  0
O  O71  1  0.97164951  0.18266710  0.94265500  1  0  -0.648447  0  1.980638  0  0  -0.586856  0  2.214591  0  0  -0.612615  0  2.204176  0  0  -0.336235  -0.568691  0  2.221334  0
O  O72  1  0.02832541  0.31734090  0.44265514  1  0  -0.648431  0  1.981317  0  0  -0.586759  0  2.215435  0  0  -0.612514  0  2.205022  0  0  -0.33616  -0.568604  0  2.222172  0
O  O73  1  0.02834877  0.68264064  0.55734340  1  0  -0.648513  0  1.980597  0  0  -0.586881  0  2.214544  0  0  -0.612644  0  2.204125  0  0  -0.336162  -0.568717  0  2.221281  0
O  O74  1  0.80899625  0.73430286  0.15923775  1  0  -0.624396  0  2.024684  0  0  -0.559121  0  2.244994  0  0  -0.586044  0  2.237111  0  0  -0.302934  -0.540236  0  2.25003  0
O  O75  1  0.80897075  0.26569128  0.84074857  1  0  -0.624428  0  2.023926  0  0  -0.559342  0  2.244225  0  0  -0.586279  0  2.236343  0  0  -0.303058  -0.540445  0  2.24926  0
O  O76  1  0.19100602  0.23430520  0.34076356  1  0  -0.624523  0  2.024171  0  0  -0.559225  0  2.24451  0  0  -0.586154  0  2.236626  0  0  -0.302979  -0.540332  0  2.249548  0
O  O77  1  0.19103222  0.76568881  0.65924736  1  0  -0.624433  0  2.023973  0  0  -0.559289  0  2.244257  0  0  -0.586233  0  2.236374  0  0  -0.303057  -0.5404  0  2.249297  0
O  O78  1  0.39275623  0.83393955  0.10741694  1  0  -0.629055  0  2.140888  0  0  -0.576518  0  2.378886  0  0  -0.594375  0  2.367168  0  0  -0.421482  -0.563186  0  2.386778  0
O  O79  1  0.39276619  0.16606820  0.89258111  1  0  -0.628965  0  2.140968  0  0  -0.576515  0  2.378993  0  0  -0.594389  0  2.367272  0  0  -0.421588  -0.563184  0  2.386885  0
O  O80  1  0.60724366  0.33394358  0.39258349  1  0  -0.62895  0  2.140982  0  0  -0.576428  0  2.378945  0  0  -0.5943  0  2.367264  0  0  -0.42147  -0.563097  0  2.386837  0
O  O81  1  0.60723568  0.66606613  0.60741467  1  0  -0.629041  0  2.140779  0  0  -0.576549  0  2.378713  0  0  -0.594459  0  2.367066  0  0  -0.421589  -0.563224  0  2.386612  0
O  O82  1  0.17104599  0.23618659  0.09394517  1  0  -0.616485  0  2.042213  0  0  -0.563254  0  2.271499  0  0  -0.581569  0  2.261099  0  0  -0.430973  -0.550016  0  2.278326  0
O  O83  1  0.17103857  0.76382217  0.90605171  1  0  -0.616527  0  2.042229  0  0  -0.563258  0  2.271557  0  0  -0.581571  0  2.261155  0  0  -0.43101  -0.550024  0  2.278397  0
O  O84  1  0.82895105  0.73618283  0.40605562  1  0  -0.616496  0  2.042101  0  0  -0.563285  0  2.271439  0  0  -0.581597  0  2.261035  0  0  -0.430977  -0.550047  0  2.27827  0
O  O85  1  0.82895745  0.26381561  0.59394784  1  0  -0.616496  0  2.042334  0  0  -0.563277  0  2.271591  0  0  -0.581586  0  2.261188  0  0  -0.430957  -0.550028  0  2.278394  0
O  O86  1  0.58443391  0.22163393  0.02692331  1  0  -0.60921  0  2.167311  0  0  -0.547471  0  2.417025  0  0  -0.566603  0  2.403902  0  0  -0.446516  -0.533677  0  2.425935  0
O  O87  1  0.58441642  0.77836709  0.97307685  1  0  -0.60927  0  2.167298  0  0  -0.547637  0  2.417097  0  0  -0.566771  0  2.403958  0  0  -0.446561  -0.533838  0  2.425995  0
O  O88  1  0.41556671  0.72163288  0.47307591  1  0  -0.609229  0  2.167239  0  0  -0.547528  0  2.416973  0  0  -0.566656  0  2.40384  0  0  -0.446547  -0.533734  0  2.425883  0
O  O89  1  0.41557427  0.27836304  0.52692584  1  0  -0.609205  0  2.16733  0  0  -0.547497  0  2.417109  0  0  -0.566625  0  2.403985  0  0  -0.446457  -0.533701  0  2.426021  0
O  O90  1  0.20315304  0.05005722  0.21771417  1  0  -0.561339  0  2.148794  0  0  -0.503912  0  2.386107  0  0  -0.520312  0  2.372639  0  0  -0.404844  -0.492283  0  2.39518  0
O  O91  1  0.20317863  0.94993966  0.78228437  1  0  -0.561468  0  2.149087  0  0  -0.503882  0  2.38626  0  0  -0.520287  0  2.372812  0  0  -0.404871  -0.492253  0  2.395325  0
O  O92  1  0.79684173  0.55005060  0.28228790  1  0  -0.561503  0  2.148838  0  0  -0.503921  0  2.386075  0  0  -0.520317  0  2.372613  0  0  -0.404844  -0.49229  0  2.395142  0
O  O93  1  0.79682836  0.44994065  0.71771185  1  0  -0.56155  0  2.149044  0  0  -0.504031  0  2.386255  0  0  -0.520417  0  2.372775  0  0  -0.404874  -0.492401  0  2.395312  0
