# generated using pymatgen
data_CuP2H12C8(NO3)2
_symmetry_space_group_name_H-M   'P 1'
_cell_length_a   8.16557048
_cell_length_b   8.89365789
_cell_length_c   10.24696525
_cell_angle_alpha   70.91707418
_cell_angle_beta   69.10728769
_cell_angle_gamma   68.23745885
_symmetry_Int_Tables_number   1
_chemical_formula_structural   CuP2H12C8(NO3)2
_chemical_formula_sum   'Cu2 P4 H24 C16 N4 O12'
_cell_volume   629.20638809
_cell_formula_units_Z   2
loop_
 _symmetry_equiv_pos_site_id
 _symmetry_equiv_pos_as_xyz
  1  'x, y, z'
loop_
 _atom_site_type_symbol
 _atom_site_label
 _atom_site_symmetry_multiplicity
 _atom_site_fract_x
 _atom_site_fract_y
 _atom_site_fract_z
 _atom_site_occupancy
 _atom_site_hle17_ddec_charge
 _atom_site_hle17_ddec_spin_density
 _atom_site_hle17_ddec_sum_bond_order
 _atom_site_hle17_magmom
 _atom_site_hse06_10hf_ddec_charge
 _atom_site_hse06_10hf_ddec_spin_density
 _atom_site_hse06_10hf_ddec_sum_bond_order
 _atom_site_hse06_10hf_magmom
 _atom_site_hse06_ddec_charge
 _atom_site_hse06_ddec_spin_density
 _atom_site_hse06_ddec_sum_bond_order
 _atom_site_hse06_magmom
 _atom_site_pbe_cm5_charge
 _atom_site_pbe_ddec_charge
 _atom_site_pbe_ddec_spin_density
 _atom_site_pbe_ddec_sum_bond_order
 _atom_site_pbe_magmom
Cu  Cu0  1  0.50648446  0.59485578  0.25324773  1  0.844402  0.659391  1.76161  0.483  0.820235  0.750423  2.137596  0.596  0.905561  0.814686  2.074501  0.678  0.768989  0.766642  0.70677  2.183679  0.545
Cu  Cu1  1  0.49351656  0.40514415  0.74675121  1  0.84424  0.659364  1.761694  0.483  0.820169  0.750421  2.137612  0.596  0.905469  0.814687  2.074593  0.678  0.768961  0.76659  0.706771  2.183717  0.545
P  P2  1  0.77325269  0.32905550  0.39007439  1  1.457642  0.000822  4.813286  0.002  1.307758  0.003784  5.328593  0.004  1.358105  0.002399  5.291278  0.003  0.341911  1.272409  0.004954  5.353795  0.004
P  P3  1  0.22675225  0.67094449  0.60992333  1  1.457648  0.000822  4.813066  0.002  1.307746  0.003782  5.328408  0.004  1.358094  0.002397  5.291095  0.003  0.342034  1.272407  0.004955  5.353595  0.004
P  P4  1  0.17099132  0.55956473  0.24310194  1  1.446354  0.0032  4.782314  0.001  1.296853  0.004974  5.286875  0.003  1.347425  0.003522  5.249627  0.002  0.343602  1.261668  0.006192  5.311847  0.003
P  P5  1  0.82901007  0.44043098  0.75690478  1  1.446469  0.003203  4.782163  0.001  1.297048  0.004973  5.286695  0.003  1.347614  0.003523  5.249448  0.002  0.343695  1.261863  0.006193  5.311667  0.003
H  H6  1  0.26295523  0.93270244  0.19085477  1  0.10353  0.000997  0.925399  0.002  0.112505  0.000886  0.983209  0.001  0.114872  0.000648  0.980942  0.001  0.1253  0.110539  0.001079  0.985062  0.002
H  H7  1  0.73705916  0.06729576  0.80913267  1  0.103492  0.000996  0.92537  0.002  0.11247  0.000887  0.983174  0.001  0.114834  0.000649  0.980912  0.001  0.125296  0.110507  0.00108  0.985026  0.002
H  H8  1  0.27930122  0.22045301  0.15038036  1  0.12046  0.000537  0.966613  0.001  0.128991  0.000516  1.028034  0.001  0.131842  0.00035  1.027666  0.0  0.113534  0.12679  0.000672  1.028652  0.001
H  H9  1  0.72070152  0.77954570  0.84961836  1  0.120508  0.000536  0.966592  0.001  0.129096  0.000516  1.027954  0.001  0.131949  0.00035  1.02758  0.0  0.113565  0.126894  0.000672  1.028572  0.001
H  H10  1  0.84568350  0.00468275  0.15983885  1  0.122007  0.000589  0.923818  0.001  0.136041  0.00062  0.973313  0.001  0.1392  0.000457  0.972572  0.0  0.117401  0.133644  0.000768  0.974229  0.001
H  H11  1  0.15431262  0.99531676  0.84016659  1  0.121994  0.000587  0.923856  0.001  0.136029  0.00062  0.973347  0.001  0.139188  0.000457  0.972608  0.0  0.117398  0.133633  0.000769  0.974263  0.001
H  H12  1  0.80951294  0.72780236  0.18992896  1  0.103116  0.000878  0.96854  0.002  0.10713  0.000756  1.035817  0.002  0.109757  0.000508  1.032735  0.001  0.121562  0.104929  0.000972  1.038277  0.002
H  H13  1  0.19048857  0.27220007  0.81006921  1  0.103122  0.000876  0.968573  0.002  0.107125  0.000755  1.035862  0.002  0.109753  0.000508  1.032779  0.001  0.121553  0.104928  0.000971  1.03832  0.002
H  H14  1  0.49391180  0.39893565  0.08116622  1  0.09609  -0.000157  0.964825  0.001  0.106893  -6.3e-05  1.032239  0.0  0.107831  -0.000164  1.030941  0.0  0.1151  0.105847  5.3e-05  1.033506  0.001
H  H15  1  0.50608597  0.60106271  0.91883802  1  0.096164  -0.000156  0.964767  0.001  0.106927  -6.3e-05  1.03222  0.0  0.107888  -0.000164  1.030897  0.0  0.115107  0.10588  5.3e-05  1.033486  0.001
H  H16  1  0.71414530  0.30868208  0.11249312  1  0.111986  0.000355  0.922991  0.001  0.120675  0.000236  0.989695  0.001  0.122404  6.9e-05  0.987567  0.001  0.116579  0.119136  0.000401  0.991553  0.001
H  H17  1  0.28584974  0.69132018  0.88750806  1  0.111953  0.000354  0.922984  0.001  0.120645  0.000236  0.989679  0.001  0.122371  7e-05  0.987554  0.001  0.116548  0.119107  0.000401  0.991538  0.001
H  H18  1  0.65592509  0.11096095  0.38730617  1  0.130907  0.003085  0.928968  0.004  0.144165  0.002097  0.98238  0.002  0.145593  0.001437  0.982683  0.002  0.114625  0.143068  0.00258  0.982269  0.003
H  H19  1  0.34407652  0.88903372  0.61269780  1  0.130943  0.003083  0.928989  0.004  0.144183  0.002096  0.982421  0.002  0.145607  0.001437  0.982727  0.002  0.114636  0.143089  0.002579  0.982308  0.003
H  H20  1  0.50752018  0.24036724  0.50910653  1  0.145103  -0.000133  0.939204  0.0  0.155959  -0.000177  0.998062  0.0  0.157264  -0.000159  0.998884  0.0  0.124304  0.155009  -0.000165  0.997441  0.0
H  H21  1  0.49248335  0.75963362  0.49089630  1  0.145105  -0.000136  0.939228  0.0  0.155978  -0.000177  0.998053  0.0  0.15728  -0.000159  0.998877  0.0  0.124317  0.155027  -0.000165  0.99743  0.0
H  H22  1  0.25423344  0.39609920  0.46277522  1  0.154998  0.000297  0.959128  0.0  0.162125  0.000176  1.024334  0.0  0.165024  9.8e-05  1.022913  0.0  0.120963  0.15988  0.000243  1.025654  0.0
H  H23  1  0.74576637  0.60390141  0.53723175  1  0.155029  0.000292  0.959097  0.0  0.162153  0.000176  1.024338  0.0  0.165055  9.8e-05  1.022913  0.0  0.120988  0.159903  0.000243  1.025665  0.0
H  H24  1  0.25594892  0.26264919  0.36576122  1  0.131234  0.002857  0.934798  0.004  0.144649  0.001698  0.988465  0.002  0.146531  0.001031  0.988218  0.001  0.111825  0.143323  0.002203  0.988727  0.002
H  H25  1  0.74405076  0.73735155  0.63424380  1  0.131298  0.002856  0.934777  0.004  0.144747  0.001698  0.98842  0.002  0.146625  0.001031  0.988178  0.001  0.111855  0.143416  0.002203  0.988684  0.002
H  H26  1  0.99362524  0.38826721  0.20229518  1  0.439698  0.000156  0.864873  0.0  0.407289  0.000179  0.930635  0.0  0.418787  0.000108  0.914252  0.0  0.303087  0.399169  0.000247  0.9422  0.0
H  H27  1  0.00636884  0.61173691  0.79769703  1  0.439754  0.000156  0.864783  0.0  0.407343  0.000179  0.930547  0.0  0.418841  0.000108  0.914165  0.0  0.303134  0.399225  0.000247  0.942109  0.0
H  H28  1  0.06002022  0.70003019  0.40824168  1  0.440051  -8.7e-05  0.866056  0.0  0.408176  4e-06  0.930798  0.0  0.41961  -1.1e-05  0.914627  0.0  0.303782  0.400112  2.2e-05  0.94217  0.0
H  H29  1  0.93998450  0.29997083  0.59175879  1  0.440102  -8.7e-05  0.865973  0.0  0.40819  4e-06  0.930774  0.0  0.419619  -1.1e-05  0.914608  0.0  0.30379  0.400125  2.2e-05  0.942146  0.0
C  C30  1  0.38840562  0.95578750  0.18288344  1  0.146795  -0.010674  3.671101  -0.007  0.115273  -0.002323  3.929761  -0.001  0.12545  -0.004116  3.948448  -0.003  0.052937  0.10889  -0.000792  3.917155  0.0
C  C31  1  0.61159978  0.04421423  0.81710687  1  0.146916  -0.010658  3.671369  -0.007  0.1154  -0.002323  3.930037  -0.001  0.125582  -0.004114  3.948718  -0.003  0.053038  0.109014  -0.000793  3.917431  0.0
C  C32  1  0.39869075  0.11440506  0.16303713  1  -0.164698  0.010081  3.681432  0.011  -0.181674  0.004502  3.925731  0.005  -0.19088  0.003913  3.946554  0.005  -0.080817  -0.175944  0.004912  3.911988  0.005
C  C33  1  0.60131459  0.88559369  0.83696077  1  -0.164796  0.010081  3.681206  0.011  -0.181815  0.004504  3.925539  0.005  -0.19102  0.003914  3.94636  0.005  -0.080886  -0.176082  0.004914  3.911794  0.005
C  C34  1  0.56198631  0.13578961  0.15960253  1  0.150266  -0.004218  3.694002  -0.001  0.166097  0.000423  3.927833  0.002  0.172704  -0.001614  3.947791  0.0  0.013585  0.161756  0.002352  3.91425  0.003
C  C35  1  0.43800950  0.86421024  0.84039803  1  0.150352  -0.004208  3.693872  -0.001  0.166095  0.000423  3.927828  0.002  0.172697  -0.001614  3.947802  0.0  0.01361  0.161755  0.002352  3.914244  0.003
C  C36  1  0.71352506  0.99518583  0.16624229  1  -0.163003  0.009946  3.687104  0.01  -0.179367  0.004564  3.928125  0.005  -0.187836  0.004013  3.947397  0.005  -0.077722  -0.174143  0.004974  3.915533  0.005
C  C37  1  0.28647619  0.00481306  0.83375391  1  -0.163045  0.009944  3.687238  0.01  -0.179397  0.004563  3.928282  0.005  -0.187867  0.004012  3.947557  0.005  -0.077744  -0.174174  0.004973  3.915698  0.005
C  C38  1  0.69547755  0.84017632  0.18270272  1  0.138547  -0.010487  3.669648  -0.007  0.108861  -0.002148  3.92472  -0.001  0.119117  -0.003923  3.942536  -0.002  0.049358  0.102373  -0.000624  3.912891  0.0
C  C39  1  0.30451986  0.15982626  0.81729374  1  0.138574  -0.010488  3.66932  -0.007  0.108909  -0.00215  3.924378  -0.001  0.119165  -0.003922  3.94219  -0.002  0.049384  0.102419  -0.000625  3.912551  0.0
C  C40  1  0.57206556  0.30369348  0.15311909  1  -0.093505  -0.003599  3.608599  -0.004  -0.153993  -0.000559  3.860226  -0.001  -0.149979  -0.001827  3.870714  -0.002  -0.072748  -0.156284  0.00054  3.853342  -0.001
C  C41  1  0.42793157  0.69630715  0.84688771  1  -0.093616  -0.0036  3.608688  -0.004  -0.153976  -0.000561  3.860139  -0.001  -0.149972  -0.001827  3.870616  -0.002  -0.07275  -0.156269  0.000541  3.853261  -0.001
C  C42  1  0.59952808  0.23957111  0.40090516  1  -0.350538  -0.004237  3.589594  -0.005  -0.382731  -0.00043  3.836403  -0.002  -0.387137  -0.001733  3.848375  -0.003  -0.07834  -0.37921  0.000722  3.828213  -0.001
C  C43  1  0.40047628  0.76042727  0.59909803  1  -0.350647  -0.004222  3.589786  -0.005  -0.382826  -0.000427  3.83656  -0.002  -0.387224  -0.001733  3.84853  -0.003  -0.078419  -0.379308  0.000722  3.828373  -0.001
C  C44  1  0.29390575  0.37352756  0.35509219  1  -0.38443  -0.005137  3.596023  -0.005  -0.418943  -0.001311  3.845882  -0.002  -0.423284  -0.002394  3.855223  -0.003  -0.092034  -0.415835  -0.000234  3.840081  -0.002
C  C45  1  0.70609358  0.62647435  0.64491363  1  -0.384529  -0.005113  3.595914  -0.005  -0.419118  -0.001306  3.845819  -0.002  -0.423456  -0.002394  3.855155  -0.003  -0.092097  -0.416002  -0.000234  3.840007  -0.002
N  N46  1  0.53408690  0.82103204  0.19469103  1  -0.306553  0.075298  3.340063  0.095  -0.256801  0.054881  3.642791  0.073  -0.287894  0.046499  3.663993  0.067  -0.355004  -0.238026  0.059384  3.630061  0.076
N  N47  1  0.46592496  0.17896299  0.80530678  1  -0.306575  0.075301  3.340108  0.095  -0.25686  0.054885  3.642837  0.073  -0.287952  0.046501  3.664051  0.067  -0.355048  -0.238093  0.059388  3.630123  0.076
N  N48  1  0.49404073  0.35046244  0.29579820  1  -0.086341  0.114694  3.303069  0.147  -0.022682  0.072739  3.565192  0.1  -0.054146  0.056834  3.59938  0.085  -0.325004  -0.003322  0.081624  3.543195  0.107
N  N49  1  0.50595676  0.64953702  0.70420781  1  -0.086253  0.114693  3.303151  0.147  -0.022574  0.072738  3.565233  0.1  -0.054039  0.056835  3.599435  0.085  -0.32492  -0.003218  0.081623  3.543235  0.107
O  O50  1  0.92703229  0.29597430  0.24681134  1  -0.750782  0.001807  1.971591  0.003  -0.683621  0.00097  2.188911  0.002  -0.704758  0.000246  2.163454  0.001  -0.390855  -0.668294  0.001866  2.206231  0.003
O  O51  1  0.07295354  0.70403399  0.75317455  1  -0.750842  0.001806  1.971373  0.003  -0.683695  0.000972  2.188725  0.002  -0.704832  0.000246  2.163269  0.001  -0.390983  -0.66837  0.001866  2.206044  0.003
O  O52  1  0.67417392  0.51760340  0.37077249  1  -0.811675  0.071937  2.055237  0.097  -0.761724  0.048087  2.369571  0.069  -0.799875  0.037814  2.350524  0.059  -0.38513  -0.736054  0.054264  2.383212  0.074
O  O53  1  0.32582172  0.48239742  0.62923180  1  -0.811627  0.071926  2.055291  0.097  -0.761653  0.04808  2.369614  0.069  -0.799798  0.037809  2.35058  0.059  -0.385118  -0.735988  0.054255  2.383264  0.074
O  O54  1  0.83998070  0.25038165  0.52330318  1  -0.819989  0.012781  1.921456  0.017  -0.755806  0.006541  2.164652  0.01  -0.783044  0.003574  2.143972  0.006  -0.366814  -0.735749  0.009557  2.177983  0.013
O  O55  1  0.16003671  0.74961916  0.47668171  1  -0.819933  0.012784  1.921374  0.017  -0.755832  0.006542  2.164654  0.01  -0.783063  0.003574  2.143957  0.006  -0.366851  -0.735773  0.009557  2.177978  0.013
O  O56  1  0.31257469  0.65810965  0.16107889  1  -0.812234  0.062219  2.042119  0.083  -0.756205  0.043468  2.343366  0.061  -0.793569  0.034988  2.325444  0.053  -0.385677  -0.730774  0.048328  2.355734  0.065
O  O57  1  0.68742077  0.34188756  0.83892439  1  -0.812157  0.062228  2.042009  0.083  -0.756238  0.043472  2.343268  0.061  -0.793592  0.03499  2.325352  0.053  -0.385712  -0.730811  0.048333  2.355646  0.065
O  O58  1  0.09660737  0.51639954  0.14881173  1  -0.799776  0.00578  1.883273  0.008  -0.728357  0.003598  2.112225  0.005  -0.754582  0.00229  2.093009  0.004  -0.365445  -0.709681  0.004803  2.125214  0.007
O  O59  1  0.90338904  0.48359886  0.85119194  1  -0.799858  0.005778  1.883317  0.008  -0.728412  0.003598  2.112226  0.005  -0.75464  0.002289  2.093016  0.004  -0.36544  -0.709737  0.004803  2.125216  0.007
O  O60  1  0.00816017  0.65937084  0.35121435  1  -0.739712  0.001013  2.010459  0.002  -0.667789  0.000889  2.232365  0.001  -0.690116  0.000453  2.209043  0.001  -0.382882  -0.651885  0.001333  2.248214  0.002
O  O61  1  0.99184021  0.34062756  0.64878908  1  -0.739734  0.001011  2.010413  0.002  -0.66784  0.000889  2.23237  0.001  -0.690153  0.000453  2.209043  0.001  -0.382914  -0.651939  0.001333  2.248221  0.002
