# generated using pymatgen
data_Zr3H16C25O16
_symmetry_space_group_name_H-M   'P 1'
_cell_length_a   9.34097902
_cell_length_b   17.79909018
_cell_length_c   28.99831896
_cell_angle_alpha   86.58816263
_cell_angle_beta   83.13580904
_cell_angle_gamma   90.98720447
_symmetry_Int_Tables_number   1
_chemical_formula_structural   Zr3H16C25O16
_chemical_formula_sum   'Zr6 H32 C50 O32'
_cell_volume   4776.80387904
_cell_formula_units_Z   2
loop_
 _symmetry_equiv_pos_site_id
 _symmetry_equiv_pos_as_xyz
  1  'x, y, z'
loop_
 _atom_site_type_symbol
 _atom_site_label
 _atom_site_symmetry_multiplicity
 _atom_site_fract_x
 _atom_site_fract_y
 _atom_site_fract_z
 _atom_site_occupancy
 _atom_site_pbe_bader_charge
 _atom_site_pbe_bader_spin_density
 _atom_site_pbe_cm5_charge
 _atom_site_pbe_ddec_charge
 _atom_site_pbe_ddec_spin_density
 _atom_site_pbe_ddec_sum_bond_order
 _atom_site_pbe_magmom
Zr  Zr0  1  0.96752048  0.11448370  0.04711533  1  2.603326  0  1.579011  2.344149  0  2.77545  0
Zr  Zr1  1  0.02726923  0.89532688  0.95604522  1  2.608618  0  1.566472  2.329407  0  2.800713  0
Zr  Zr2  1  0.12589128  0.94470598  0.06086644  1  2.598521  0  1.56934  2.358575  0  2.867655  0
Zr  Zr3  1  0.86226871  0.07180196  0.93816121  1  2.63279  0  1.562374  2.382484  0  2.801243  0
Zr  Zr4  1  0.23844026  0.06397992  0.95923434  1  2.623441  0  1.559429  2.389682  0  2.707856  0
Zr  Zr5  1  0.74381602  0.94849233  0.04088337  1  2.611989  0  1.52872  2.377972  0  2.720367  0
H  H6  1  0.04948815  0.18847346  0.95713267  1  0.606625  0  0.329282  0.423484  0  0.859852  0
H  H7  1  0.31581517  0.90844242  0.97929652  1  0.654463  0  0.322454  0.432562  0  0.86376  0
H  H8  1  0.73263454  0.92158759  0.94648501  1  0.615421  0  0.328231  0.434606  0  0.852622  0
H  H9  1  0.86826847  0.99451763  0.11876554  1  0.620502  0  0.325751  0.433896  0  0.854273  0
H  H10  1  0.53476612  0.07322920  0.97110099  1  0.637501  0  0.292866  0.401119  0  0.942546  0
H  H11  1  0.02669027  0.80318811  0.08824208  1  0.653964  0  0.300453  0.407206  0  0.928971  0
H  H12  1  0.69421149  0.84425787  0.10771257  1  0.592709  0  0.291052  0.402066  0  0.898136  0
H  H13  1  0.28035015  0.18301344  0.88871518  1  0.613722  0  0.327234  0.414021  0  0.869416  0
H  H14  1  0.11563308  0.14250422  0.88439441  1  0.640042  0  0.274438  0.407323  0  0.940636  0
H  H15  1  0.58248451  0.04655645  0.91299673  1  0.637325  0  0.286632  0.411022  0  0.912078  0
H  H16  1  0.46005157  0.89868695  0.03205783  1  0.644948  0  0.290051  0.402293  0  0.936262  0
H  H17  1  0.37373442  0.03281010  0.88101311  1  0.593541  0  0.294602  0.388986  0  0.91638  0
H  H18  1  0.15725149  0.84230948  0.87437845  1  0.636204  0  0.332809  0.420743  0  0.869964  0
H  H19  1  0.79403327  0.20737548  0.10032250  1  0.645797  0  0.337859  0.430677  0  0.854223  0
H  H20  1  0.53611466  0.00848256  0.09412106  1  0.592613  0  0.285779  0.37753  0  0.934152  0
H  H21  1  0.94751347  0.13249977  0.85273720  1  0.591782  0  0.307361  0.397628  0  0.898926  0
H  H22  1  0.23125983  0.80537921  0.91714553  1  0.637853  0  0.32458  0.416003  0  0.884593  0
H  H23  1  0.35183387  0.88513874  0.09916785  1  0.613544  0  0.30676  0.399929  0  0.898966  0
H  H24  1  0.48515731  0.05812116  0.02725503  1  0.636887  0  0.297682  0.416929  0  0.903273  0
H  H25  1  0.50066574  0.96821337  0.99730587  1  0.630913  0  0.294848  0.368506  0  0.990235  0
H  H26  1  0.07558560  0.82960659  0.13571818  1  0.616361  0  0.340238  0.420932  0  0.853214  0
H  H27  1  0.90118987  0.16838181  0.13335960  1  0.629522  0  0.329235  0.419114  0  0.877878  0
H  H28  1  0.23821869  0.49250126  0.01247273  1  0.061019  0  0.118745  0.131664  0  0.971415  0
H  H29  1  0.77460753  0.51113978  0.98816239  1  0.068037  0  0.118053  0.131159  0  0.972752  0
H  H30  1  0.86286045  0.05491356  0.29043386  1  0.088461  0  0.115326  0.126437  0  0.980365  0
H  H31  1  0.05079122  0.03439900  0.41924499  1  0.076795  0  0.110193  0.116834  0  0.987377  0
H  H32  1  0.32633881  0.05177291  0.28845120  1  0.102382  0  0.116118  0.127604  0  0.976622  0
H  H33  1  0.69993425  0.94690013  0.71293761  1  0.129793  0  0.116631  0.127925  0  0.977794  0
H  H34  1  0.97206061  0.96564364  0.58144968  1  0.032589  0  0.109275  0.115703  0  0.989215  0
H  H35  1  0.16369296  0.94366490  0.70950759  1  0.103504  0  0.114528  0.125198  0  0.98028  0
H  H36  1  0.24828911  0.99888655  0.49828877  1  0.071735  0  0.112498  0.121428  0  0.981433  0
H  H37  1  0.77726468  0.00108885  0.50249846  1  0.105464  0  0.111767  0.120641  0  0.983554  0
C  C38  1  0.24341042  0.22303640  0.00982427  1  1.661044  0  0.239191  0.711893  0  4.175762  0
C  C39  1  0.78373890  0.23306892  0.99190546  1  1.690997  0  0.240043  0.704455  0  4.191418  0
C  C40  1  0.12443775  0.05615186  0.14309037  1  1.64718  0  0.236611  0.713317  0  4.198059  0
C  C41  1  0.14845162  0.74275794  0.01559314  1  1.700396  0  0.23093  0.694446  0  4.242623  0
C  C42  1  0.77491287  0.77927268  0.99591015  1  1.699161  0  0.237218  0.7075  0  4.189926  0
C  C43  1  0.90985936  0.94739887  0.85721141  1  1.703818  0  0.23835  0.71348  0  4.192299  0
C  C44  1  0.43470644  0.43079841  0.00336081  1  0.150599  0  0.010559  0.08823  0  4.084762  0
C  C45  1  0.58878619  0.43584464  0.99613183  1  0.07319  0  0.01337  0.095184  0  4.073193  0
C  C46  1  0.65725478  0.50686738  0.99313809  1  0.053057  0  -0.064268  -0.15672  0  3.887586  0
C  C47  1  0.57781205  0.57302094  0.99672464  1  0.162211  0  0.014188  0.09535  0  4.070738  0
C  C48  1  0.42381408  0.56783501  0.00329222  1  0.038237  0  0.013987  0.09733  0  4.068728  0
C  C49  1  0.35553448  0.49659950  0.00687930  1  0.043655  0  -0.064254  -0.154282  0  3.894432  0
C  C50  1  0.09639651  0.05497121  0.28436118  1  0.140278  0  0.003528  0.130629  0  4.142105  0
C  C51  1  0.95703556  0.05218016  0.30918827  1  -0.053965  0  -0.068643  -0.163771  0  3.847788  0
C  C52  1  0.94011380  0.04416838  0.35806138  1  0.162093  0  0.003639  0.146067  0  4.151732  0
C  C53  1  0.06350333  0.04052899  0.38139362  1  -0.010289  0  -0.065635  -0.150748  0  3.838243  0
C  C54  1  0.20292489  0.04335343  0.35689737  1  0.099672  0  0.003431  0.145911  0  4.153396  0
C  C55  1  0.21932880  0.05047749  0.30804783  1  0.000219  0  -0.066426  -0.160632  0  3.845681  0
C  C56  1  0.93030183  0.94349934  0.71633489  1  0.050015  0  0.005262  0.137037  0  4.137443  0
C  C57  1  0.80649766  0.94832672  0.69304430  1  0.030019  0  -0.067751  -0.16262  0  3.845252  0
C  C58  1  0.82158141  0.95608680  0.64418489  1  -0.000901  0  0.003773  0.144732  0  4.151067  0
C  C59  1  0.96049250  0.95912433  0.61927830  1  0.074734  0  -0.064618  -0.149358  0  3.840049  0
C  C60  1  0.08449702  0.95516445  0.64225591  1  0.049669  0  0.001508  0.141469  0  4.155354  0
C  C61  1  0.06891608  0.94657818  0.69106334  1  0.043031  0  -0.06691  -0.161068  0  3.847664  0
C  C62  1  0.45596221  0.01380492  0.45746110  1  0.130031  0  0.008287  0.098766  0  4.088849  0
C  C63  1  0.60802854  0.01433742  0.45863403  1  0.171853  0  0.008417  0.100013  0  4.087873  0
C  C64  1  0.66105823  0.00056411  0.50156757  1  -0.057695  0  -0.066752  -0.151625  0  3.877912  0
C  C65  1  0.56957481  0.98615179  0.54334720  1  0.085558  0  0.00897  0.100805  0  4.085791  0
C  C66  1  0.41754065  0.98555366  0.54212004  1  0.171408  0  0.008531  0.100347  0  4.091226  0
C  C67  1  0.36450478  0.99939783  0.49921733  1  0.020872  0  -0.067016  -0.150902  0  3.878111  0
C  C68  1  0.31742033  0.97203463  0.58220645  1  -0.611443  0  -0.037918  -0.094263  0  4.126692  0
C  C69  1  0.21820707  0.96234879  0.61354446  1  0.253492  0  -0.037186  -0.093876  0  4.083491  0
C  C70  1  0.70688723  0.96360217  0.61651656  1  0.040591  0  -0.036781  -0.096386  0  4.078873  0
C  C71  1  0.63340400  0.97306187  0.58464903  1  -0.393078  0  -0.038501  -0.092995  0  4.122982  0
C  C72  1  0.70785573  0.02769397  0.41839659  1  -0.378793  0  -0.037744  -0.09051  0  4.125409  0
C  C73  1  0.80616978  0.03726477  0.38673153  1  0.056337  0  -0.037905  -0.099573  0  4.084613  0
C  C74  1  0.31723342  0.03618480  0.38467348  1  -0.312195  0  -0.037983  -0.098298  0  4.085697  0
C  C75  1  0.39169684  0.02689908  0.41627194  1  -0.026115  0  -0.037825  -0.091554  0  4.128375  0
C  C76  1  0.72113932  0.30684436  0.99154474  1  0.16477  0  -0.031021  -0.169164  0  3.917981  0
C  C77  1  0.66609534  0.36834021  0.99317093  1  -0.426863  0  -0.022264  -0.031264  0  4.090371  0
C  C78  1  0.33683892  0.63198995  0.00650474  1  -0.318259  0  -0.027216  -0.036918  0  4.100477  0
C  C79  1  0.25179217  0.68313258  0.00986080  1  0.0364  0  -0.03867  -0.180625  0  3.931825  0
C  C80  1  0.70990093  0.70514462  0.99505273  1  -0.408111  0  -0.029103  -0.159516  0  3.907973  0
C  C81  1  0.64955755  0.64388735  0.99510633  1  0.134886  0  -0.024415  -0.03666  0  4.089867  0
C  C82  1  0.30864659  0.29685919  0.00972206  1  0.190002  0  -0.035602  -0.177869  0  3.932398  0
C  C83  1  0.36437202  0.35955083  0.00704897  1  -0.450968  0  -0.018368  -0.022587  0  4.099547  0
C  C84  1  0.91782609  0.93876802  0.76569005  1  -0.515554  0  -0.024266  -0.034669  0  4.08474  0
C  C85  1  0.91146703  0.93783611  0.80791844  1  0.228476  0  -0.04372  -0.193514  0  3.943139  0
C  C86  1  0.11250999  0.05963723  0.23496837  1  -0.18438  0  -0.019133  -0.02184  0  4.07581  0
C  C87  1  0.12549529  0.06098095  0.19261929  1  -0.150473  0  -0.04652  -0.202018  0  3.946039  0
O  O88  1  0.82911967  0.15933735  0.11217708  1  -1.220797  0  -0.580977  -0.777989  0  2.022382  0
O  O89  1  0.13499893  0.20712163  0.04030440  1  -1.158803  0  -0.355447  -0.618045  0  2.229995  0
O  O90  1  0.07671188  0.11149050  0.12052954  1  -1.161095  0  -0.313993  -0.596366  0  2.223071  0
O  O91  1  0.77871153  0.19460118  0.95727530  1  -1.146531  0  -0.301336  -0.54415  0  2.211789  0
O  O92  1  0.16726269  0.99389333  0.12661382  1  -1.180262  0  -0.364909  -0.645855  0  2.214584  0
O  O93  1  0.84127630  0.21425538  0.02922882  1  -1.182005  0  -0.373441  -0.666147  0  2.270266  0
O  O94  1  0.29853045  0.18126906  0.97843205  1  -1.158747  0  -0.342731  -0.611191  0  2.233946  0
O  O95  1  0.14613755  0.05057393  0.03087040  1  -1.220624  0  -0.792778  -1.173839  0  2.101517  0
O  O96  1  0.03638022  0.13686486  0.96994864  1  -1.244379  0  -0.689918  -1.061215  0  2.305737  0
O  O97  1  0.91088693  0.00260675  0.08653121  1  -1.277587  0  -0.67137  -1.058971  0  2.1432  0
O  O98  1  0.83546788  0.05640893  0.01121659  1  -1.20963  0  -0.776846  -1.134397  0  2.052301  0
O  O99  1  0.65105588  0.07364779  0.92998496  1  -1.257752  0  -0.680052  -0.956868  0  1.960958  0
O  O100  1  0.44727207  0.05744700  0.99567802  1  -1.27884  0  -0.599045  -0.831044  0  2.138202  0
O  O101  1  0.06084461  0.00780252  0.93739593  1  -1.225947  0  -0.770177  -1.168132  0  1.997747  0
O  O102  1  0.22862375  0.93701390  0.98635395  1  -1.295349  0  -0.678832  -1.034071  0  2.152714  0
O  O103  1  0.96822733  0.90779797  0.02468316  1  -1.215195  0  -0.783823  -1.159674  0  2.095758  0
O  O104  1  0.80541157  0.94652256  0.96191494  1  -1.258947  0  -0.68281  -1.065548  0  2.234565  0
O  O105  1  0.31553165  0.89077573  0.06912494  1  -1.256698  0  -0.662806  -0.955353  0  1.902183  0
O  O106  1  0.06490206  0.74116975  0.05293344  1  -1.150389  0  -0.302506  -0.541153  0  2.115531  0
O  O107  1  0.15329769  0.79170045  0.98078833  1  -1.194544  0  -0.353348  -0.665207  0  2.301951  0
O  O108  1  0.59430205  0.02922406  0.06602340  1  -1.244748  0  -0.660797  -0.935861  0  1.854853  0
O  O109  1  0.87431329  0.79850802  0.96248296  1  -1.170253  0  -0.368527  -0.636387  0  2.238255  0
O  O110  1  0.02282434  0.84621410  0.11017912  1  -1.24611  0  -0.593441  -0.815092  0  2.03305  0
O  O111  1  0.68154763  0.89835027  0.10459391  1  -1.221565  0  -0.704538  -0.968373  0  1.760576  0
O  O112  1  0.53843386  0.91759286  0.00636799  1  -1.28663  0  -0.615581  -0.822289  0  2.091464  0
O  O113  1  0.72685731  0.81876296  0.02880571  1  -1.163333  0  -0.321063  -0.582985  0  2.247433  0
O  O114  1  0.20928884  0.85299660  0.90068685  1  -1.225242  0  -0.582523  -0.772973  0  2.027518  0
O  O115  1  0.97241201  0.14476171  0.88306149  1  -1.224469  0  -0.647081  -0.908599  0  1.939116  0
O  O116  1  0.96201444  0.89473257  0.88173103  1  -1.184661  0  -0.349139  -0.634938  0  2.232002  0
O  O117  1  0.85823041  0.00845163  0.87122833  1  -1.167055  0  -0.330034  -0.601902  0  2.261889  0
O  O118  1  0.22910715  0.13469482  0.89111783  1  -1.269389  0  -0.61149  -0.861144  0  2.023194  0
O  O119  1  0.39362373  0.02011396  0.91268036  1  -1.221995  0  -0.672696  -0.928815  0  1.850068  0
