# generated using pymatgen
data_CdH8C12S(NO2)2
_symmetry_space_group_name_H-M   'P 1'
_cell_length_a   6.94756544
_cell_length_b   6.94757686
_cell_length_c   14.37118182
_cell_angle_alpha   89.99992979
_cell_angle_beta   89.99998552
_cell_angle_gamma   90.00064400
_symmetry_Int_Tables_number   1
_chemical_formula_structural   CdH8C12S(NO2)2
_chemical_formula_sum   'Cd2 H16 C24 S2 N4 O8'
_cell_volume   693.67890883
_cell_formula_units_Z   2
loop_
 _symmetry_equiv_pos_site_id
 _symmetry_equiv_pos_as_xyz
  1  'x, y, z'
loop_
 _atom_site_type_symbol
 _atom_site_label
 _atom_site_symmetry_multiplicity
 _atom_site_fract_x
 _atom_site_fract_y
 _atom_site_fract_z
 _atom_site_occupancy
 _atom_site_hle17_bader_spin_density
 _atom_site_hle17_ddec_charge
 _atom_site_hle17_ddec_spin_density
 _atom_site_hle17_ddec_sum_bond_order
 _atom_site_hle17_magmom
 _atom_site_hse06_10hf_bader_spin_density
 _atom_site_hse06_10hf_ddec_charge
 _atom_site_hse06_10hf_ddec_spin_density
 _atom_site_hse06_10hf_ddec_sum_bond_order
 _atom_site_hse06_10hf_magmom
 _atom_site_hse06_bader_spin_density
 _atom_site_hse06_ddec_charge
 _atom_site_hse06_ddec_spin_density
 _atom_site_hse06_ddec_sum_bond_order
 _atom_site_hse06_magmom
 _atom_site_pbe_bader_spin_density
 _atom_site_pbe_cm5_charge
 _atom_site_pbe_ddec_charge
 _atom_site_pbe_ddec_spin_density
 _atom_site_pbe_ddec_sum_bond_order
 _atom_site_pbe_magmom
Cd  Cd0  1  0.49999802  0.99999746  0.03380482  1  0  1.224623  0  1.675691  0  0  1.041503  0  2.134048  0  0  1.092135  0  2.080249  0  0  0.809868  1.005797  0  2.170994  0
Cd  Cd1  1  0.99999891  0.50000032  0.96619520  1  0  1.224557  0  1.675848  0  0  1.041422  0  2.134231  0  0  1.092077  0  2.080388  0  0  0.809852  1.005706  0  2.17119  0
H  H2  1  0.29016790  0.79016895  0.20592992  1  0  0.099943  0  0.937154  0  0  0.105418  0  1.002763  0  0  0.107632  0  1.001494  0  0  0.120996  0.103721  0  1.003831  0
H  H3  1  0.70982819  0.20982941  0.20593007  1  0  0.099951  0  0.937151  0  0  0.10542  0  1.002768  0  0  0.107635  0  1.001498  0  0  0.121  0.103728  0  1.003837  0
H  H4  1  0.79017123  0.70982791  0.79406874  1  0  0.099978  0  0.937135  0  0  0.105458  0  1.002744  0  0  0.107674  0  1.001475  0  0  0.120988  0.103761  0  1.00381  0
H  H5  1  0.20982889  0.29017186  0.79406890  1  0  0.099985  0  0.937138  0  0  0.105461  0  1.002722  0  0  0.107676  0  1.001454  0  0  0.120981  0.103763  0  1.003787  0
H  H6  1  0.27974976  0.77974778  0.38147012  1  0  0.107872  0  0.967672  0  0  0.116155  0  1.029119  0  0  0.119001  0  1.029301  0  0  0.104127  0.11415  0  1.029075  0
H  H7  1  0.72025057  0.22025158  0.38146886  1  0  0.10792  0  0.967623  0  0  0.116206  0  1.029064  0  0  0.119052  0  1.029247  0  0  0.104144  0.114197  0  1.029019  0
H  H8  1  0.77975042  0.72025041  0.61853063  1  0  0.107873  0  0.967704  0  0  0.116153  0  1.029149  0  0  0.119  0  1.02933  0  0  0.104119  0.114143  0  1.029108  0
H  H9  1  0.22025123  0.27974980  0.61853080  1  0  0.107862  0  0.967699  0  0  0.116145  0  1.029145  0  0  0.118993  0  1.029325  0  0  0.104116  0.114134  0  1.029104  0
H  H10  1  0.27955825  0.77955595  0.69245567  1  0  0.107017  0  0.96516  0  0  0.115003  0  1.026412  0  0  0.117507  0  1.02777  0  0  0.104954  0.113219  0  1.025609  0
H  H11  1  0.72044480  0.22044695  0.69245581  1  0  0.10699  0  0.965108  0  0  0.114996  0  1.026347  0  0  0.1175  0  1.027706  0  0  0.104959  0.113213  0  1.025537  0
H  H12  1  0.77956050  0.72044079  0.30754438  1  0  0.107045  0  0.965191  0  0  0.11502  0  1.026446  0  0  0.117523  0  1.027805  0  0  0.104956  0.113238  0  1.02564  0
H  H13  1  0.22044130  0.27955875  0.30754524  1  0  0.107031  0  0.965194  0  0  0.115006  0  1.026453  0  0  0.11751  0  1.027812  0  0  0.104942  0.113226  0  1.025645  0
H  H14  1  0.28882913  0.78882809  0.86592296  1  0  0.099419  0  0.974364  0  0  0.104228  0  1.041519  0  0  0.107003  0  1.038475  0  0  0.119751  0.102077  0  1.043872  0
H  H15  1  0.71116951  0.21117438  0.86592311  1  0  0.09952  0  0.974252  0  0  0.10431  0  1.041445  0  0  0.107085  0  1.038399  0  0  0.119759  0.102154  0  1.0438  0
H  H16  1  0.78883137  0.71116876  0.13407778  1  0  0.099419  0  0.974416  0  0  0.104233  0  1.041558  0  0  0.107008  0  1.038513  0  0  0.11974  0.102074  0  1.043913  0
H  H17  1  0.21116909  0.28883122  0.13407795  1  0  0.099445  0  0.974392  0  0  0.104258  0  1.041527  0  0  0.107033  0  1.038483  0  0  0.119766  0.102108  0  1.043884  0
C  C18  1  0.38204520  0.88204606  0.24839543  1  0  0.142879  0  3.684515  0  0  0.112511  0  3.935231  0  0  0.119624  0  3.953103  0  0  0.055862  0.107867  0  3.92315  0
C  C19  1  0.61795232  0.11795364  0.24839495  1  0  0.142874  0  3.684645  0  0  0.11251  0  3.935353  0  0  0.119622  0  3.953226  0  0  0.055846  0.107854  0  3.923283  0
C  C20  1  0.88204895  0.61795184  0.75160183  1  0  0.142923  0  3.684614  0  0  0.112613  0  3.935382  0  0  0.119724  0  3.953256  0  0  0.055936  0.107966  0  3.923293  0
C  C21  1  0.11795263  0.38204803  0.75160195  1  0  0.142863  0  3.684642  0  0  0.112606  0  3.935361  0  0  0.119717  0  3.953235  0  0  0.055945  0.10796  0  3.923269  0
C  C22  1  0.37697142  0.87697219  0.34512791  1  0  -0.176405  0  3.690643  0  0  -0.190239  0  3.931817  0  0  -0.197759  0  3.951013  0  0  -0.081205  -0.18536  0  3.918883  0
C  C23  1  0.62302604  0.12302582  0.34512672  1  0  -0.17649  0  3.690619  0  0  -0.190328  0  3.931802  0  0  -0.197849  0  3.950999  0  0  -0.08122  -0.185435  0  3.918859  0
C  C24  1  0.87697672  0.62302564  0.65487213  1  0  -0.176479  0  3.690813  0  0  -0.190306  0  3.931953  0  0  -0.197826  0  3.951147  0  0  -0.081219  -0.185417  0  3.919015  0
C  C25  1  0.12302634  0.37697591  0.65487226  1  0  -0.176437  0  3.69079  0  0  -0.190291  0  3.931929  0  0  -0.197812  0  3.951123  0  0  -0.081219  -0.1854  0  3.918986  0
C  C26  1  0.49999807  0.99999800  0.39565776  1  0  0.155373  0  3.907728  0  0  0.164248  0  4.13936  0  0  0.170938  0  4.157698  0  0  0.011063  0.159906  0  4.126763  0
C  C27  1  0.00000122  0.50000091  0.60434124  1  0  0.15538  0  3.90789  0  0  0.164291  0  4.139452  0  0  0.170981  0  4.157788  0  0  0.011076  0.159938  0  4.12686  0
C  C28  1  0.49999935  0.99999833  0.49421163  1  0  -0.095157  0  3.849906  0  0  -0.092167  0  4.095747  0  0  -0.09421  0  4.121872  0  0  -0.033677  -0.090694  0  4.07781  0
C  C29  1  0.00000124  0.50000103  0.50579054  1  0  -0.094974  0  3.849783  0  0  -0.091974  0  4.095596  0  0  -0.094013  0  4.121718  0  0  -0.033596  -0.090496  0  4.077663  0
C  C30  1  0.50000090  0.00000065  0.57913953  1  0  -0.102417  0  3.863952  0  0  -0.100535  0  4.11538  0  0  -0.103178  0  4.141256  0  0  -0.03429  -0.09872  0  4.097651  0
C  C31  1  0.00000127  0.50000114  0.42086016  1  0  -0.102587  0  3.863756  0  0  -0.100731  0  4.115237  0  0  -0.103376  0  4.141111  0  0  -0.034342  -0.098938  0  4.097494  0
C  C32  1  0.50000232  0.00000196  0.67774659  1  0  0.14968  0  3.910115  0  0  0.158257  0  4.142181  0  0  0.165112  0  4.161294  0  0  0.011642  0.153804  0  4.129102  0
C  C33  1  0.00000129  0.49999982  0.32225171  1  0  0.149727  0  3.909845  0  0  0.158287  0  4.141944  0  0  0.165141  0  4.161055  0  0  0.011638  0.153888  0  4.128796  0
C  C34  1  0.37715988  0.87715883  0.72827593  1  0  -0.160099  0  3.66095  0  0  -0.171939  0  3.898016  0  0  -0.180136  0  3.918063  0  0  -0.076785  -0.16658  0  3.884548  0
C  C35  1  0.62284315  0.12284398  0.72827615  1  0  -0.159965  0  3.66076  0  0  -0.171825  0  3.897822  0  0  -0.180021  0  3.917869  0  0  -0.076752  -0.166458  0  3.884349  0
C  C36  1  0.87715818  0.62284189  0.27172202  1  0  -0.16011  0  3.661015  0  0  -0.171919  0  3.898066  0  0  -0.180115  0  3.918113  0  0  -0.076789  -0.166574  0  3.884586  0
C  C37  1  0.12284220  0.37715775  0.27172214  1  0  -0.160116  0  3.661027  0  0  -0.171938  0  3.898079  0  0  -0.180133  0  3.918125  0  0  -0.076794  -0.166591  0  3.8846  0
C  C38  1  0.38178309  0.88178337  0.82488246  1  0  0.156111  0  3.673452  0  0  0.12336  0  3.924102  0  0  0.131824  0  3.940597  0  0  0.05667  0.117722  0  3.913136  0
C  C39  1  0.61821846  0.11822064  0.82488337  1  0  0.155972  0  3.673436  0  0  0.123234  0  3.924082  0  0  0.131698  0  3.940576  0  0  0.056658  0.117597  0  3.913119  0
C  C40  1  0.88178282  0.61821596  0.17511897  1  0  0.156026  0  3.673658  0  0  0.123269  0  3.924302  0  0  0.131732  0  3.940798  0  0  0.05665  0.11764  0  3.913342  0
C  C41  1  0.11821761  0.38178248  0.17511839  1  0  0.156033  0  3.673716  0  0  0.123295  0  3.924336  0  0  0.131759  0  3.940831  0  0  0.056664  0.117649  0  3.91339  0
S  S42  1  0.49999810  0.49999872  0.99999912  1  0  1.593  0  5.861067  0  0  1.470214  0  6.397217  0  0  1.527374  0  6.361791  0  0  0.55093  1.430511  0  6.420343  0
S  S43  1  0.99999922  0.99999986  0.00000133  1  0  1.593014  0  5.861068  0  0  1.470228  0  6.397224  0  0  1.527388  0  6.361796  0  0  0.550946  1.430536  0  6.420332  0
N  N44  1  0.49999942  0.00000013  0.20102628  1  0  -0.291915  0  3.166373  0  0  -0.215807  0  3.419153  0  0  -0.233927  0  3.436972  0  0  -0.310521  -0.203563  0  3.407039  0
N  N45  1  0.99999973  0.49999923  0.79897589  1  0  -0.291946  0  3.166278  0  0  -0.216053  0  3.41921  0  0  -0.234177  0  3.437029  0  0  -0.310619  -0.203806  0  3.407081  0
N  N46  1  0.49999939  0.00000172  0.87236385  1  0  -0.331241  0  3.205449  0  0  -0.254412  0  3.477407  0  0  -0.274652  0  3.493408  0  0  -0.318155  -0.240791  0  3.466622  0
N  N47  1  0.99999990  0.49999863  0.12763723  1  0  -0.331085  0  3.205289  0  0  -0.25424  0  3.477228  0  0  -0.274485  0  3.493241  0  0  -0.318098  -0.240616  0  3.466447  0
O  O48  1  0.48790992  0.67204129  0.06173303  1  0  -0.763859  0  2.024393  0  0  -0.700088  0  2.307005  0  0  -0.724764  0  2.28771  0  0  -0.373899  -0.682483  0  2.319626  0
O  O49  1  0.51208768  0.32795311  0.06173035  1  0  -0.763882  0  2.024454  0  0  -0.700118  0  2.307073  0  0  -0.724793  0  2.287778  0  0  -0.373955  -0.68252  0  2.319704  0
O  O50  1  0.98791019  0.82795492  0.93826838  1  0  -0.763836  0  2.02444  0  0  -0.700039  0  2.30703  0  0  -0.724717  0  2.287735  0  0  -0.373906  -0.682438  0  2.319648  0
O  O51  1  0.01208698  0.17204449  0.93826934  1  0  -0.763859  0  2.024471  0  0  -0.700073  0  2.307073  0  0  -0.724746  0  2.287775  0  0  -0.373917  -0.682471  0  2.319691  0
O  O52  1  0.17204278  0.98791224  0.06173296  1  0  -0.763885  0  2.024481  0  0  -0.700106  0  2.307096  0  0  -0.724779  0  2.287798  0  0  -0.373911  -0.682512  0  2.319725  0
O  O53  1  0.82795483  0.01208505  0.06173321  1  0  -0.763848  0  2.024458  0  0  -0.700081  0  2.307068  0  0  -0.724754  0  2.287772  0  0  -0.373901  -0.682484  0  2.319691  0
O  O54  1  0.32795336  0.48791035  0.93826714  1  0  -0.763829  0  2.024612  0  0  -0.700027  0  2.307187  0  0  -0.724702  0  2.287894  0  0  -0.373857  -0.682423  0  2.31981  0
O  O55  1  0.67204381  0.51209194  0.93826711  1  0  -0.763886  0  2.024454  0  0  -0.700081  0  2.307052  0  0  -0.724754  0  2.287753  0  0  -0.37392  -0.682478  0  2.319676  0
