# generated using pymatgen
data_CuH3C4IN2Cl
_symmetry_space_group_name_H-M   'P 1'
_cell_length_a   3.99104821
_cell_length_b   10.42069216
_cell_length_c   17.64907193
_cell_angle_alpha   89.99997569
_cell_angle_beta   89.99947608
_cell_angle_gamma   89.99977399
_symmetry_Int_Tables_number   1
_chemical_formula_structural   CuH3C4IN2Cl
_chemical_formula_sum   'Cu4 H12 C16 I4 N8 Cl4'
_cell_volume   734.01580798
_cell_formula_units_Z   4
loop_
 _symmetry_equiv_pos_site_id
 _symmetry_equiv_pos_as_xyz
  1  'x, y, z'
loop_
 _atom_site_type_symbol
 _atom_site_label
 _atom_site_symmetry_multiplicity
 _atom_site_fract_x
 _atom_site_fract_y
 _atom_site_fract_z
 _atom_site_occupancy
 _atom_site_hle17_bader_spin_density
 _atom_site_hle17_ddec_charge
 _atom_site_hle17_ddec_spin_density
 _atom_site_hle17_ddec_sum_bond_order
 _atom_site_hle17_magmom
 _atom_site_hse06_10hf_bader_spin_density
 _atom_site_hse06_10hf_ddec_charge
 _atom_site_hse06_10hf_ddec_spin_density
 _atom_site_hse06_10hf_ddec_sum_bond_order
 _atom_site_hse06_10hf_magmom
 _atom_site_hse06_bader_spin_density
 _atom_site_hse06_ddec_charge
 _atom_site_hse06_ddec_spin_density
 _atom_site_hse06_ddec_sum_bond_order
 _atom_site_hse06_magmom
 _atom_site_pbe_bader_spin_density
 _atom_site_pbe_cm5_charge
 _atom_site_pbe_ddec_charge
 _atom_site_pbe_ddec_spin_density
 _atom_site_pbe_ddec_sum_bond_order
 _atom_site_pbe_magmom
Cu  Cu0  1  0.59299613  0.28250461  0.54627331  1  0  0.221977  0  2.257571  0  0  0.147122  0  2.739206  0  0  0.158205  0  2.682943  0  0  0.244928  0.142351  0  2.775166  0
Cu  Cu1  1  0.90699767  0.71749389  0.04627662  1  0  0.222  0  2.257463  0  0  0.147175  0  2.739096  0  0  0.158303  0  2.682841  0  0  0.244952  0.142407  0  2.77506  0
Cu  Cu2  1  0.40699764  0.78250498  0.95372832  1  0  0.221899  0  2.257513  0  0  0.147082  0  2.739137  0  0  0.158175  0  2.682886  0  0  0.244928  0.142321  0  2.775118  0
Cu  Cu3  1  0.09299410  0.21749493  0.45372684  1  0  0.222019  0  2.257461  0  0  0.147174  0  2.739075  0  0  0.158293  0  2.682811  0  0  0.244954  0.142403  0  2.775073  0
H  H4  1  0.40109610  0.33890402  0.70607287  1  0  0.096649  0  0.977624  0  0  0.091796  0  1.062335  0  0  0.096514  0  1.057738  0  0  0.104952  0.088206  0  1.065773  0
H  H5  1  0.09892177  0.66108454  0.20606899  1  0  0.096625  0  0.977772  0  0  0.091803  0  1.062439  0  0  0.096561  0  1.057812  0  0  0.104954  0.088221  0  1.065883  0
H  H6  1  0.59891962  0.83890422  0.79393101  1  0  0.096616  0  0.977713  0  0  0.091778  0  1.062395  0  0  0.0965  0  1.057796  0  0  0.104956  0.088194  0  1.06584  0
H  H7  1  0.90110067  0.16109603  0.29392938  1  0  0.09666  0  0.977674  0  0  0.0918  0  1.062379  0  0  0.096518  0  1.057783  0  0  0.104938  0.088215  0  1.065818  0
H  H8  1  0.76360927  0.56257994  0.52776332  1  0  0.100453  0  0.962566  0  0  0.101122  0  1.03787  0  0  0.105562  0  1.034254  0  0  0.101748  0.097791  0  1.040712  0
H  H9  1  0.73639519  0.43741378  0.02776654  1  0  0.100463  0  0.962578  0  0  0.101082  0  1.03796  0  0  0.105528  0  1.034337  0  0  0.101747  0.097747  0  1.040799  0
H  H10  1  0.23638686  0.06258075  0.97223270  1  0  0.100495  0  0.962779  0  0  0.101145  0  1.038098  0  0  0.105589  0  1.034475  0  0  0.101766  0.097814  0  1.040944  0
H  H11  1  0.26359171  0.93741627  0.47223346  1  0  0.100495  0  0.962508  0  0  0.101121  0  1.037895  0  0  0.105569  0  1.03427  0  0  0.101718  0.097789  0  1.040738  0
H  H12  1  0.36703990  0.53671238  0.78834520  1  0  0.084101  0  0.975358  0  0  0.089116  0  1.043079  0  0  0.092451  0  1.041427  0  0  0.095167  0.086175  0  1.0453  0
H  H13  1  0.13294004  0.46328669  0.28834299  1  0  0.084072  0  0.975463  0  0  0.089095  0  1.043146  0  0  0.09243  0  1.041495  0  0  0.095161  0.086153  0  1.045374  0
H  H14  1  0.63297154  0.03671183  0.71166160  1  0  0.084081  0  0.975536  0  0  0.089132  0  1.043198  0  0  0.092468  0  1.04154  0  0  0.095208  0.086193  0  1.045422  0
H  H15  1  0.86705410  0.96329712  0.21165644  1  0  0.084037  0  0.975486  0  0  0.089156  0  1.043081  0  0  0.092507  0  1.041384  0  0  0.095193  0.086214  0  1.045316  0
C  C16  1  0.47221763  0.43336027  0.68467221  1  0  0.063004  0  3.627232  0  0  0.031251  0  3.881762  0  0  0.034372  0  3.896118  0  0  0.036656  0.028516  0  3.872877  0
C  C17  1  0.02780349  0.56664078  0.18467193  1  0  0.06299  0  3.627261  0  0  0.031171  0  3.881951  0  0  0.034261  0  3.896272  0  0  0.03662  0.02844  0  3.873045  0
C  C18  1  0.52780208  0.93335673  0.81532938  1  0  0.062934  0  3.62722  0  0  0.031186  0  3.88184  0  0  0.034307  0  3.896182  0  0  0.036572  0.028456  0  3.872953  0
C  C19  1  0.97221245  0.06664256  0.31532704  1  0  0.062951  0  3.627446  0  0  0.031182  0  3.882037  0  0  0.034304  0  3.896394  0  0  0.036616  0.028443  0  3.873178  0
C  C20  1  0.67728510  0.55639325  0.58629568  1  0  0.00768  0  3.648492  0  0  -0.02755  0  3.898727  0  0  -0.02562  0  3.914222  0  0  0.034301  -0.028685  0  3.889003  0
C  C21  1  0.82270731  0.44359755  0.08629756  1  0  0.007694  0  3.648655  0  0  -0.027452  0  3.89883  0  0  -0.025526  0  3.914329  0  0  0.034306  -0.028581  0  3.889102  0
C  C22  1  0.32270358  0.05639398  0.91370771  1  0  0.007635  0  3.648573  0  0  -0.027573  0  3.89881  0  0  -0.025641  0  3.914304  0  0  0.034293  -0.028706  0  3.889099  0
C  C23  1  0.17727953  0.94360308  0.41369791  1  0  0.007634  0  3.648401  0  0  -0.027551  0  3.898613  0  0  -0.025625  0  3.914114  0  0  0.034385  -0.028676  0  3.888898  0
C  C24  1  0.66173140  0.66360878  0.63388629  1  0  0.2369  0  3.824347  0  0  0.234843  0  4.103618  0  0  0.241097  0  4.120805  0  0  0.139572  0.230135  0  4.092873  0
C  C25  1  0.83826187  0.33638967  0.13388759  1  0  0.236896  0  3.824456  0  0  0.234853  0  4.103653  0  0  0.241106  0  4.120843  0  0  0.139576  0.230144  0  4.092908  0
C  C26  1  0.33826616  0.16361335  0.86611198  1  0  0.236815  0  3.824196  0  0  0.234831  0  4.103361  0  0  0.241085  0  4.12055  0  0  0.139588  0.230124  0  4.092615  0
C  C27  1  0.16173865  0.83639334  0.36610563  1  0  0.237215  0  3.824087  0  0  0.235085  0  4.103425  0  0  0.241338  0  4.120617  0  0  0.139755  0.230376  0  4.092685  0
C  C28  1  0.45689948  0.54243268  0.72998791  1  0  0.093312  0  3.685243  0  0  0.072276  0  3.939776  0  0  0.073898  0  3.955726  0  0  0.045695  0.070716  0  3.930662  0
C  C29  1  0.04308750  0.45756738  0.22999045  1  0  0.093347  0  3.685199  0  0  0.072351  0  3.939708  0  0  0.073973  0  3.95566  0  0  0.045745  0.070785  0  3.930605  0
C  C30  1  0.54311691  0.04243415  0.77001378  1  0  0.093261  0  3.685466  0  0  0.072226  0  3.939943  0  0  0.073841  0  3.955912  0  0  0.04567  0.070667  0  3.930844  0
C  C31  1  0.95691172  0.95757380  0.27001124  1  0  0.093292  0  3.685506  0  0  0.072171  0  3.940038  0  0  0.073791  0  3.956001  0  0  0.04565  0.07061  0  3.930932  0
I  I32  1  0.59059022  0.36397814  0.40665576  1  0  -0.323276  0  1.843334  0  0  -0.273279  0  2.314934  0  0  -0.292222  0  2.272858  0  0  -0.165446  -0.260182  0  2.343369  0
I  I33  1  0.90940611  0.63602300  0.90665615  1  0  -0.323285  0  1.843339  0  0  -0.273262  0  2.314907  0  0  -0.292209  0  2.27284  0  0  -0.165444  -0.260174  0  2.343331  0
I  I34  1  0.40940498  0.86397779  0.09334709  1  0  -0.323259  0  1.843299  0  0  -0.273256  0  2.314888  0  0  -0.292218  0  2.272827  0  0  -0.165429  -0.260164  0  2.343318  0
I  I35  1  0.09059425  0.13602429  0.59334609  1  0  -0.323297  0  1.843337  0  0  -0.273292  0  2.314942  0  0  -0.292226  0  2.27286  0  0  -0.165447  -0.260194  0  2.343368  0
N  N36  1  0.58047111  0.44088371  0.61222295  1  0  -0.188472  0  3.350039  0  0  -0.115239  0  3.626043  0  0  -0.123646  0  3.63616  0  0  -0.339985  -0.110519  0  3.618195  0
N  N37  1  0.91953293  0.55911091  0.11222174  1  0  -0.188456  0  3.34992  0  0  -0.115323  0  3.626018  0  0  -0.12374  0  3.636166  0  0  -0.340006  -0.110606  0  3.618182  0
N  N38  1  0.41952848  0.94088123  0.88777921  1  0  -0.188265  0  3.349751  0  0  -0.115156  0  3.625862  0  0  -0.123567  0  3.635988  0  0  -0.339922  -0.110441  0  3.618053  0
N  N39  1  0.08047056  0.05911584  0.38777666  1  0  -0.188509  0  3.350135  0  0  -0.115257  0  3.62609  0  0  -0.123673  0  3.636226  0  0  -0.339991  -0.110546  0  3.618277  0
N  N40  1  0.55165886  0.65861012  0.70477570  1  0  -0.293032  0  3.06773  0  0  -0.2637  0  3.330238  0  0  -0.269697  0  3.342798  0  0  -0.300794  -0.260529  0  3.323001  0
N  N41  1  0.94831190  0.34139019  0.20477674  1  0  -0.293011  0  3.067754  0  0  -0.263667  0  3.330218  0  0  -0.269665  0  3.34278  0  0  -0.30078  -0.260494  0  3.322981  0
N  N42  1  0.44834877  0.15861459  0.79522087  1  0  -0.292898  0  3.067555  0  0  -0.263586  0  3.330035  0  0  -0.269584  0  3.342595  0  0  -0.30077  -0.260416  0  3.322796  0
N  N43  1  0.05167603  0.84139791  0.29522102  1  0  -0.293103  0  3.067886  0  0  -0.263729  0  3.33042  0  0  -0.269732  0  3.342997  0  0  -0.300889  -0.260556  0  3.323187  0
Cl  Cl44  1  0.79406484  0.81138582  0.60019935  1  0  -0.099299  0  1.379445  0  0  -0.087771  0  1.622872  0  0  -0.090947  0  1.617584  0  0  0.00319  -0.083991  0  1.625582  0
Cl  Cl45  1  0.70590453  0.18861361  0.10020328  1  0  -0.099323  0  1.379361  0  0  -0.087817  0  1.622784  0  0  -0.090993  0  1.617496  0  0  0.003159  -0.084035  0  1.625495  0
Cl  Cl46  1  0.20593613  0.31139153  0.89979830  1  0  -0.099311  0  1.379486  0  0  -0.0878  0  1.622877  0  0  -0.090975  0  1.61759  0  0  0.003165  -0.084021  0  1.625582  0
Cl  Cl47  1  0.29406249  0.68861226  0.39979339  1  0  -0.099405  0  1.379303  0  0  -0.087868  0  1.622758  0  0  -0.09104  0  1.617469  0  0  0.003116  -0.084089  0  1.625467  0
