# generated using pymatgen
data_CuH13C17N6(O3F2)2
_symmetry_space_group_name_H-M   'P 1'
_cell_length_a   8.39768030
_cell_length_b   9.28610448
_cell_length_c   13.59041478
_cell_angle_alpha   99.39084652
_cell_angle_beta   89.57327427
_cell_angle_gamma   106.36388977
_symmetry_Int_Tables_number   1
_chemical_formula_structural   CuH13C17N6(O3F2)2
_chemical_formula_sum   'Cu2 H26 C34 N12 O12 F8'
_cell_volume   1002.41436543
_cell_formula_units_Z   2
loop_
 _symmetry_equiv_pos_site_id
 _symmetry_equiv_pos_as_xyz
  1  'x, y, z'
loop_
 _atom_site_type_symbol
 _atom_site_label
 _atom_site_symmetry_multiplicity
 _atom_site_fract_x
 _atom_site_fract_y
 _atom_site_fract_z
 _atom_site_occupancy
 _atom_site_hle17_ddec_charge
 _atom_site_hle17_ddec_spin_density
 _atom_site_hle17_ddec_sum_bond_order
 _atom_site_hle17_magmom
 _atom_site_hse06_10hf_ddec_charge
 _atom_site_hse06_10hf_ddec_spin_density
 _atom_site_hse06_10hf_ddec_sum_bond_order
 _atom_site_hse06_10hf_magmom
 _atom_site_hse06_ddec_charge
 _atom_site_hse06_ddec_spin_density
 _atom_site_hse06_ddec_sum_bond_order
 _atom_site_hse06_magmom
 _atom_site_pbe_cm5_charge
 _atom_site_pbe_ddec_charge
 _atom_site_pbe_ddec_spin_density
 _atom_site_pbe_ddec_sum_bond_order
 _atom_site_pbe_magmom
Cu  Cu0  1  0.35899190  0.94397744  0.64887538  1  0.902513  -0.741223  1.778514  -0.531  0.886877  -0.826011  2.161788  -0.649  0.970988  -0.893936  2.100248  -0.729  0.739264  0.833374  -0.776087  2.205961  -0.597
Cu  Cu1  1  0.64101617  0.05602359  0.35111997  1  0.902545  0.741222  1.778508  0.531  0.886888  0.826009  2.161814  0.649  0.971001  0.893928  2.100286  0.729  0.73927  0.833292  0.776086  2.206124  0.597
H  H2  1  0.74909671  0.12457512  0.69985452  1  0.13268  0.000304  0.904814  0.0  0.145069  0.000302  0.959395  0.0  0.148115  0.000187  0.95437  0.0  0.157103  0.142286  0.000402  0.963147  0.0
H  H3  1  0.25090576  0.87542717  0.30014464  1  0.132691  -0.000296  0.904816  0.0  0.1451  -0.000301  0.959377  0.0  0.148141  -0.000188  0.954359  0.0  0.157129  0.142316  -0.000402  0.963123  0.0
H  H4  1  0.36531757  0.97773711  0.89375852  1  0.108144  6.7e-05  0.923997  0.0  0.109193  -1.6e-05  0.995937  0.0  0.112396  -1.6e-05  0.991396  0.0  0.13657  0.106558  -1.8e-05  0.999618  0.0
H  H5  1  0.63467825  0.02226293  0.10623894  1  0.108104  -8.2e-05  0.924119  0.0  0.109139  1.6e-05  0.996072  0.0  0.112287  1.6e-05  0.991667  0.0  0.136576  0.106541  1.8e-05  0.999718  0.0
H  H6  1  0.99447418  0.18026394  0.82839277  1  0.120312  1e-06  0.916352  0.0  0.12649  -3e-05  0.987583  0.0  0.129237  -2.2e-05  0.983108  0.0  0.124623  0.124213  -3.6e-05  0.990476  0.0
H  H7  1  0.00552463  0.81972706  0.17160966  1  0.120284  3e-06  0.916262  0.0  0.126481  3e-05  0.987518  0.0  0.12923  2.2e-05  0.983042  0.0  0.1246  0.1242  3.6e-05  0.990413  0.0
H  H8  1  0.94391201  0.11157743  0.94194592  1  0.119126  -0.000159  0.887622  0.0  0.129898  -0.000154  0.946216  0.0  0.132316  -0.000107  0.942373  0.0  0.127485  0.127234  -0.000193  0.950107  0.0
H  H9  1  0.05607912  0.88841936  0.05805783  1  0.119091  0.000162  0.88761  0.0  0.1299  0.000153  0.94617  0.0  0.132457  0.000107  0.942158  0.0  0.127462  0.12723  0.000193  0.95006  0.0
H  H10  1  0.59968207  0.75877609  0.70979006  1  0.121881  7.7e-05  0.943021  0.0  0.123263  -4.5e-05  1.016764  0.0  0.126707  -5e-05  1.012244  0.0  0.143053  0.120609  -4.4e-05  1.019938  0.0
H  H11  1  0.40032150  0.24121480  0.29020941  1  0.121956  -8e-05  0.942934  0.0  0.123291  4.5e-05  1.016748  0.0  0.126738  5e-05  1.012213  0.0  0.143092  0.120639  4.4e-05  1.019924  0.0
H  H12  1  0.07518781  0.62880240  0.69399689  1  0.111574  9.1e-05  0.954716  0.0  0.113717  -2.2e-05  1.022374  0.0  0.116687  -9e-06  1.018604  0.0  0.132912  0.111408  -1.9e-05  1.025116  0.0
H  H13  1  0.92481894  0.37120221  0.30600618  1  0.111624  -9.9e-05  0.954683  0.0  0.113798  2.2e-05  1.022283  0.0  0.116711  9e-06  1.01871  0.0  0.132925  0.111484  1.9e-05  1.025029  0.0
H  H14  1  0.63968851  0.52466958  0.76071849  1  0.115898  -3e-06  0.919268  0.0  0.119112  -4.5e-05  0.995131  0.0  0.121823  -2.7e-05  0.992073  0.0  0.121556  0.117012  -3.5e-05  0.997485  0.0
H  H15  1  0.36031024  0.47533646  0.23929577  1  0.115934  6e-06  0.919301  0.0  0.119115  4.4e-05  0.99519  0.0  0.121814  2.7e-05  0.992155  0.0  0.121546  0.117016  3.5e-05  0.997551  0.0
H  H16  1  0.46516378  0.35851224  0.74415229  1  0.126724  -0.000118  0.923575  0.0  0.132364  -0.000138  0.992668  0.0  0.135683  -4.6e-05  0.989647  0.0  0.121701  0.129991  -0.000344  0.994692  0.0
H  H17  1  0.53483819  0.64149253  0.25585669  1  0.12669  0.000121  0.923708  0.0  0.132356  0.000138  0.99274  0.0  0.135676  4.6e-05  0.989709  0.0  0.121709  0.129982  0.000344  0.994773  0.0
H  H18  1  0.69354977  0.39316747  0.58222629  1  0.114807  0.000339  0.933203  0.001  0.124693  0.000169  0.992604  0.0  0.128722  0.000105  0.989784  0.0  0.106144  0.121457  0.000334  0.995425  0.0
H  H19  1  0.30645739  0.60683808  0.41776732  1  0.114839  -0.000337  0.933264  -0.001  0.124737  -0.000169  0.99266  0.0  0.12877  -0.000105  0.989828  0.0  0.106154  0.121491  -0.000334  0.995485  0.0
H  H20  1  0.11377834  0.80645973  0.51976341  1  0.420965  -1e-05  0.890892  0.001  0.390244  -0.00061  0.954581  0.0  0.404028  -0.000382  0.935313  0.0  0.278855  0.380529  -0.000784  0.968188  0.0
H  H21  1  0.88622295  0.19354261  0.48023722  1  0.420933  1e-05  0.890941  -0.001  0.390207  0.00061  0.954636  0.0  0.403992  0.000382  0.935366  0.0  0.278831  0.380491  0.000784  0.968245  0.0
H  H22  1  0.27361209  0.93032293  0.48062316  1  0.398834  0.000182  0.922944  0.002  0.37161  -0.000648  0.982666  0.0  0.38394  -0.000353  0.965413  0.0  0.280481  0.362741  -0.000889  0.99516  0.0
H  H23  1  0.72638821  0.06967247  0.51937236  1  0.398855  -0.000181  0.922912  -0.002  0.37164  0.000648  0.982621  0.0  0.383969  0.000354  0.965367  0.0  0.28049  0.362774  0.000889  0.995111  0.0
H  H24  1  0.09142200  0.04365506  0.66750909  1  0.407446  9.3e-05  0.843149  0.0  0.394819  8.7e-05  0.89647  0.0  0.403802  6.8e-05  0.88579  0.0  0.305076  0.388334  0.0001  0.9043  0.0
H  H25  1  0.90858376  0.95634268  0.33249181  1  0.407423  -9.4e-05  0.843165  0.0  0.394802  -8.7e-05  0.896477  0.0  0.403784  -6.8e-05  0.885792  0.0  0.305088  0.388315  -0.0001  0.904305  0.0
H  H26  1  0.01261771  0.88209976  0.69677372  1  0.413149  -5e-06  0.896261  0.0  0.38164  2.6e-05  0.962466  0.0  0.393744  2.2e-05  0.944911  0.0  0.273262  0.373213  2.8e-05  0.974632  0.0
H  H27  1  0.98738331  0.11789799  0.30322571  1  0.413187  5e-06  0.896209  0.0  0.381671  -2.6e-05  0.962423  0.0  0.393748  -2.1e-05  0.944929  0.0  0.273286  0.373243  -2.8e-05  0.974592  0.0
C  C28  1  0.67888348  0.09967502  0.76523674  1  0.18747  0.002863  3.595229  0.003  0.113198  1.2e-05  3.860373  0.0  0.140606  0.000696  3.871852  0.001  0.174103  0.101779  -0.00055  3.854853  -0.001
C  C29  1  0.32111837  0.90032152  0.23475963  1  0.187467  -0.002878  3.595301  -0.003  0.113198  -1.2e-05  3.860482  0.0  0.140604  -0.000695  3.871949  -0.001  0.174112  0.101774  0.000551  3.854958  0.001
C  C30  1  0.48639737  0.02559594  0.86553883  1  0.203479  0.002377  3.70076  0.002  0.146728  0.000273  4.008094  0.0  0.161213  0.000762  4.015589  0.001  0.146248  0.137812  -4.2e-05  4.001026  0.0
C  C31  1  0.51360713  0.97440510  0.13445579  1  0.203516  -0.002342  3.700582  -0.002  0.146767  -0.000273  4.007942  0.0  0.161242  -0.000762  4.015458  -0.001  0.146221  0.137812  4.1e-05  4.000866  0.0
C  C32  1  0.91717859  0.18605488  0.89359355  1  -0.028798  -0.000723  3.637145  -0.001  -0.109798  -0.000614  3.903781  -0.001  -0.0951  -0.000474  3.911509  -0.001  -0.03588  -0.113069  -0.000735  3.900398  -0.001
C  C33  1  0.08281822  0.81393720  0.10640531  1  -0.028649  0.000713  3.637029  0.001  -0.109703  0.000615  3.903841  0.001  -0.094907  0.000474  3.911196  0.001  -0.035803  -0.112978  0.000735  3.900453  0.001
C  C34  1  0.95407871  0.34659352  0.94939102  1  -0.087608  0.000212  3.778801  0.0  -0.102436  9.9e-05  4.068556  0.0  -0.104476  8.1e-05  4.086472  0.0  -0.025175  -0.100778  0.000101  4.054883  0.0
C  C35  1  0.04591683  0.65340199  0.05060745  1  -0.087647  -0.000215  3.778886  0.0  -0.10251  -9.8e-05  4.068767  0.0  -0.104346  -8.3e-05  4.086084  0.0  -0.02516  -0.100848  -0.000101  4.05507  0.0
C  C36  1  0.95642365  0.46721632  0.89958436  1  0.171929  -0.000129  3.798747  0.0  0.132161  -5.7e-05  4.111295  0.0  0.140045  -4.5e-05  4.122314  0.0  0.089669  0.126704  -9.3e-05  4.103742  0.0
C  C37  1  0.04357153  0.53277803  0.10041326  1  0.172027  0.00014  3.798792  0.0  0.132222  5.5e-05  4.111391  0.0  0.139903  4.6e-05  4.123039  0.0  0.089633  0.126778  9.3e-05  4.103809  0.0
C  C38  1  0.99483380  0.38217192  0.05165969  1  0.172916  -0.000171  3.796732  0.0  0.135786  -8.2e-05  4.107041  0.0  0.143434  -6.2e-05  4.118126  0.0  0.089839  0.130239  -9.7e-05  4.100103  0.0
C  C39  1  0.00515544  0.61782250  0.94833867  1  0.172924  0.000163  3.79664  0.0  0.135805  8.4e-05  4.106905  0.0  0.144145  6.2e-05  4.117207  0.0  0.089821  0.130261  9.7e-05  4.099971  0.0
C  C40  1  0.46914861  0.69997494  0.71508011  1  0.170617  0.003976  3.638454  0.004  0.095008  0.000857  3.909681  0.001  0.111064  0.001563  3.922839  0.002  0.164275  0.085148  0.000328  3.900219  0.0
C  C41  1  0.53085669  0.30002509  0.28492103  1  0.170624  -0.003956  3.638531  -0.004  0.095029  -0.000857  3.909824  -0.001  0.111086  -0.001563  3.922943  -0.002  0.164295  0.085161  -0.000328  3.900365  0.0
C  C42  1  0.20246709  0.62793671  0.70711445  1  0.212418  0.001972  3.650868  0.001  0.162859  -0.000359  3.947149  -0.001  0.17714  0.000239  3.958006  0.0  0.147277  0.153541  -0.000745  3.939602  -0.001
C  C43  1  0.79753445  0.37207025  0.29288960  1  0.21236  -0.001916  3.650808  -0.001  0.162797  0.000357  3.947049  0.001  0.176915  -0.000236  3.958212  0.0  0.147245  0.153481  0.000745  3.939489  0.001
C  C44  1  0.51158727  0.47702837  0.78213062  1  -0.044094  -0.001326  3.625551  -0.001  -0.11754  -0.000963  3.873691  -0.001  -0.113825  -0.000669  3.880974  -0.001  -0.04096  -0.120032  -0.000861  3.869099  -0.001
C  C45  1  0.48841195  0.52297534  0.21788119  1  -0.044128  0.001304  3.625739  0.001  -0.117465  0.000965  3.873611  0.001  -0.1138  0.000668  3.881003  0.001  -0.040937  -0.119982  0.000861  3.869058  0.001
C  C46  1  0.50411813  0.48843781  0.89391813  1  -0.076934  0.000465  3.768201  0.001  -0.090131  0.000197  4.051238  0.0  -0.092208  0.000185  4.071635  0.0  -0.02322  -0.088742  0.000169  4.037823  0.0
C  C47  1  0.49587397  0.51156595  0.10609296  1  -0.077065  -0.000454  3.768137  -0.001  -0.090168  -0.000199  4.051266  0.0  -0.092264  -0.000184  4.071648  0.0  -0.02327  -0.088769  -0.000169  4.037852  0.0
C  C48  1  0.59747599  0.61773475  0.95777990  1  0.166237  -0.000346  3.797677  0.0  0.130133  -0.000133  4.107821  0.0  0.13738  -0.000126  4.119005  0.0  0.085728  0.12491  -0.000147  4.100665  0.0
C  C49  1  0.40251849  0.38226899  0.04223118  1  0.166616  0.000341  3.797484  0.0  0.13031  0.000132  4.107727  0.0  0.137535  0.000127  4.119028  0.0  0.085841  0.125087  0.000147  4.100573  0.0
C  C50  1  0.59599463  0.62805818  0.06113383  1  0.171287  0.0004  3.796171  0.0  0.131694  0.000195  4.105426  0.0  0.139273  0.000165  4.117136  0.0  0.088088  0.126032  0.000195  4.098368  0.0
C  C51  1  0.40399948  0.37194442  0.93887714  1  0.171064  -0.000402  3.796431  0.0  0.13174  -0.000194  4.105476  0.0  0.139305  -0.000167  4.117177  0.0  0.088131  0.126074  -0.000195  4.098431  0.0
C  C52  1  0.39852822  0.18382308  0.52470985  1  0.673711  0.002265  3.854949  0.005  0.63111  -0.001243  4.156936  0.0  0.669478  -0.000621  4.147217  0.001  0.220653  0.605435  -0.001732  4.162222  0.0
C  C53  1  0.60147749  0.81617788  0.47528108  1  0.674007  -0.002258  3.854739  -0.005  0.631416  0.001245  4.156705  0.0  0.669782  0.000619  4.146976  -0.001  0.220844  0.60575  0.001732  4.161974  0.0
C  C54  1  0.44903123  0.34913201  0.51580567  1  -0.060124  -0.004726  3.720736  -0.006  -0.053612  -0.002858  3.965505  -0.004  -0.059208  -0.001591  3.985389  -0.002  -0.013128  -0.050909  -0.004114  3.952837  -0.005
C  C55  1  0.55097605  0.65087003  0.48418316  1  -0.0602  0.004726  3.720933  0.006  -0.053643  0.002857  3.96573  0.004  -0.059233  0.001589  3.985605  0.002  -0.013172  -0.050937  0.004113  3.953048  0.005
C  C56  1  0.33959547  0.40753598  0.46736575  1  -0.062132  -0.004671  3.72401  -0.005  -0.053438  -0.001611  3.971292  -0.002  -0.056993  -0.001321  3.990514  -0.002  -0.013449  -0.050114  -0.002398  3.958236  -0.003
C  C57  1  0.66040696  0.59246956  0.53262491  1  -0.061971  0.004677  3.723876  0.005  -0.053397  0.00161  3.971301  0.002  -0.056954  0.001318  3.99053  0.002  -0.013406  -0.050078  0.002398  3.958251  0.003
C  C58  1  0.16834850  0.30780657  0.43160809  1  0.660265  0.000109  3.926893  0.0  0.609502  8.3e-05  4.229668  0.0  0.642605  5.5e-05  4.222231  0.0  0.204729  0.586635  0.00013  4.234282  0.0
C  C59  1  0.83165555  0.69219678  0.56838749  1  0.660022  -0.000117  3.926741  0.0  0.609239  -8.2e-05  4.229632  0.0  0.64234  -5.3e-05  4.222219  0.0  0.204521  0.586376  -0.00013  4.234241  0.0
C  C60  1  0.60810839  0.44154947  0.54804153  1  -0.084588  -0.005149  3.701275  -0.005  -0.121998  -0.001653  3.964555  -0.001  -0.121903  -0.001369  3.982311  -0.001  -0.085811  -0.122864  -0.001499  3.953581  -0.001
C  C61  1  0.39189568  0.55845378  0.45194889  1  -0.084542  0.005138  3.701477  0.004  -0.122024  0.001653  3.964727  0.001  -0.121925  0.001369  3.982467  0.001  -0.085763  -0.122886  0.001498  3.953744  0.001
N  N62  1  0.51499833  0.03795846  0.76759321  1  -0.378449  -0.059829  3.290962  -0.074  -0.335955  -0.04651  3.616171  -0.061  -0.366094  -0.039322  3.626869  -0.054  -0.362241  -0.316865  -0.050449  3.607311  -0.064
N  N63  1  0.48499785  0.96204271  0.23240363  1  -0.378382  0.059826  3.29092  0.074  -0.335839  0.046511  3.616081  0.061  -0.365983  0.039324  3.626782  0.054  -0.362189  -0.316723  0.050453  3.607224  0.064
N  N64  1  0.62356429  0.07778503  0.92354699  1  -0.268855  -0.00605  2.847335  -0.007  -0.269145  -0.003227  3.117972  -0.004  -0.268738  -0.002337  3.136033  -0.003  -0.221185  -0.262985  -0.004131  3.109126  -0.005
N  N65  1  0.37643163  0.92221153  0.07644791  1  -0.268925  0.006049  2.847156  0.007  -0.269163  0.003228  3.117815  0.004  -0.268743  0.002337  3.135808  0.003  -0.221203  -0.263001  0.004131  3.108978  0.005
N  N66  1  0.74425449  0.12313002  0.85838663  1  0.044054  -0.001937  3.56442  -0.002  0.161727  -0.001614  3.755138  -0.002  0.12234  -0.001259  3.814142  -0.002  -0.133123  0.169053  -0.001861  3.738488  -0.002
N  N67  1  0.25574378  0.87686661  0.14161269  1  0.044011  0.001935  3.564478  0.002  0.161564  0.001613  3.755389  0.002  0.122206  0.001258  3.814361  0.002  -0.133209  0.168891  0.001861  3.73874  0.002
N  N68  1  0.33768737  0.74309734  0.69055593  1  -0.386001  -0.069291  3.281394  -0.086  -0.343533  -0.052377  3.602625  -0.069  -0.377899  -0.04402  3.621889  -0.061  -0.366953  -0.321686  -0.056596  3.589982  -0.072
N  N69  1  0.66231639  0.25690148  0.30944140  1  -0.386057  0.069271  3.281406  0.086  -0.343595  0.052374  3.60266  0.069  -0.377971  0.044018  3.622  0.061  -0.367017  -0.321729  0.056594  3.590017  0.072
N  N70  1  0.24418268  0.51724471  0.74166023  1  -0.267434  -0.008826  2.82705  -0.01  -0.276179  -0.004697  3.098015  -0.006  -0.284402  -0.003322  3.11002  -0.004  -0.227162  -0.270065  -0.006334  3.090093  -0.007
N  N71  1  0.75581800  0.48276354  0.25835131  1  -0.267434  0.008787  2.827013  0.01  -0.276196  0.004698  3.098037  0.006  -0.284436  0.003317  3.11015  0.004  -0.227095  -0.270089  0.006333  3.090109  0.007
N  N72  1  0.41336100  0.56501146  0.74529385  1  0.048423  -0.001537  3.570064  -0.002  0.17386  -0.001116  3.747163  -0.001  0.162359  -0.000839  3.772607  -0.001  -0.133739  0.180109  -0.001369  3.732073  -0.002
N  N73  1  0.58664060  0.43499221  0.25471722  1  0.048461  0.001541  3.570164  0.002  0.173847  0.001114  3.747327  0.001  0.162345  0.000842  3.772737  0.001  -0.133791  0.180119  0.001369  3.732216  0.002
O  O74  1  0.40963339  0.15236469  0.61272232  1  -0.593354  -0.094996  2.039295  -0.126  -0.575346  -0.054716  2.321142  -0.08  -0.61761  -0.040557  2.312616  -0.062  -0.322229  -0.545884  -0.063954  2.32634  -0.089
O  O75  1  0.59037590  0.84763618  0.38726566  1  -0.593381  0.094999  2.039162  0.126  -0.575391  0.05472  2.321047  0.08  -0.617657  0.040563  2.31252  0.062  -0.322207  -0.545909  0.06396  2.326244  0.089
O  O76  1  0.35041593  0.08814267  0.44553700  1  -0.628184  0.001321  1.999685  0.002  -0.592132  0.000135  2.237405  0.001  -0.619056  0.000312  2.225342  0.001  -0.31094  -0.573105  -0.000134  2.245247  0.0
O  O77  1  0.64958788  0.91185598  0.55445149  1  -0.628376  -0.001324  1.999815  -0.002  -0.592361  -0.000137  2.237565  -0.001  -0.619284  -0.00031  2.225498  -0.001  -0.311093  -0.57335  0.000134  2.245407  0.0
O  O78  1  0.07338389  0.25376578  0.49782728  1  -0.62233  0.002074  1.939977  0.003  -0.570342  0.000887  2.144817  0.001  -0.594819  0.000408  2.133704  0.0  -0.333007  -0.552888  0.001606  2.152274  0.002
O  O79  1  0.92662068  0.74624674  0.50217145  1  -0.622167  -0.002074  1.939775  -0.003  -0.570128  -0.000888  2.144609  -0.001  -0.594605  -0.000408  2.133504  0.0  -0.332876  -0.55267  -0.001607  2.152062  -0.002
O  O80  1  0.13400427  0.28603608  0.33807661  1  -0.648164  1.4e-05  1.920963  0.0  -0.598433  2.9e-05  2.141652  0.0  -0.623619  4e-06  2.130478  0.0  -0.333153  -0.580094  -0.000213  2.148533  0.0
O  O81  1  0.86599685  0.71395819  0.66191952  1  -0.648098  -1.2e-05  1.920895  0.0  -0.598417  -2.9e-05  2.141698  0.0  -0.623501  -5e-06  2.130327  0.0  -0.333125  -0.580096  0.000213  2.148611  0.0
O  O82  1  0.24214533  0.84228709  0.51916860  1  -0.8046  -0.088513  1.960502  -0.114  -0.776728  -0.05716  2.176397  -0.079  -0.816035  -0.043875  2.144005  -0.064  -0.586248  -0.750644  -0.064824  2.20009  -0.086
O  O83  1  0.75785404  0.15771293  0.48082959  1  -0.80461  0.088512  1.960403  0.114  -0.776729  0.057161  2.176285  0.079  -0.816037  0.043876  2.143897  0.064  -0.586274  -0.750624  0.064821  2.19999  0.086
O  O84  1  0.09992299  0.98242295  0.71799004  1  -0.829635  0.001659  1.786058  0.001  -0.792946  0.001437  1.953708  0.001  -0.811657  0.001463  1.922723  0.001  -0.597196  -0.779538  0.00133  1.975718  0.001
O  O85  1  0.90008003  0.01757367  0.28201075  1  -0.829646  -0.001659  1.786027  -0.001  -0.79297  -0.001437  1.953704  -0.001  -0.811743  -0.001463  1.922855  -0.001  -0.597244  -0.779548  -0.001329  1.975723  -0.001
F  F86  1  0.90744251  0.43617191  0.80180764  1  -0.158516  -2e-06  1.258903  0.0  -0.096459  -5e-06  1.421767  0.0  -0.106036  -1e-06  1.412977  0.0  -0.068618  -0.089419  -8e-06  1.427621  0.0
F  F87  1  0.09255111  0.56382133  0.19819060  1  -0.158602  1e-06  1.25887  0.0  -0.096487  5e-06  1.421719  0.0  -0.106173  1e-06  1.413129  0.0  -0.068642  -0.089452  8e-06  1.427564  0.0
F  F88  1  0.98720142  0.26926963  0.10462615  1  -0.153209  -2.3e-05  1.248307  0.0  -0.098827  -1.7e-05  1.407389  0.0  -0.107877  -1.4e-05  1.398364  0.0  -0.07554  -0.092381  -2e-05  1.414388  0.0
F  F89  1  0.01277211  0.73072038  0.89537251  1  -0.153321  2.4e-05  1.248454  0.0  -0.098858  1.6e-05  1.407457  0.0  -0.110288  1.4e-05  1.401179  0.0  -0.075583  -0.09241  2e-05  1.414459  0.0
F  F90  1  0.69277101  0.73683416  0.91848918  1  -0.159494  -3.2e-05  1.24615  0.0  -0.108027  -2.4e-05  1.409324  0.0  -0.116329  -1.7e-05  1.400596  0.0  -0.082933  -0.101961  -2.6e-05  1.415638  0.0
F  F91  1  0.30722238  0.26316612  0.08151934  1  -0.159686  3.4e-05  1.246094  0.0  -0.108161  2.4e-05  1.409311  0.0  -0.116725  1.7e-05  1.400636  0.0  -0.083017  -0.102096  2.6e-05  1.415626  0.0
F  F92  1  0.69568897  0.75386262  0.11829514  1  -0.154412  3e-06  1.276748  0.0  -0.089799  2e-05  1.439365  0.0  -0.100192  8e-06  1.431493  0.0  -0.06676  -0.082365  3.1e-05  1.445039  0.0
F  F93  1  0.30431199  0.24613537  0.88171609  1  -0.154312  -2e-06  1.276882  0.0  -0.089806  -2e-05  1.439458  0.0  -0.100205  -9e-06  1.431584  0.0  -0.066784  -0.082369  -3.1e-05  1.445136  0.0
