# generated using pymatgen
data_ZnH49C43N5Cl2
_symmetry_space_group_name_H-M   'P 1'
_cell_length_a   8.73013600
_cell_length_b   16.33962254
_cell_length_c   16.37657444
_cell_angle_alpha   100.71908134
_cell_angle_beta   95.90252210
_cell_angle_gamma   98.18972316
_symmetry_Int_Tables_number   1
_chemical_formula_structural   ZnH49C43N5Cl2
_chemical_formula_sum   'Zn2 H98 C86 N10 Cl4'
_cell_volume   2251.72221986
_cell_formula_units_Z   2
loop_
 _symmetry_equiv_pos_site_id
 _symmetry_equiv_pos_as_xyz
  1  'x, y, z'
loop_
 _atom_site_type_symbol
 _atom_site_label
 _atom_site_symmetry_multiplicity
 _atom_site_fract_x
 _atom_site_fract_y
 _atom_site_fract_z
 _atom_site_occupancy
 _atom_site_pbe_bader_charge
 _atom_site_pbe_bader_spin_density
 _atom_site_pbe_cm5_charge
 _atom_site_pbe_ddec_charge
 _atom_site_pbe_ddec_spin_density
 _atom_site_pbe_ddec_sum_bond_order
 _atom_site_pbe_magmom
Zn  Zn0  1  0.97632235  0.57679562  0.73047447  1  1.117434  0  0.543484  0.61639  0  2.717825  0
Zn  Zn1  1  0.02368325  0.42319938  0.26953078  1  1.117434  0  0.543469  0.616454  0  2.717664  0
H  H2  1  0.82057328  0.64895933  0.87351527  1  0.113988  0  0.112441  0.086266  0  1.032232  0
H  H3  1  0.17943626  0.35103685  0.12649469  1  0.11369  0  0.112411  0.086154  0  1.032128  0
H  H4  1  0.42515367  0.46363552  0.88944957  1  0.110838  0  0.108304  0.110875  0  1.005041  0
H  H5  1  0.57484533  0.53636840  0.11055231  1  0.110868  0  0.108298  0.110843  0  1.005023  0
H  H6  1  0.50773567  0.36669704  0.77096042  1  0.082933  0  0.10948  0.114957  0  1.017665  0
H  H7  1  0.49226043  0.63330500  0.22904033  1  0.082875  0  0.109466  0.114936  0  1.017673  0
H  H8  1  0.75004830  0.41580093  0.71215319  1  0.065902  0  0.111311  0.079321  0  1.011661  0
H  H9  1  0.24995191  0.58419915  0.28785101  1  0.066038  0  0.111304  0.079309  0  1.011629  0
H  H10  1  0.80782403  0.66487578  0.02907751  1  0.03125  0  0.096333  0.094899  0  1.062404  0
H  H11  1  0.19218165  0.33512755  0.97092273  1  0.031323  0  0.096334  0.094973  0  1.062336  0
H  H12  1  0.33076648  0.59452437  0.91412694  1  0.10969  0  0.092004  0.10643  0  1.056428  0
H  H13  1  0.66924179  0.40546810  0.08587792  1  0.109642  0  0.091966  0.106344  0  1.05646  0
H  H14  1  0.17672119  0.72280211  0.09136554  1  0.01974  0  0.089894  0.049975  0  1.00529  0
H  H15  1  0.82329120  0.27719678  0.90863472  1  0.019975  0  0.089906  0.049995  0  1.005271  0
H  H16  1  0.11436008  0.55434977  0.96463479  1  0.026962  0  0.084817  0.119382  0  1.020178  0
H  H17  1  0.88564067  0.44564844  0.03536783  1  0.026932  0  0.084791  0.119329  0  1.020193  0
H  H18  1  0.97897196  0.59626833  0.02693142  1  0.010988  0  0.080838  0.106614  0  1.047766  0
H  H19  1  0.02103514  0.40373556  0.97307266  1  0.010992  0  0.080822  0.106587  0  1.047784  0
H  H20  1  0.14685749  0.56601759  0.07554843  1  0.033776  0  0.080291  0.112361  0  1.035448  0
H  H21  1  0.85314612  0.43398254  0.92445350  1  0.033852  0  0.080293  0.112342  0  1.035469  0
H  H22  1  0.20292620  0.78722129  0.96222747  1  0.023971  0  0.083591  0.116541  0  1.015551  0
H  H23  1  0.79708240  0.21277630  0.03777479  1  0.023951  0  0.083579  0.116461  0  1.015573  0
H  H24  1  0.01202328  0.73350117  0.96334736  1  -0.013218  0  0.079268  0.105338  0  1.037753  0
H  H25  1  0.98798321  0.26649704  0.03665493  1  -0.013299  0  0.079252  0.10532  0  1.037809  0
H  H26  1  0.13958654  0.68559997  0.89876096  1  0.035848  0  0.077824  0.114025  0  1.046371  0
H  H27  1  0.86042395  0.31440017  0.10124008  1  0.035862  0  0.077775  0.113881  0  1.046465  0
H  H28  1  0.69340074  0.78794783  0.22428592  1  0.029987  0  0.092545  0.05396  0  1.009438  0
H  H29  1  0.30660182  0.21206060  0.77571216  1  0.029992  0  0.092579  0.053928  0  1.009487  0
H  H30  1  0.81941339  0.65701554  0.21538062  1  0.053934  0  0.076921  0.117331  0  1.034704  0
H  H31  1  0.18058038  0.34299034  0.78461835  1  0.05394  0  0.07693  0.11738  0  1.034648  0
H  H32  1  0.95246861  0.75198735  0.25876128  1  0.044483  0  0.077911  0.109095  0  1.042412  0
H  H33  1  0.04753133  0.24801595  0.74123990  1  0.044507  0  0.077922  0.109102  0  1.042429  0
H  H34  1  0.95466489  0.69944042  0.15443521  1  0.009744  0  0.082997  0.116146  0  1.029921  0
H  H35  1  0.04533142  0.30056224  0.84556628  1  0.009676  0  0.082994  0.116131  0  1.029903  0
H  H36  1  0.91016595  0.83671738  0.09904170  1  -0.011094  0  0.083662  0.113621  0  1.01157  0
H  H37  1  0.08983949  0.16328915  0.90095674  1  -0.011113  0  0.083652  0.113638  0  1.011511  0
H  H38  1  0.92481043  0.88816705  0.20598665  1  0.033978  0  0.082183  0.116323  0  1.023648  0
H  H39  1  0.07519519  0.11184012  0.79401071  1  0.034442  0  0.082195  0.116353  0  1.023613  0
H  H40  1  0.75902708  0.89105114  0.13406487  1  0.02317  0  0.084084  0.114184  0  1.012329  0
H  H41  1  0.24097950  0.10895540  0.86593301  1  0.023097  0  0.084104  0.11423  0  1.012355  0
H  H42  1  0.43236738  0.86919469  0.06613509  1  0.061983  0  0.09825  0.142643  0  1.00146  0
H  H43  1  0.56762533  0.13081189  0.93385970  1  0.061934  0  0.098298  0.14269  0  1.001472  0
H  H44  1  0.41933328  0.95718829  0.14826993  1  0.082426  0  0.100721  0.144779  0  1.013681  0
H  H45  1  0.58065813  0.04281763  0.85172649  1  0.082462  0  0.100717  0.144823  0  1.013545  0
H  H46  1  0.24783098  0.89305573  0.09363042  1  0.077522  0  0.104779  0.153756  0  0.98181  0
H  H47  1  0.75216426  0.10695147  0.90636583  1  0.077595  0  0.104799  0.153787  0  0.981837  0
H  H48  1  0.31788444  0.74568725  0.30191180  1  0.082539  0  0.107252  0.10846  0  1.026863  0
H  H49  1  0.68210500  0.25431238  0.69808203  1  0.082524  0  0.107302  0.108538  0  1.026967  0
H  H50  1  0.18214820  0.79024761  0.42828880  1  0.104523  0  0.099874  0.094397  0  1.060359  0
H  H51  1  0.81784393  0.20975328  0.57170541  1  0.104408  0  0.099866  0.094418  0  1.060264  0
H  H52  1  0.09626097  0.93245297  0.44919774  1  0.114605  0  0.109414  0.11208  0  1.045786  0
H  H53  1  0.90372911  0.06754851  0.55079894  1  0.114468  0  0.109388  0.112044  0  1.045898  0
H  H54  1  0.14458429  0.16047377  0.29920273  1  0.117796  0  0.085538  0.148837  0  1.049175  0
H  H55  1  0.85541306  0.83952820  0.70080233  1  0.117873  0  0.08559  0.14889  0  1.049088  0
H  H56  1  0.13258799  0.06511163  0.22254862  1  0.078983  0  0.103798  0.155484  0  0.975829  0
H  H57  1  0.86741483  0.93489357  0.77745248  1  0.078932  0  0.103764  0.155441  0  0.975862  0
H  H58  1  0.31060646  0.10801089  0.28549123  1  0.082274  0  0.10017  0.147101  0  0.998064  0
H  H59  1  0.68939302  0.89199043  0.71451503  1  0.082353  0  0.100185  0.147131  0  0.998091  0
H  H60  1  0.15126988  0.34601412  0.54513559  1  0.057721  0  0.096947  0.095275  0  1.051522  0
H  H61  1  0.84872482  0.65398354  0.45486175  1  0.057586  0  0.096921  0.095188  0  1.051516  0
H  H62  1  0.69984675  0.24217777  0.40459929  1  0.062418  0  0.101045  0.09981  0  1.020326  0
H  H63  1  0.30014553  0.75781921  0.59540146  1  0.062424  0  0.10102  0.099824  0  1.020315  0
H  H64  1  0.32733126  0.16003999  0.46381234  1  0.012319  0  0.093807  0.058386  0  0.987017  0
H  H65  1  0.67267246  0.83996083  0.53618608  1  0.012395  0  0.093846  0.058398  0  0.987031  0
H  H66  1  0.38852173  0.33208781  0.58525518  1  0.002886  0  0.084026  0.113035  0  1.016629  0
H  H67  1  0.61147753  0.66791368  0.41474072  1  0.002883  0  0.084022  0.113042  0  1.016593  0
H  H68  1  0.41098998  0.31655428  0.47674844  1  0.009535  0  0.082924  0.113186  0  1.021898  0
H  H69  1  0.58901313  0.68344847  0.52324851  1  0.009629  0  0.082928  0.11318  0  1.021869  0
H  H70  1  0.52752490  0.27147403  0.54591930  1  0.041565  0  0.08447  0.116716  0  1.018503  0
H  H71  1  0.47247458  0.72852807  0.45407796  1  0.04142  0  0.084505  0.116733  0  1.018593  0
H  H72  1  0.40179195  0.15326232  0.61316193  1  0.031978  0  0.082667  0.115756  0  1.02606  0
H  H73  1  0.59820138  0.84673853  0.38683416  1  0.032037  0  0.082705  0.115779  0  1.026054  0
H  H74  1  0.20410282  0.10493066  0.57771519  1  0.055103  0  0.087114  0.121887  0  1.025135  0
H  H75  1  0.79588854  0.89507151  0.42227864  1  0.055123  0  0.087123  0.121967  0  1.024985  0
H  H76  1  0.24681274  0.20800633  0.64201251  1  0.023883  0  0.08525  0.119585  0  1.022242  0
H  H77  1  0.75318032  0.79199395  0.35798040  1  0.023607  0  0.085189  0.119518  0  1.022174  0
H  H78  1  0.80983074  0.02617038  0.34728415  1  0.043574  0  0.094634  0.061412  0  0.985062  0
H  H79  1  0.19016889  0.97382321  0.65272847  1  0.043612  0  0.094643  0.061427  0  0.98513  0
H  H80  1  0.63343938  0.03739673  0.22353793  1  0.022047  0  0.081237  0.108826  0  1.032342  0
H  H81  1  0.36657278  0.96258636  0.77645971  1  0.021337  0  0.081289  0.108917  0  1.032289  0
H  H82  1  0.81249529  0.10837817  0.23156394  1  0.046535  0  0.085298  0.126236  0  1.012099  0
H  H83  1  0.18752002  0.89160358  0.76843785  1  0.047033  0  0.085303  0.126284  0  1.012029  0
H  H84  1  0.64391053  0.14770688  0.26180134  1  0.016838  0  0.084741  0.116797  0  1.006329  0
H  H85  1  0.35610306  0.85227756  0.73819175  1  0.016885  0  0.084733  0.116779  0  1.006278  0
H  H86  1  0.52482518  0.00817751  0.35612963  1  0.015609  0  0.082686  0.116511  0  1.038717  0
H  H87  1  0.47516475  0.99181949  0.64386918  1  0.01572  0  0.082669  0.116474  0  1.038699  0
H  H88  1  0.54104880  0.11690156  0.40138664  1  0.011609  0  0.080085  0.104397  0  1.032343  0
H  H89  1  0.45894758  0.88309804  0.59860873  1  0.011589  0  0.080094  0.104382  0  1.032372  0
H  H90  1  0.63499841  0.05009993  0.45654270  1  0.031295  0  0.0821  0.11646  0  1.026025  0
H  H91  1  0.36498907  0.94990021  0.54345786  1  0.031328  0  0.082118  0.116472  0  1.026028  0
H  H92  1  0.70946356  0.38021604  0.39012372  1  0.120297  0  0.111968  0.115401  0  0.989644  0
H  H93  1  0.29052302  0.61978468  0.60987997  1  0.120206  0  0.111978  0.115424  0  0.98965  0
H  H94  1  0.62198955  0.51611050  0.44541446  1  0.071524  0  0.108065  0.111668  0  1.003158  0
H  H95  1  0.37799910  0.48388884  0.55459576  1  0.071494  0  0.108076  0.111658  0  1.003147  0
H  H96  1  0.74211307  0.59909155  0.58956371  1  0.102122  0  0.113947  0.084913  0  1.0158  0
H  H97  1  0.25787791  0.40090396  0.41044829  1  0.102117  0  0.114005  0.084992  0  1.015721  0
H  H98  1  0.01489154  0.41904460  0.62442589  1  0.11068  0  0.106427  0.086082  0  1.042393  0
H  H99  1  0.98510648  0.58094858  0.37557435  1  0.110835  0  0.106427  0.086081  0  1.042386  0
C  C100  1  0.74992314  0.58622080  0.85512028  1  0.452532  0  0.049955  0.045409  0  3.884494  0
C  C101  1  0.25008982  0.41377921  0.14488879  1  0.452879  0  0.049963  0.04556  0  3.884501  0
C  C102  1  0.61840299  0.56405044  0.89365619  1  0.055921  0  0.006864  0.04428  0  3.967613  0
C  C103  1  0.38160490  0.43594837  0.10634873  1  0.056002  0  0.006939  0.044366  0  3.967768  0
C  C104  1  0.52856898  0.48387529  0.86167063  1  -0.112528  0  -0.057573  -0.053089  0  3.895967  0
C  C105  1  0.47143026  0.51612544  0.13833305  1  -0.113102  0  -0.057571  -0.053109  0  3.896112  0
C  C106  1  0.57366619  0.42977314  0.79566990  1  0.066786  0  -0.082908  -0.12178  0  3.997187  0
C  C107  1  0.42633516  0.57022696  0.20433374  1  0.067483  0  -0.082952  -0.12178  0  3.99713  0
C  C108  1  0.70835347  0.45631192  0.76297018  1  0.441704  0  0.036205  0.069757  0  3.962291  0
C  C109  1  0.29164923  0.54368499  0.23703411  1  0.441305  0  0.036218  0.069781  0  3.962294  0
C  C110  1  0.57427726  0.62275963  0.96374188  1  -0.02161  0  -0.020636  0.051482  0  4.076452  0
C  C111  1  0.42572959  0.37723987  0.03625946  1  -0.021693  0  -0.020624  0.05147  0  4.076695  0
C  C112  1  0.68496726  0.67022323  0.02997851  1  -0.052228  0  -0.098208  -0.189778  0  3.986168  0
C  C113  1  0.31504248  0.32978197  0.97002352  1  -0.052231  0  -0.098238  -0.18991  0  3.98615  0
C  C114  1  0.64102998  0.72095609  0.09908153  1  0.005782  0  -0.012302  0.009722  0  3.91136  0
C  C115  1  0.35897545  0.27905044  0.90091630  1  0.005986  0  -0.012303  0.009745  0  3.910994  0
C  C116  1  0.48103020  0.72710519  0.10032775  1  0.347378  0  0.090641  0.106125  0  4.052176  0
C  C117  1  0.51897963  0.27290072  0.89966954  1  0.347447  0  0.090526  0.105992  0  4.052299  0
C  C118  1  0.36783845  0.68179305  0.03287277  1  -0.050341  0  -0.00888  0.01838  0  3.889867  0
C  C119  1  0.63216776  0.31820841  0.96712528  1  -0.050172  0  -0.008797  0.018439  0  3.889756  0
C  C120  1  0.41698409  0.62977326  0.96643764  1  -0.056189  0  -0.092801  -0.173005  0  3.954442  0
C  C121  1  0.58302334  0.37022433  0.03356396  1  -0.056344  0  -0.092787  -0.172888  0  3.954424  0
C  C122  1  0.19472265  0.68433682  0.03164692  1  0.039016  0  -0.092581  0.080673  0  3.896311  0
C  C123  1  0.80528628  0.31566207  0.96835317  1  0.038691  0  -0.092671  0.080641  0  3.89614  0
C  C124  1  0.10380953  0.59524193  0.02443616  1  -0.049596  0  -0.246105  -0.388365  0  3.911447  0
C  C125  1  0.89619735  0.40475755  0.97556640  1  -0.049659  0  -0.24601  -0.388272  0  3.91132  0
C  C126  1  0.13405183  0.72500337  0.96018131  1  -0.041172  0  -0.2492  -0.395292  0  3.929817  0
C  C127  1  0.86595712  0.27499551  0.03981939  1  -0.04117  0  -0.249173  -0.395085  0  3.929681  0
C  C128  1  0.76002731  0.76947653  0.17222835  1  0.046752  0  -0.090803  0.082731  0  3.88993  0
C  C129  1  0.23997511  0.23053123  0.82777203  1  0.046749  0  -0.090803  0.082862  0  3.889959  0
C  C130  1  0.87747007  0.71621255  0.20164292  1  -0.10925  0  -0.251365  -0.395706  0  3.917235  0
C  C131  1  0.12252640  0.28379078  0.79835688  1  -0.109282  0  -0.251395  -0.39579  0  3.917377  0
C  C132  1  0.84313382  0.85125690  0.15176942  1  -0.044066  0  -0.243117  -0.379264  0  3.9099  0
C  C133  1  0.15687391  0.14874963  0.84822852  1  -0.04444  0  -0.243128  -0.37939  0  3.909924  0
C  C134  1  0.36932807  0.89167907  0.11809688  1  -0.121827  0  -0.234176  -0.459918  0  3.944597  0
C  C135  1  0.63066797  0.10832683  0.88190098  1  -0.12148  0  -0.234254  -0.460071  0  3.944673  0
C  C136  1  0.37428125  0.83626700  0.18149295  1  0.715581  0  0.162922  0.278573  0  3.939358  0
C  C137  1  0.62571744  0.16373639  0.81850331  1  0.715441  0  0.162928  0.278611  0  3.939317  0
C  C138  1  0.30270045  0.86156701  0.25915953  1  0.524744  0  0.116576  0.143387  0  4.010523  0
C  C139  1  0.69729938  0.13843639  0.74083617  1  0.524758  0  0.116547  0.143349  0  4.010568  0
C  C140  1  0.27906165  0.80666490  0.31490109  1  -0.052116  0  -0.072837  -0.141209  0  3.945418  0
C  C141  1  0.72093342  0.19333784  0.68509608  1  -0.052427  0  -0.072885  -0.141367  0  3.945899  0
C  C142  1  0.20395393  0.83142630  0.38409997  1  -0.041126  0  -0.07397  -0.037583  0  3.983544  0
C  C143  1  0.79603749  0.16857581  0.61589690  1  -0.039885  0  -0.074023  -0.037595  0  3.983474  0
C  C144  1  0.15577143  0.90995979  0.39623792  1  0.001495  0  -0.072309  -0.136766  0  3.917813  0
C  C145  1  0.84422015  0.09003917  0.60375771  1  0.000501  0  -0.072246  -0.136729  0  3.917708  0
C  C146  1  0.18509601  0.96118983  0.33794294  1  0.47702  0  0.119843  0.145294  0  4.012025  0
C  C147  1  0.81489387  0.03881101  0.66205360  1  0.477611  0  0.119853  0.145386  0  4.01188  0
C  C148  1  0.18351612  0.09913333  0.28608411  1  -0.158569  0  -0.241081  -0.467578  0  3.938262  0
C  C149  1  0.81648251  0.90086932  0.71391810  1  -0.158678  0  -0.241152  -0.467665  0  3.938324  0
C  C150  1  0.13970411  0.04660760  0.34853172  1  0.712479  0  0.164779  0.277111  0  3.944426  0
C  C151  1  0.86028814  0.95339319  0.65146797  1  0.712729  0  0.164856  0.277174  0  3.944184  0
C  C152  1  0.02024517  0.14827302  0.42969704  1  0.271311  0  0.09874  0.125234  0  4.027918  0
C  C153  1  0.97975220  0.85172592  0.57030008  1  0.271147  0  0.098697  0.125192  0  4.028035  0
C  C154  1  0.12533637  0.21686117  0.48171369  1  0.013128  0  -0.008112  0.011536  0  3.887932  0
C  C155  1  0.87466058  0.78314033  0.51828149  1  0.012956  0  -0.008087  0.011514  0  3.887902  0
C  C156  1  0.07170282  0.29293362  0.50522307  1  -0.097886  0  -0.097532  -0.186897  0  3.99119  0
C  C157  1  0.92829698  0.70706600  0.49477124  1  -0.097703  0  -0.097475  -0.186749  0  3.991149  0
C  C158  1  0.91992759  0.30412896  0.47697200  1  0.027227  0  -0.027384  0.035891  0  4.087512  0
C  C159  1  0.08006724  0.69586937  0.52302305  1  0.027327  0  -0.027519  0.035825  0  4.087723  0
C  C160  1  0.81908783  0.23515128  0.42573158  1  -0.03721  0  -0.089678  -0.171318  0  3.987764  0
C  C161  1  0.18090569  0.76484641  0.57426449  1  -0.037195  0  -0.089592  -0.171303  0  3.987805  0
C  C162  1  0.86506987  0.15663650  0.40316705  1  0.044326  0  -0.005922  0.017034  0  3.886241  0
C  C163  1  0.13492715  0.84336114  0.59683162  1  0.044374  0  -0.005938  0.017001  0  3.886305  0
C  C164  1  0.28912544  0.20504571  0.51321505  1  0.063149  0  -0.08564  0.091945  0  3.878496  0
C  C165  1  0.71087819  0.79495518  0.48677909  1  0.063074  0  -0.085688  0.091939  0  3.87851  0
C  C166  1  0.40998139  0.28609573  0.53116811  1  -0.069141  0  -0.245572  -0.39247  0  3.934607  0
C  C167  1  0.59001652  0.71390513  0.46882759  1  -0.069095  0  -0.245567  -0.392455  0  3.934553  0
C  C168  1  0.28531045  0.16507397  0.59106648  1  -0.092751  0  -0.24482  -0.38829  0  3.884353  0
C  C169  1  0.71468096  0.83492815  0.40892979  1  -0.092595  0  -0.244847  -0.388376  0  3.884103  0
C  C170  1  0.75086315  0.08171102  0.35134924  1  0.057442  0  -0.086202  0.085789  0  3.881165  0
C  C171  1  0.24913356  0.91828149  0.64865264  1  0.057366  0  -0.086295  0.085835  0  3.881253  0
C  C172  1  0.70796805  0.09439657  0.26176673  1  -0.081484  0  -0.244002  -0.38847  0  3.921234  0
C  C173  1  0.29204510  0.90558966  0.73823282  1  -0.081321  0  -0.244013  -0.388646  0  3.921049  0
C  C174  1  0.60486504  0.06312376  0.39397518  1  -0.071549  0  -0.2476  -0.387464  0  3.913849  0
C  C175  1  0.39513011  0.93687512  0.60602548  1  -0.071557  0  -0.2476  -0.387408  0  3.913761  0
C  C176  1  0.86675886  0.38525888  0.50324966  1  0.0225  0  0.001174  0.043102  0  3.98056  0
C  C177  1  0.13323438  0.61473746  0.49675100  1  0.024174  0  0.001185  0.043213  0  3.980396  0
C  C178  1  0.75497122  0.41526947  0.45339605  1  -0.037372  0  -0.062685  -0.07507  0  3.91103  0
C  C179  1  0.24501829  0.58472931  0.54660982  1  -0.039604  0  -0.062675  -0.075203  0  3.911068  0
C  C180  1  0.70707666  0.49165880  0.48373330  1  -0.066462  0  -0.082887  -0.123957  0  4.001612  0
C  C181  1  0.29291272  0.50833930  0.51627549  1  -0.066123  0  -0.082826  -0.123746  0  4.001609  0
C  C182  1  0.77242155  0.53815282  0.56286254  1  0.473557  0  0.039292  0.067218  0  3.952853  0
C  C183  1  0.22757242  0.46184149  0.43714568  1  0.473191  0  0.039205  0.06707  0  3.952917  0
C  C184  1  0.92694493  0.43682365  0.58169156  1  0.463092  0  0.041342  0.027398  0  3.901529  0
C  C185  1  0.07304754  0.56317015  0.41830916  1  0.463385  0  0.041361  0.027436  0  3.901328  0
N  N186  1  0.79394680  0.53368789  0.79176917  1  -1.247619  0  -0.3333  -0.213293  0  3.618902  0
N  N187  1  0.20606441  0.46631024  0.20823821  1  -1.247517  0  -0.333268  -0.213375  0  3.618982  0
N  N188  1  0.43286188  0.76781858  0.17401010  1  -1.230908  0  -0.302082  -0.331796  0  3.402481  0
N  N189  1  0.56714200  0.23219050  0.82598695  1  -1.23117  0  -0.301982  -0.33169  0  3.402464  0
N  N190  1  0.25623026  0.93725760  0.27051255  1  -1.213154  0  -0.303005  -0.31178  0  3.331744  0
N  N191  1  0.74376537  0.06274325  0.72948426  1  -1.213649  0  -0.303007  -0.311799  0  3.331719  0
N  N192  1  0.06612796  0.06908016  0.41096928  1  -1.213917  0  -0.298442  -0.323147  0  3.374287  0
N  N193  1  0.93386940  0.93091879  0.58902723  1  -1.213896  0  -0.298453  -0.323205  0  3.374218  0
N  N194  1  0.88176123  0.51084540  0.61024285  1  -1.269911  0  -0.33215  -0.208119  0  3.622699  0
N  N195  1  0.11823269  0.48914894  0.38976294  1  -1.269716  0  -0.332166  -0.208227  0  3.622655  0
Cl  Cl196  1  0.97232371  0.71318087  0.74110060  1  -0.659043  0  -0.327241  -0.49559  0  1.215855  0
Cl  Cl197  1  0.02767562  0.28681297  0.25889802  1  -0.658943  0  -0.327266  -0.495638  0  1.215873  0
Cl  Cl198  1  0.18871837  0.51972789  0.75764263  1  -0.670339  0  -0.332587  -0.504947  0  1.175799  0
Cl  Cl199  1  0.81129368  0.48027350  0.24235934  1  -0.670456  0  -0.3326  -0.504944  0  1.175675  0
