# generated using pymatgen
data_AgH7C8(NO2)2
_symmetry_space_group_name_H-M   'P 1'
_cell_length_a   7.12511281
_cell_length_b   10.33470313
_cell_length_c   12.75828191
_cell_angle_alpha   109.74039347
_cell_angle_beta   89.99987064
_cell_angle_gamma   90.00035474
_symmetry_Int_Tables_number   1
_chemical_formula_structural   AgH7C8(NO2)2
_chemical_formula_sum   'Ag4 H28 C32 N8 O16'
_cell_volume   884.25786853
_cell_formula_units_Z   4
loop_
 _symmetry_equiv_pos_site_id
 _symmetry_equiv_pos_as_xyz
  1  'x, y, z'
loop_
 _atom_site_type_symbol
 _atom_site_label
 _atom_site_symmetry_multiplicity
 _atom_site_fract_x
 _atom_site_fract_y
 _atom_site_fract_z
 _atom_site_occupancy
 _atom_site_hle17_bader_spin_density
 _atom_site_hle17_ddec_charge
 _atom_site_hle17_ddec_spin_density
 _atom_site_hle17_ddec_sum_bond_order
 _atom_site_hle17_magmom
 _atom_site_hse06_10hf_bader_spin_density
 _atom_site_hse06_10hf_ddec_charge
 _atom_site_hse06_10hf_ddec_spin_density
 _atom_site_hse06_10hf_ddec_sum_bond_order
 _atom_site_hse06_10hf_magmom
 _atom_site_hse06_bader_spin_density
 _atom_site_hse06_ddec_charge
 _atom_site_hse06_ddec_spin_density
 _atom_site_hse06_ddec_sum_bond_order
 _atom_site_hse06_magmom
 _atom_site_pbe_bader_spin_density
 _atom_site_pbe_cm5_charge
 _atom_site_pbe_ddec_charge
 _atom_site_pbe_ddec_spin_density
 _atom_site_pbe_ddec_sum_bond_order
 _atom_site_pbe_magmom
Ag  Ag0  1  0.95054508  0.42454626  0.87863760  1  0  0.513739  0  1.467849  0  0  0.368298  0  1.922724  0  0  0.398082  0  1.87192  0  0  0.466667  0.350467  0  1.956365  0
Ag  Ag1  1  0.45054437  0.57545416  0.62136178  1  0  0.513742  0  1.467838  0  0  0.368317  0  1.922714  0  0  0.398103  0  1.871905  0  0  0.466673  0.350488  0  1.956357  0
Ag  Ag2  1  0.04944857  0.57545568  0.12136385  1  0  0.513737  0  1.467915  0  0  0.36834  0  1.922739  0  0  0.39812  0  1.871939  0  0  0.466696  0.35051  0  1.956383  0
Ag  Ag3  1  0.54945911  0.42454572  0.37863676  1  0  0.513701  0  1.467863  0  0  0.368259  0  1.922742  0  0  0.398039  0  1.87194  0  0  0.466657  0.350426  0  1.956385  0
H  H4  1  0.62424100  0.63602679  0.88904709  1  0  0.107123  0  0.954928  0  0  0.113258  0  1.020442  0  0  0.115715  0  1.01933  0  0  0.120573  0.111435  0  1.021577  0
H  H5  1  0.12424264  0.36397122  0.61095361  1  0  0.107138  0  0.954857  0  0  0.113274  0  1.020368  0  0  0.115732  0  1.019254  0  0  0.120576  0.111451  0  1.021502  0
H  H6  1  0.37574142  0.36397514  0.11094965  1  0  0.107108  0  0.954967  0  0  0.113218  0  1.020517  0  0  0.115672  0  1.01941  0  0  0.120541  0.111394  0  1.02165  0
H  H7  1  0.87575802  0.63602559  0.38904802  1  0  0.107136  0  0.954931  0  0  0.113259  0  1.020471  0  0  0.115716  0  1.01936  0  0  0.120572  0.111436  0  1.021605  0
H  H8  1  0.62952618  0.21241646  0.81506971  1  0  0.105957  0  0.955827  0  0  0.110656  0  1.024214  0  0  0.11389  0  1.021202  0  0  0.122948  0.108212  0  1.026711  0
H  H9  1  0.12952571  0.78758364  0.68493234  1  0  0.10596  0  0.955836  0  0  0.110654  0  1.024223  0  0  0.113886  0  1.021216  0  0  0.122949  0.108211  0  1.026719  0
H  H10  1  0.37047729  0.78758446  0.18493225  1  0  0.105972  0  0.955834  0  0  0.11067  0  1.024212  0  0  0.113903  0  1.021202  0  0  0.12295  0.108227  0  1.026709  0
H  H11  1  0.87048057  0.21241523  0.31506985  1  0  0.105987  0  0.955794  0  0  0.110673  0  1.024181  0  0  0.113907  0  1.02117  0  0  0.122959  0.108229  0  1.026676  0
H  H12  1  0.27698858  0.20929977  0.81772248  1  0  0.093128  0  0.941319  0  0  0.101006  0  1.005197  0  0  0.103069  0  1.004225  0  0  0.121941  0.099326  0  1.006399  0
H  H13  1  0.77698916  0.79069890  0.68227978  1  0  0.093136  0  0.941333  0  0  0.101042  0  1.005173  0  0  0.103098  0  1.004209  0  0  0.121972  0.099365  0  1.006372  0
H  H14  1  0.72301208  0.79069396  0.18227831  1  0  0.093103  0  0.941425  0  0  0.101016  0  1.005262  0  0  0.103074  0  1.004296  0  0  0.121985  0.099363  0  1.006438  0
H  H15  1  0.22302133  0.20930408  0.31772431  1  0  0.093103  0  0.941386  0  0  0.101025  0  1.005223  0  0  0.103082  0  1.004258  0  0  0.121959  0.099375  0  1.006392  0
H  H16  1  0.26915889  0.63314721  0.88734998  1  0  0.108957  0  0.956072  0  0  0.115222  0  1.020781  0  0  0.117919  0  1.018811  0  0  0.12315  0.113263  0  1.022415  0
H  H17  1  0.76915875  0.36685039  0.61265043  1  0  0.10896  0  0.956084  0  0  0.115162  0  1.020866  0  0  0.117857  0  1.018901  0  0  0.123137  0.113203  0  1.022498  0
H  H18  1  0.73082493  0.36684444  0.11264554  1  0  0.109046  0  0.95597  0  0  0.115256  0  1.020779  0  0  0.117949  0  1.018815  0  0  0.123168  0.113296  0  1.022412  0
H  H19  1  0.23083770  0.63315156  0.38735181  1  0  0.108936  0  0.956103  0  0  0.115134  0  1.020872  0  0  0.117827  0  1.018912  0  0  0.123126  0.113175  0  1.022503  0
H  H20  1  0.11639824  0.06624582  0.10653024  1  0  0.110003  0  0.962178  0  0  0.120265  0  1.022624  0  0  0.123377  0  1.021489  0  0  0.103583  0.117941  0  1.023822  0
H  H21  1  0.61639223  0.93375895  0.39347278  1  0  0.109995  0  0.962244  0  0  0.120272  0  1.022654  0  0  0.123382  0  1.021526  0  0  0.103579  0.117948  0  1.023852  0
H  H22  1  0.88361365  0.93376127  0.89347811  1  0  0.109956  0  0.962139  0  0  0.120316  0  1.022482  0  0  0.123428  0  1.021344  0  0  0.103554  0.117992  0  1.023682  0
H  H23  1  0.38361124  0.06623989  0.60652313  1  0  0.109922  0  0.962175  0  0  0.120281  0  1.022514  0  0  0.123394  0  1.021378  0  0  0.103542  0.117958  0  1.023713  0
H  H24  1  0.95952041  0.09126792  0.81654230  1  0  0.397375  0  0.909118  0  0  0.363432  0  0.992704  0  0  0.376891  0  0.974659  0  0  0.292122  0.354025  0  1.002168  0
H  H25  1  0.45951121  0.90873048  0.68345731  1  0  0.397363  0  0.909186  0  0  0.363415  0  0.992776  0  0  0.376873  0  0.974696  0  0  0.292117  0.354008  0  1.002243  0
H  H26  1  0.04048447  0.90873505  0.18346101  1  0  0.397407  0  0.909075  0  0  0.363468  0  0.992657  0  0  0.376927  0  0.974607  0  0  0.292141  0.354064  0  1.002118  0
H  H27  1  0.54048104  0.09126837  0.31653860  1  0  0.39733  0  0.909169  0  0  0.363422  0  0.992696  0  0  0.37688  0  0.974667  0  0  0.292146  0.354017  0  1.002157  0
H  H28  1  0.07492519  0.88239865  0.53738990  1  0  0.125867  0  0.946889  0  0  0.130426  0  1.013068  0  0  0.134666  0  1.011168  0  0  0.111451  0.127524  0  1.014088  0
H  H29  1  0.57492983  0.11760017  0.96260795  1  0  0.125829  0  0.946936  0  0  0.130411  0  1.01307  0  0  0.134648  0  1.01117  0  0  0.111453  0.127508  0  1.014089  0
H  H30  1  0.92507547  0.11760329  0.46261234  1  0  0.125852  0  0.946885  0  0  0.130416  0  1.013057  0  0  0.134654  0  1.011164  0  0  0.111449  0.127514  0  1.014077  0
H  H31  1  0.42507645  0.88239765  0.03738847  1  0  0.125855  0  0.946828  0  0  0.130397  0  1.013037  0  0  0.134636  0  1.011137  0  0  0.111439  0.127491  0  1.014062  0
C  C32  1  0.54504045  0.54112574  0.87345849  1  0  0.069829  0  3.653978  0  0  0.039259  0  3.908009  0  0  0.042232  0  3.924952  0  0  0.050128  0.03675  0  3.897383  0
C  C33  1  0.04504008  0.45887194  0.62654300  1  0  0.069714  0  3.653848  0  0  0.039147  0  3.907905  0  0  0.042124  0  3.924839  0  0  0.050083  0.036639  0  3.897281  0
C  C34  1  0.45494899  0.45887414  0.12654162  1  0  0.069856  0  3.65406  0  0  0.039395  0  3.907996  0  0  0.042365  0  3.924941  0  0  0.0502  0.036882  0  3.897374  0
C  C35  1  0.95496339  0.54112691  0.37345526  1  0  0.06975  0  3.653802  0  0  0.039177  0  3.90782  0  0  0.042152  0  3.924756  0  0  0.05012  0.036664  0  3.897203  0
C  C36  1  0.54876293  0.30669082  0.83349381  1  0  0.086685  0  3.642204  0  0  0.05598  0  3.890922  0  0  0.058625  0  3.908665  0  0  0.056185  0.054017  0  3.879376  0
C  C37  1  0.04876310  0.69330893  0.66650746  1  0  0.086651  0  3.642211  0  0  0.055967  0  3.890898  0  0  0.058613  0  3.908635  0  0  0.056183  0.054005  0  3.879354  0
C  C38  1  0.45123493  0.69330803  0.16650445  1  0  0.0866  0  3.642257  0  0  0.055914  0  3.890988  0  0  0.058559  0  3.90873  0  0  0.056188  0.053949  0  3.87945  0
C  C39  1  0.95124038  0.30669301  0.33349243  1  0  0.086635  0  3.642316  0  0  0.055964  0  3.891019  0  0  0.058609  0  3.908758  0  0  0.056168  0.054  0  3.879481  0
C  C40  1  0.35381724  0.30518073  0.83404796  1  0  0.092163  0  3.645673  0  0  0.061832  0  3.896333  0  0  0.064813  0  3.914184  0  0  0.056438  0.059361  0  3.885179  0
C  C41  1  0.85381843  0.69481825  0.66595429  1  0  0.092158  0  3.645737  0  0  0.061818  0  3.896377  0  0  0.064805  0  3.914231  0  0  0.056445  0.059347  0  3.885223  0
C  C42  1  0.64617501  0.69481710  0.16595473  1  0  0.092206  0  3.645771  0  0  0.061867  0  3.896401  0  0  0.06485  0  3.914258  0  0  0.056376  0.059374  0  3.885239  0
C  C43  1  0.14618224  0.30518163  0.33404504  1  0  0.092179  0  3.645882  0  0  0.061797  0  3.896539  0  0  0.064782  0  3.914397  0  0  0.056448  0.059304  0  3.885372  0
C  C44  1  0.34955863  0.53929534  0.87292144  1  0  0.072024  0  3.661204  0  0  0.040487  0  3.920512  0  0  0.043799  0  3.936053  0  0  0.050081  0.037464  0  3.911442  0
C  C45  1  0.84955787  0.46070157  0.62707789  1  0  0.072098  0  3.66112  0  0  0.040596  0  3.920458  0  0  0.043894  0  3.936024  0  0  0.050128  0.037574  0  3.911388  0
C  C46  1  0.65043081  0.46070146  0.12707783  1  0  0.071921  0  3.661008  0  0  0.040289  0  3.92048  0  0  0.043634  0  3.935962  0  0  0.050025  0.037266  0  3.911407  0
C  C47  1  0.15044981  0.53929728  0.37291724  1  0  0.07206  0  3.661018  0  0  0.04058  0  3.920333  0  0  0.043895  0  3.935867  0  0  0.050108  0.037555  0  3.911266  0
C  C48  1  0.01157540  0.19415438  0.01327805  1  0  0.677183  0  3.909244  0  0  0.633342  0  4.198624  0  0  0.666931  0  4.191299  0  0  0.197958  0.610931  0  4.202162  0
C  C49  1  0.51157909  0.80584892  0.48672470  1  0  0.677336  0  3.909195  0  0  0.633521  0  4.198501  0  0  0.667112  0  4.191169  0  0  0.198105  0.61111  0  4.202044  0
C  C50  1  0.98842246  0.80584757  0.98672576  1  0  0.677357  0  3.909147  0  0  0.633565  0  4.198458  0  0  0.667154  0  4.19113  0  0  0.198114  0.611155  0  4.202  0
C  C51  1  0.48842578  0.19415095  0.51327227  1  0  0.677218  0  3.909226  0  0  0.633428  0  4.198541  0  0  0.667018  0  4.19121  0  0  0.198059  0.611017  0  4.202083  0
C  C52  1  0.03603893  0.06014599  0.03239299  1  0  -0.168819  0  3.666464  0  0  -0.184155  0  3.913724  0  0  -0.190565  0  3.931967  0  0  -0.091398  -0.179996  0  3.901539  0
C  C53  1  0.53603408  0.93985741  0.46760898  1  0  -0.168973  0  3.666771  0  0  -0.184313  0  3.914012  0  0  -0.190727  0  3.932258  0  0  -0.091432  -0.180157  0  3.901831  0
C  C54  1  0.96397156  0.93985904  0.96761401  1  0  -0.16895  0  3.66658  0  0  -0.184395  0  3.913821  0  0  -0.190811  0  3.932065  0  0  -0.091384  -0.180241  0  3.901641  0
C  C55  1  0.46396939  0.06014349  0.53238827  1  0  -0.168791  0  3.666654  0  0  -0.184232  0  3.913871  0  0  -0.190646  0  3.932116  0  0  -0.091358  -0.180076  0  3.901691  0
C  C56  1  0.96134519  0.07522417  0.65764219  1  0  0.675587  0  3.833852  0  0  0.633502  0  4.123467  0  0  0.66692  0  4.113872  0  0  0.221976  0.610678  0  4.129714  0
C  C57  1  0.46134812  0.92477218  0.84235843  1  0  0.675739  0  3.833825  0  0  0.633553  0  4.123563  0  0  0.666971  0  4.113967  0  0  0.221979  0.610729  0  4.12981  0
C  C58  1  0.03865127  0.92477777  0.34236084  1  0  0.675431  0  3.833956  0  0  0.633354  0  4.12356  0  0  0.666772  0  4.113967  0  0  0.221915  0.610528  0  4.129805  0
C  C59  1  0.53865114  0.07522358  0.15763900  1  0  0.675458  0  3.833852  0  0  0.633403  0  4.12344  0  0  0.666819  0  4.113849  0  0  0.221964  0.610577  0  4.129684  0
C  C60  1  0.01283117  0.98163623  0.54505605  1  0  -0.154722  0  3.64444  0  0  -0.175097  0  3.897737  0  0  -0.180952  0  3.912481  0  0  -0.074487  -0.171283  0  3.888146  0
C  C61  1  0.51283494  0.01836233  0.95494102  1  0  -0.154774  0  3.644574  0  0  -0.175112  0  3.897864  0  0  -0.180964  0  3.912606  0  0  -0.074501  -0.171301  0  3.888277  0
C  C62  1  0.98716950  0.01836674  0.45494647  1  0  -0.154633  0  3.644499  0  0  -0.175015  0  3.897794  0  0  -0.180869  0  3.912538  0  0  -0.074493  -0.1712  0  3.888205  0
C  C63  1  0.48717134  0.98163548  0.04505069  1  0  -0.154594  0  3.644488  0  0  -0.174966  0  3.897766  0  0  -0.180818  0  3.91251  0  0  -0.074456  -0.171154  0  3.888176  0
N  N64  1  0.64445874  0.42517258  0.85620322  1  0  -0.23588  0  3.290366  0  0  -0.152106  0  3.558052  0  0  -0.166434  0  3.574627  0  0  -0.322854  -0.142348  0  3.546788  0
N  N65  1  0.14445794  0.57482655  0.64379776  1  0  -0.235813  0  3.290239  0  0  -0.152049  0  3.557925  0  0  -0.166375  0  3.574497  0  0  -0.322842  -0.142291  0  3.546661  0
N  N66  1  0.35553490  0.57482627  0.14379583  1  0  -0.23582  0  3.290548  0  0  -0.15211  0  3.558273  0  0  -0.166438  0  3.57485  0  0  -0.322873  -0.142356  0  3.547012  0
N  N67  1  0.85554273  0.42517334  0.35620392  1  0  -0.23579  0  3.290268  0  0  -0.152014  0  3.557947  0  0  -0.16634  0  3.57452  0  0  -0.322832  -0.142257  0  3.546683  0
N  N68  1  0.25396386  0.42177293  0.85599417  1  0  -0.247808  0  3.325675  0  0  -0.166731  0  3.604809  0  0  -0.180612  0  3.618751  0  0  -0.327665  -0.157377  0  3.595698  0
N  N69  1  0.75396409  0.57822460  0.64400546  1  0  -0.247815  0  3.325671  0  0  -0.166751  0  3.604841  0  0  -0.180629  0  3.618774  0  0  -0.327712  -0.157397  0  3.595733  0
N  N70  1  0.74603119  0.57822283  0.14400404  1  0  -0.247807  0  3.325652  0  0  -0.166714  0  3.604819  0  0  -0.180601  0  3.618765  0  0  -0.327688  -0.157364  0  3.59572  0
N  N71  1  0.24603938  0.42177426  0.35599516  1  0  -0.2478  0  3.325595  0  0  -0.166727  0  3.604752  0  0  -0.180607  0  3.618692  0  0  -0.327698  -0.157373  0  3.595649  0
O  O72  1  0.07211792  0.30020188  0.08774772  1  0  -0.623586  0  1.946148  0  0  -0.571679  0  2.192506  0  0  -0.597323  0  2.183624  0  0  -0.321981  -0.55443  0  2.19793  0
O  O73  1  0.57212237  0.69980271  0.41225452  1  0  -0.62361  0  1.946109  0  0  -0.57178  0  2.192561  0  0  -0.597423  0  2.183676  0  0  -0.322077  -0.55453  0  2.197985  0
O  O74  1  0.92788274  0.69980418  0.91225642  1  0  -0.623611  0  1.94609  0  0  -0.57179  0  2.192538  0  0  -0.59743  0  2.183649  0  0  -0.322066  -0.554543  0  2.197966  0
O  O75  1  0.42787830  0.30019819  0.58774116  1  0  -0.623617  0  1.946087  0  0  -0.571786  0  2.192518  0  0  -0.597429  0  2.183629  0  0  -0.322064  -0.554536  0  2.197944  0
O  O76  1  0.92803063  0.19539471  0.92348536  1  0  -0.670035  0  2.062363  0  0  -0.60124  0  2.311406  0  0  -0.629883  0  2.29823  0  0  -0.335662  -0.581256  0  2.318564  0
O  O77  1  0.42802654  0.80460458  0.57651452  1  0  -0.670046  0  2.062354  0  0  -0.601246  0  2.311382  0  0  -0.629887  0  2.298193  0  0  -0.335677  -0.581262  0  2.318543  0
O  O78  1  0.07197284  0.80460518  0.07651710  1  0  -0.670077  0  2.062337  0  0  -0.601278  0  2.311322  0  0  -0.62992  0  2.298143  0  0  -0.335707  -0.581295  0  2.318481  0
O  O79  1  0.57197412  0.19539426  0.42348217  1  0  -0.669962  0  2.062445  0  0  -0.601169  0  2.311395  0  0  -0.629807  0  2.29822  0  0  -0.335659  -0.581185  0  2.318553  0
O  O80  1  0.89708704  0.19178661  0.67529207  1  0  -0.566172  0  1.954826  0  0  -0.519372  0  2.185728  0  0  -0.540874  0  2.177552  0  0  -0.289625  -0.504747  0  2.191423  0
O  O81  1  0.39709462  0.80820537  0.82470743  1  0  -0.566268  0  1.954872  0  0  -0.51945  0  2.18588  0  0  -0.540955  0  2.177703  0  0  -0.289647  -0.504822  0  2.191571  0
O  O82  1  0.10290660  0.80821328  0.32470961  1  0  -0.566115  0  1.95477  0  0  -0.519311  0  2.185671  0  0  -0.540816  0  2.177496  0  0  -0.289595  -0.504685  0  2.191365  0
O  O83  1  0.60289903  0.19179142  0.17528792  1  0  -0.566129  0  1.954751  0  0  -0.519336  0  2.185646  0  0  -0.540842  0  2.177475  0  0  -0.289623  -0.504711  0  2.19134  0
O  O84  1  0.99329796  0.02024040  0.73646014  1  0  -0.568599  0  2.074351  0  0  -0.516536  0  2.29908  0  0  -0.540234  0  2.281977  0  0  -0.331532  -0.499903  0  2.308541  0
O  O85  1  0.49329048  0.97975608  0.76353968  1  0  -0.56861  0  2.074319  0  0  -0.516541  0  2.299144  0  0  -0.54024  0  2.282017  0  0  -0.331527  -0.499907  0  2.308605  0
O  O86  1  0.00670551  0.97976154  0.26354210  1  0  -0.568555  0  2.074394  0  0  -0.516518  0  2.299139  0  0  -0.540216  0  2.282033  0  0  -0.33151  -0.499886  0  2.308604  0
O  O87  1  0.50670317  0.02024174  0.23645830  1  0  -0.568483  0  2.074332  0  0  -0.516478  0  2.299058  0  0  -0.540175  0  2.281967  0  0  -0.331525  -0.499848  0  2.308525  0
