# generated using pymatgen
data_Zn2H8C37O13F8
_symmetry_space_group_name_H-M   'P 1'
_cell_length_a   15.78581514
_cell_length_b   15.96788767
_cell_length_c   30.28284516
_cell_angle_alpha   89.21104103
_cell_angle_beta   89.36246815
_cell_angle_gamma   89.98542484
_symmetry_Int_Tables_number   1
_chemical_formula_structural   Zn2H8C37O13F8
_chemical_formula_sum   'Zn4 H16 C74 O26 F16'
_cell_volume   7632.08317473
_cell_formula_units_Z   2
loop_
 _symmetry_equiv_pos_site_id
 _symmetry_equiv_pos_as_xyz
  1  'x, y, z'
loop_
 _atom_site_type_symbol
 _atom_site_label
 _atom_site_symmetry_multiplicity
 _atom_site_fract_x
 _atom_site_fract_y
 _atom_site_fract_z
 _atom_site_occupancy
 _atom_site_pbe_bader_charge
 _atom_site_pbe_bader_spin_density
 _atom_site_pbe_cm5_charge
 _atom_site_pbe_ddec_charge
 _atom_site_pbe_ddec_spin_density
 _atom_site_pbe_ddec_sum_bond_order
 _atom_site_pbe_magmom
Zn  Zn0  1  0.49858341  0.91118227  0.50048937  1  1.306375  0  0.72963  0.958424  0  2.129685  0
Zn  Zn1  1  0.50136136  0.08180383  0.49879406  1  1.309975  0  0.729399  0.957789  0  2.135154  0
Zn  Zn2  1  0.91448787  0.49886834  0.99996944  1  1.309422  0  0.725877  0.957401  0  2.146584  0
Zn  Zn3  1  0.08628881  0.50250199  0.99891743  1  1.302315  0  0.723581  0.950543  0  2.137778  0
H  H4  1  0.88318037  0.87602953  0.22505960  1  0.120953  0  0.105743  0.137272  0  1.008563  0
H  H5  1  0.83612834  0.07847818  0.77819971  1  0.645938  0  0.310632  0.358601  0  0.955529  0
H  H6  1  0.10918203  0.19906554  0.34827793  1  0.61771  0  0.340747  0.370811  0  0.8703  0
H  H7  1  0.77883127  0.83390867  0.68498319  1  0.620375  0  0.338433  0.370144  0  0.87234  0
H  H8  1  0.20789691  0.86485730  0.15026871  1  0.629233  0  0.33486  0.372667  0  0.882653  0
H  H9  1  0.83389069  0.23691675  0.81455300  1  0.635772  0  0.332566  0.36803  0  0.888307  0
H  H10  1  0.76970838  0.15670516  0.30874582  1  0.635045  0  0.340044  0.372402  0  0.870111  0
H  H11  1  0.11942216  0.79901892  0.65936924  1  0.625441  0  0.341416  0.372633  0  0.867563  0
H  H12  1  0.13218887  0.05311541  0.80015783  1  0.095344  0  0.107109  0.139823  0  1.002739  0
H  H13  1  0.11166943  0.22143593  0.15978714  1  0.074917  0  0.116788  0.135351  0  0.984667  0
H  H14  1  0.84156546  0.85071196  0.85929654  1  0.062269  0  0.115132  0.132907  0  0.986365  0
H  H15  1  0.85363403  0.14149344  0.13970906  1  0.133493  0  0.124763  0.156975  0  0.962226  0
H  H16  1  0.10702285  0.79140247  0.84299370  1  0.142117  0  0.125222  0.157539  0  0.960993  0
H  H17  1  0.18561065  0.14657402  0.20656690  1  0.614968  0  0.359271  0.391104  0  0.832124  0
H  H18  1  0.79487875  0.95576893  0.82012838  1  0.606166  0  0.357421  0.388509  0  0.837783  0
H  H19  1  0.15914777  0.00076669  0.20895026  1  0.64687  0  0.304771  0.349645  0  0.98589  0
C  C20  1  0.39020205  0.96353033  0.56106446  1  1.610655  0  0.226145  0.674015  0  4.208553  0
C  C21  1  0.93557088  0.14003700  0.79367540  1  0.548017  0  0.050379  0.108108  0  4.076644  0
C  C22  1  0.09399927  0.83653560  0.16207938  1  0.569229  0  0.089436  0.208594  0  4.036836  0
C  C23  1  0.94690771  0.20574718  0.82374138  1  0.563612  0  0.092071  0.212183  0  4.03961  0
C  C24  1  0.87114231  0.05076392  0.28941339  1  0.435102  0  0.072197  0.096482  0  4.072463  0
C  C25  1  0.08789724  0.92667584  0.69825046  1  0.474697  0  0.069438  0.091687  0  4.08171  0
C  C26  1  0.80515254  0.04467666  0.32049413  1  0.550437  0  0.084582  0.180205  0  4.103904  0
C  C27  1  0.15103590  0.91320084  0.66674193  1  0.559189  0  0.082137  0.178979  0  4.116029  0
C  C28  1  0.13236829  0.93415443  0.29520875  1  0.549317  0  0.081575  0.120044  0  4.094503  0
C  C29  1  0.91198991  0.08465836  0.69157541  1  0.526137  0  0.081072  0.121926  0  4.102031  0
C  C30  1  0.19205295  0.94517720  0.32823721  1  0.549774  0  0.100767  0.143744  0  4.068521  0
C  C31  1  0.60792719  0.95842963  0.43855163  1  1.644885  0  0.227619  0.675934  0  4.207769  0
C  C32  1  0.85198164  0.08954203  0.65853676  1  0.559767  0  0.099364  0.14442  0  4.080075  0
C  C33  1  0.00565253  0.99214340  0.24799310  1  0.091805  0  0.032166  0.133339  0  3.679058  0
C  C34  1  0.99579939  0.00964369  0.75232340  1  0.076446  0  0.033579  0.13574  0  3.668656  0
C  C35  1  0.38417996  0.03423088  0.44337521  1  1.646609  0  0.226004  0.672999  0  4.210337  0
C  C36  1  0.61762605  0.03005028  0.55496540  1  1.646955  0  0.226852  0.674494  0  4.207925  0
C  C37  1  0.92753737  0.98569981  0.27954831  1  0.135022  0  -0.016503  -0.114304  0  3.950115  0
C  C38  1  0.07340012  0.00193191  0.72046928  1  0.085664  0  -0.016987  -0.114641  0  3.944995  0
C  C39  1  0.79275222  0.96932286  0.34463237  1  0.258023  0  -0.01239  -0.053332  0  4.138137  0
C  C40  1  0.20538384  0.98012305  0.65460453  1  0.244161  0  -0.01161  -0.052754  0  4.137063  0
C  C41  1  0.07799179  0.99968229  0.28208786  1  0.078641  0  -0.021956  -0.122285  0  3.950714  0
C  C42  1  0.05813329  0.18087867  0.16829896  1  0.013294  0  -0.101309  -0.280869  0  3.95626  0
C  C43  1  0.92295161  0.01246266  0.71824582  1  0.097663  0  -0.021512  -0.124995  0  3.955562  0
C  C44  1  0.20156283  0.02097977  0.35065643  1  0.206675  0  -0.012199  -0.050521  0  4.136352  0
C  C45  1  0.79924202  0.02153134  0.64864981  1  0.237002  0  -0.013298  -0.053158  0  4.140967  0
C  C46  1  0.01408492  0.91645019  0.21667981  1  -0.010472  0  -0.021189  -0.02154  0  3.946719  0
C  C47  1  0.00232063  0.08591937  0.78330664  1  0.00644  0  -0.016353  -0.007246  0  3.928364  0
C  C48  1  0.02352609  0.78509029  0.15374934  1  0.186248  0  -0.020303  -0.091337  0  4.136481  0
C  C49  1  0.02463649  0.21747549  0.84534359  1  0.157106  0  -0.020064  -0.091731  0  4.130348  0
C  C50  1  0.99973666  0.06542816  0.21386855  1  0.075871  0  -0.021156  -0.158662  0  3.854612  0
C  C51  1  0.98775220  0.93763053  0.78699099  1  0.039307  0  -0.019012  -0.152158  0  3.85382  0
C  C52  1  0.98119773  0.19155028  0.14613308  1  0.102468  0  0.009452  0.190697  0  4.142063  0
C  C53  1  0.90268554  0.86103919  0.84293425  1  0.046177  0  -0.103484  -0.287035  0  3.960855  0
C  C54  1  0.97209607  0.81086220  0.85468450  1  0.160306  0  0.008536  0.189744  0  4.145506  0
C  C55  1  0.26380596  0.03017079  0.38313016  1  -0.432737  0  -0.018599  0.014684  0  4.086547  0
C  C56  1  0.73765014  0.02720129  0.61552235  1  -0.396424  0  -0.01914  0.013596  0  4.089353  0
C  C57  1  0.31869049  0.03593444  0.41082963  1  0.226032  0  -0.025965  -0.160691  0  3.91388  0
C  C58  1  0.68338729  0.03114898  0.58734457  1  0.21079  0  -0.026211  -0.160475  0  3.914124  0
C  C59  1  0.91504649  0.91216951  0.30517941  1  0.491464  0  0.080937  0.112832  0  4.092183  0
C  C60  1  0.12730719  0.06818615  0.70715131  1  0.529431  0  0.083191  0.119966  0  4.081573  0
C  C61  1  0.72780747  0.96120505  0.37657933  1  -0.447861  0  -0.018228  0.016224  0  4.085997  0
C  C62  1  0.27006044  0.97091942  0.62271265  1  -0.376548  0  -0.017621  0.01868  0  4.084188  0
C  C63  1  0.67193875  0.95609726  0.40450626  1  0.236208  0  -0.026668  -0.162469  0  3.912259  0
C  C64  1  0.92558872  0.07631050  0.18890400  1  0.425398  0  0.101675  0.272954  0  4.057518  0
C  C65  1  0.32584054  0.96391796  0.59493608  1  0.211162  0  -0.027138  -0.164785  0  3.916381  0
C  C66  1  0.02814711  0.72087143  0.12252143  1  -0.461765  0  -0.015016  0.03258  0  4.101108  0
C  C67  1  0.03477124  0.28136935  0.87632832  1  -0.290503  0  -0.015733  0.029238  0  4.100665  0
C  C68  1  0.03288088  0.66613870  0.09498146  1  0.237566  0  -0.041199  -0.192755  0  3.945251  0
C  C69  1  0.04038635  0.33629203  0.90367749  1  0.071099  0  -0.040036  -0.189332  0  3.93875  0
C  C70  1  0.97224944  0.25586752  0.11394985  1  -0.361483  0  -0.0214  -0.038422  0  4.062174  0
C  C71  1  0.96349601  0.74571204  0.88652285  1  -0.426665  0  -0.020688  -0.036074  0  4.062299  0
C  C72  1  0.96585235  0.31209107  0.08664960  1  0.134991  0  -0.03251  -0.162701  0  3.938253  0
C  C73  1  0.95780685  0.68846721  0.91334820  1  0.149626  0  -0.033838  -0.165969  0  3.940109  0
C  C74  1  0.96619516  0.37953905  0.05462273  1  1.646162  0  0.224444  0.673895  0  4.21385  0
C  C75  1  0.05622072  0.88910487  0.80197027  1  0.418104  0  0.100214  0.266454  0  4.054396  0
C  C76  1  0.96054163  0.62014901  0.94479500  1  1.658033  0  0.225371  0.674644  0  4.209009  0
C  C77  1  0.03256564  0.60460453  0.06113345  1  1.618262  0  0.222819  0.677105  0  4.206182  0
C  C78  1  0.03831056  0.39800348  0.93750126  1  1.625027  0  0.223131  0.675463  0  4.204822  0
C  C79  1  0.84965249  0.90374574  0.33593599  1  0.56596  0  0.099921  0.145277  0  4.08239  0
C  C80  1  0.19111839  0.05683707  0.67555167  1  0.541387  0  0.101  0.146822  0  4.067773  0
C  C81  1  0.08684879  0.07357763  0.30609966  1  0.419652  0  0.069224  0.100013  0  4.07788  0
C  C82  1  0.87126199  0.94478440  0.70709023  1  0.435266  0  0.069934  0.096994  0  4.074575  0
C  C83  1  0.14605781  0.08685132  0.33893765  1  0.607318  0  0.079905  0.172603  0  4.120585  0
C  C84  1  0.81070405  0.94728368  0.67370953  1  0.535134  0  0.080991  0.174416  0  4.109727  0
C  C85  1  0.94326314  0.86600336  0.20811519  1  0.086773  0  -0.123412  -0.284893  0  4.07971  0
C  C86  1  0.91404204  0.13684610  0.15651154  1  0.062091  0  -0.092828  -0.262882  0  3.938775  0
C  C87  1  0.07911613  0.09508990  0.80616860  1  0.050745  0  -0.122695  -0.288673  0  4.065555  0
C  C88  1  0.94868454  0.80294500  0.17761001  1  0.458034  0  0.100211  0.264371  0  4.069907  0
C  C89  1  0.08917435  0.15929311  0.83548101  1  0.471904  0  0.102384  0.267704  0  4.068556  0
C  C90  1  0.06687587  0.11890309  0.20069390  1  0.406688  0  0.076533  0.27326  0  4.069282  0
C  C91  1  0.91130242  0.92329154  0.81071698  1  0.456213  0  0.081365  0.290383  0  4.061981  0
C  C92  1  0.05068521  0.82678944  0.83412242  1  0.027677  0  -0.092864  -0.260847  0  3.933022  0
C  C93  1  0.08891223  0.90253592  0.19236755  1  0.499739  0  0.052475  0.117234  0  4.088884  0
O  O94  1  0.41521459  0.89164575  0.54686458  1  -1.100829  0  -0.311239  -0.517919  0  2.189054  0
O  O95  1  0.03369372  0.59568379  0.95621950  1  -1.143371  0  -0.303065  -0.558135  0  2.243665  0
O  O96  1  0.10532188  0.58071006  0.04563042  1  -1.103905  0  -0.316366  -0.523809  0  2.194118  0
O  O97  1  0.96557182  0.42148920  0.95099232  1  -1.15098  0  -0.30744  -0.563564  0  2.257337  0
O  O98  1  0.96082108  0.57826013  0.04850044  1  -1.154763  0  -0.308721  -0.566309  0  2.258495  0
O  O99  1  0.10995890  0.42490410  0.95211045  1  -1.108056  0  -0.316495  -0.52372  0  2.191288  0
O  O100  1  0.03828920  0.40683119  0.04237128  1  -1.146042  0  -0.30353  -0.559988  0  2.244717  0
O  O101  1  0.88925360  0.58954004  0.95862984  1  -1.11225  0  -0.313466  -0.521633  0  2.184708  0
O  O102  1  0.14528943  0.10758407  0.22020501  1  -1.125788  0  -0.333292  -0.445414  0  2.354779  0
O  O103  1  0.84194377  0.97287471  0.80097840  1  -1.124867  0  -0.333956  -0.452176  0  2.362624  0
O  O104  1  0.16415223  0.94519648  0.19542264  1  -1.172406  0  -0.371323  -0.474162  0  2.364511  0
O  O105  1  0.58398230  0.03052585  0.45073741  1  -1.144155  0  -0.303467  -0.560213  0  2.250195  0
O  O106  1  0.85482235  0.13718485  0.77651240  1  -1.170785  0  -0.372466  -0.476855  0  2.345197  0
O  O107  1  0.15234733  0.16110765  0.35985474  1  -1.091231  0  -0.332405  -0.394965  0  2.26815  0
O  O108  1  0.76199084  0.87964368  0.66517794  1  -1.0974  0  -0.331799  -0.393172  0  2.26733  0
O  O109  1  0.16766933  0.82272670  0.14007131  1  -1.117173  0  -0.337066  -0.405057  0  2.252872  0
O  O110  1  0.88113578  0.25742480  0.83232420  1  -1.126411  0  -0.33526  -0.400494  0  2.25596  0
O  O111  1  0.75230027  0.10994147  0.32791119  1  -1.109037  0  -0.330525  -0.392606  0  2.267279  0
O  O112  1  0.16173227  0.83793992  0.64730850  1  -1.097503  0  -0.330871  -0.394304  0  2.265747  0
O  O113  1  0.41317832  0.10521569  0.45646751  1  -1.105814  0  -0.311089  -0.517403  0  2.186824  0
O  O114  1  0.59074742  0.95871507  0.54356240  1  -1.146265  0  -0.30249  -0.558417  0  2.250912  0
O  O115  1  0.40841368  0.96240134  0.45651854  1  -1.145236  0  -0.302093  -0.558481  0  2.254368  0
O  O116  1  0.59109078  0.10164780  0.54033811  1  -1.092667  0  -0.311286  -0.518278  0  2.191024  0
O  O117  1  0.41710699  0.03450731  0.54764094  1  -1.150712  0  -0.303675  -0.560389  0  2.251239  0
O  O118  1  0.58039745  0.88774380  0.45414046  1  -1.104251  0  -0.311183  -0.518814  0  2.189213  0
O  O119  1  0.89372553  0.40656035  0.04125090  1  -1.106359  0  -0.312099  -0.520186  0  2.188674  0
F  F120  1  0.84200396  0.83098931  0.35864834  1  -0.610746  0  -0.083708  -0.098591  0  1.358542  0
F  F121  1  0.96116351  0.15270899  0.69755187  1  -0.615268  0  -0.079872  -0.091186  0  1.436669  0
F  F122  1  0.87902293  0.75553683  0.17010419  1  -0.630062  0  -0.104157  -0.139188  0  1.315219  0
F  F123  1  0.16444423  0.16733850  0.85625744  1  -0.626151  0  -0.102944  -0.13826  0  1.314959  0
F  F124  1  0.24259559  0.88010715  0.33869122  1  -0.610097  0  -0.082077  -0.095841  0  1.362982  0
F  F125  1  0.84451284  0.16155329  0.63524008  1  -0.609604  0  -0.083597  -0.098353  0  1.358457  0
F  F126  1  0.96881295  0.84661118  0.30132609  1  -0.615747  0  -0.080051  -0.091469  0  1.43875  0
F  F127  1  0.12088891  0.14628459  0.72347081  1  -0.613348  0  -0.081702  -0.094073  0  1.446923  0
F  F128  1  0.24053195  0.12291578  0.66478438  1  -0.612179  0  -0.082987  -0.098382  0  1.361245  0
F  F129  1  0.03564938  0.14092997  0.29693878  1  -0.628321  0  -0.092044  -0.126983  0  1.415476  0
F  F130  1  0.87520745  0.86885839  0.72870968  1  -0.626388  0  -0.09201  -0.130725  0  1.441365  0
F  F131  1  0.85848232  0.02472296  0.19730095  1  -0.634745  0  -0.086595  -0.125845  0  1.389559  0
F  F132  1  0.13535864  0.90307522  0.78473406  1  -0.630931  0  -0.090911  -0.135163  0  1.378137  0
F  F133  1  0.87590172  0.12769888  0.26884889  1  -0.625256  0  -0.089875  -0.130221  0  1.437767  0
F  F134  1  0.03815081  0.85807160  0.70763614  1  -0.629674  0  -0.091639  -0.128413  0  1.424072  0
F  F135  1  0.13030501  0.85750004  0.27705682  1  -0.610102  0  -0.080554  -0.0926  0  1.448455  0
