# generated using pymatgen
data_TmH16C18N3O8
_symmetry_space_group_name_H-M   'P 1'
_cell_length_a   9.54940583
_cell_length_b   11.41740291
_cell_length_c   11.54773983
_cell_angle_alpha   119.62892937
_cell_angle_beta   109.97087300
_cell_angle_gamma   89.99857383
_symmetry_Int_Tables_number   1
_chemical_formula_structural   TmH16C18N3O8
_chemical_formula_sum   'Tm2 H32 C36 N6 O16'
_cell_volume   1006.40396304
_cell_formula_units_Z   2
loop_
 _symmetry_equiv_pos_site_id
 _symmetry_equiv_pos_as_xyz
  1  'x, y, z'
loop_
 _atom_site_type_symbol
 _atom_site_label
 _atom_site_symmetry_multiplicity
 _atom_site_fract_x
 _atom_site_fract_y
 _atom_site_fract_z
 _atom_site_occupancy
 _atom_site_hle17_bader_spin_density
 _atom_site_hle17_ddec_charge
 _atom_site_hle17_ddec_spin_density
 _atom_site_hle17_ddec_sum_bond_order
 _atom_site_hle17_magmom
 _atom_site_hse06_10hf_bader_spin_density
 _atom_site_hse06_10hf_ddec_charge
 _atom_site_hse06_10hf_ddec_spin_density
 _atom_site_hse06_10hf_ddec_sum_bond_order
 _atom_site_hse06_10hf_magmom
 _atom_site_hse06_bader_spin_density
 _atom_site_hse06_ddec_charge
 _atom_site_hse06_ddec_spin_density
 _atom_site_hse06_ddec_sum_bond_order
 _atom_site_hse06_magmom
 _atom_site_pbe_bader_spin_density
 _atom_site_pbe_cm5_charge
 _atom_site_pbe_ddec_charge
 _atom_site_pbe_ddec_spin_density
 _atom_site_pbe_ddec_sum_bond_order
 _atom_site_pbe_magmom
Tm  Tm0  1  0.75000126  0.53205688  0.00000337  1  0  2.206964  0  1.802708  0  0  2.238635  0  1.958212  0  0  2.285702  0  1.916921  0  0  1.549149  2.114287  0  2.15442  0
Tm  Tm1  1  0.25000678  0.46794299  0.99999630  1  0  2.207078  0  1.802429  0  0  2.23869  0  1.958029  0  0  2.285761  0  1.916735  0  0  1.549158  2.114368  0  2.154193  0
H  H2  1  0.85258624  0.32205993  0.07638761  1  0  0.410053  0  0.90065  0  0  0.374085  0  0.974227  0  0  0.384441  0  0.959078  0  0  0.298474  0.365927  0  0.985948  0
H  H3  1  0.64740972  0.24567733  0.92362174  1  0  0.410105  0  0.900589  0  0  0.374103  0  0.974212  0  0  0.38446  0  0.959061  0  0  0.298469  0.365945  0  0.985932  0
H  H4  1  0.14741183  0.67794936  0.92361368  1  0  0.4101  0  0.900628  0  0  0.374133  0  0.974212  0  0  0.384491  0  0.959061  0  0  0.298463  0.365972  0  0.985937  0
H  H5  1  0.35259948  0.75433183  0.07638196  1  0  0.410181  0  0.900513  0  0  0.374196  0  0.974116  0  0  0.384553  0  0.958967  0  0  0.298491  0.366036  0  0.985841  0
H  H6  1  0.00340565  0.41759262  0.11972280  1  0  0.458341  0  0.819997  0  0  0.427978  0  0.886827  0  0  0.437943  0  0.871933  0  0  0.317539  0.420495  0  0.897635  0
H  H7  1  0.49659119  0.29786994  0.88026048  1  0  0.458321  0  0.820093  0  0  0.427935  0  0.886923  0  0  0.437904  0  0.872021  0  0  0.317462  0.420449  0  0.897738  0
H  H8  1  0.99658947  0.58241361  0.88027524  1  0  0.458279  0  0.820021  0  0  0.427918  0  0.886905  0  0  0.437884  0  0.872008  0  0  0.317489  0.420436  0  0.897711  0
H  H9  1  0.50341498  0.70213101  0.11973570  1  0  0.45829  0  0.820108  0  0  0.427925  0  0.886919  0  0  0.43789  0  0.872024  0  0  0.317481  0.420442  0  0.897728  0
H  H10  1  0.09665763  0.31922250  0.61705188  1  0  0.118565  0  0.962928  0  0  0.124361  0  1.029226  0  0  0.128039  0  1.027594  0  0  0.111462  0.121482  0  1.030935  0
H  H11  1  0.40333414  0.70216147  0.38293890  1  0  0.118631  0  0.962996  0  0  0.124464  0  1.029226  0  0  0.128142  0  1.027591  0  0  0.111512  0.121571  0  1.030949  0
H  H12  1  0.90334220  0.68076710  0.38294551  1  0  0.118507  0  0.962853  0  0  0.124354  0  1.029106  0  0  0.128034  0  1.027469  0  0  0.111479  0.121457  0  1.030832  0
H  H13  1  0.59666369  0.29783848  0.61706467  1  0  0.118513  0  0.962997  0  0  0.124316  0  1.02929  0  0  0.127991  0  1.027658  0  0  0.111444  0.121443  0  1.030991  0
H  H14  1  0.92586027  0.26342804  0.36826682  1  0  0.059078  0  0.951261  0  0  0.066268  0  1.016748  0  0  0.068535  0  1.016252  0  0  0.102989  0.064734  0  1.016829  0
H  H15  1  0.57413788  0.89514848  0.63172291  1  0  0.059068  0  0.951328  0  0  0.066236  0  1.016825  0  0  0.068504  0  1.016328  0  0  0.102972  0.064705  0  1.016902  0
H  H16  1  0.07414352  0.73658219  0.63173925  1  0  0.059173  0  0.951305  0  0  0.066315  0  1.016819  0  0  0.068581  0  1.016325  0  0  0.103011  0.064781  0  1.016899  0
H  H17  1  0.42586406  0.10485770  0.36827197  1  0  0.059138  0  0.951333  0  0  0.066297  0  1.016839  0  0  0.068563  0  1.016345  0  0  0.102997  0.064765  0  1.016918  0
H  H18  1  0.26268476  0.46051991  0.33725165  1  0  0.087479  0  0.943128  0  0  0.093125  0  1.009264  0  0  0.096479  0  1.006725  0  0  0.113407  0.09024  0  1.012137  0
H  H19  1  0.23731633  0.12327815  0.66275533  1  0  0.087424  0  0.943158  0  0  0.093022  0  1.00937  0  0  0.096377  0  1.006831  0  0  0.113343  0.090138  0  1.012242  0
H  H20  1  0.73732299  0.53947990  0.66275743  1  0  0.087433  0  0.943102  0  0  0.093078  0  1.009264  0  0  0.096433  0  1.006723  0  0  0.113361  0.090193  0  1.012137  0
H  H21  1  0.76267641  0.87672293  0.33724035  1  0  0.087471  0  0.94314  0  0  0.09312  0  1.009294  0  0  0.096475  0  1.006754  0  0  0.113368  0.090234  0  1.012166  0
H  H22  1  0.44800303  0.52492338  0.58634933  1  0  0.106141  0  0.961049  0  0  0.115507  0  1.023267  0  0  0.118814  0  1.02202  0  0  0.106843  0.112966  0  1.024734  0
H  H23  1  0.05199516  0.93858365  0.41365487  1  0  0.106104  0  0.961137  0  0  0.11547  0  1.023348  0  0  0.118778  0  1.022102  0  0  0.106831  0.112929  0  1.024814  0
H  H24  1  0.55199345  0.47506724  0.41365621  1  0  0.106088  0  0.961116  0  0  0.115463  0  1.023318  0  0  0.118767  0  1.022073  0  0  0.106837  0.112923  0  1.024783  0
H  H25  1  0.94800351  0.06140596  0.58634390  1  0  0.106153  0  0.96118  0  0  0.115529  0  1.023364  0  0  0.118834  0  1.02212  0  0  0.106882  0.112988  0  1.024829  0
H  H26  1  0.85549565  0.84150517  0.84560652  1  0  0.118026  0  0.973097  0  0  0.120785  0  1.042805  0  0  0.124414  0  1.041844  0  0  0.108947  0.117919  0  1.044372  0
H  H27  1  0.64449695  0.99590739  0.15439011  1  0  0.11802  0  0.973053  0  0  0.120791  0  1.04276  0  0  0.12442  0  1.041795  0  0  0.108929  0.117924  0  1.044327  0
H  H28  1  0.14449059  0.15848258  0.15437809  1  0  0.118034  0  0.973129  0  0  0.120815  0  1.042811  0  0  0.124441  0  1.041854  0  0  0.108967  0.117948  0  1.044378  0
H  H29  1  0.35551393  0.00410065  0.84562307  1  0  0.118055  0  0.972943  0  0  0.120837  0  1.042631  0  0  0.124465  0  1.04167  0  0  0.108968  0.117969  0  1.044199  0
H  H30  1  0.85019880  0.06569448  0.85090354  1  0  0.080649  0  0.914071  0  0  0.092778  0  0.968546  0  0  0.095012  0  0.96761  0  0  0.120414  0.091384  0  0.968952  0
H  H31  1  0.64978975  0.21480407  0.14910220  1  0  0.080682  0  0.914083  0  0  0.092793  0  0.968586  0  0  0.095023  0  0.96765  0  0  0.120429  0.091397  0  0.968991  0
H  H32  1  0.14978705  0.93429637  0.14908333  1  0  0.080571  0  0.914141  0  0  0.092791  0  0.968523  0  0  0.095026  0  0.967583  0  0  0.120379  0.091395  0  0.968925  0
H  H33  1  0.35022479  0.78520498  0.85090997  1  0  0.080629  0  0.914113  0  0  0.092787  0  0.968567  0  0  0.095014  0  0.967635  0  0  0.120431  0.091396  0  0.968961  0
C  C34  1  0.39612390  0.45059976  0.76207929  1  0  0.724076  0  3.836461  0  0  0.680671  0  4.127318  0  0  0.716089  0  4.114573  0  0  0.239399  0.655139  0  4.130511  0
C  C35  1  0.10387197  0.68851780  0.23791647  1  0  0.724025  0  3.836359  0  0  0.680616  0  4.127238  0  0  0.716035  0  4.114492  0  0  0.23935  0.655087  0  4.130432  0
C  C36  1  0.60388131  0.54939292  0.23791515  1  0  0.72407  0  3.83635  0  0  0.680476  0  4.127535  0  0  0.715888  0  4.114803  0  0  0.239314  0.654943  0  4.130727  0
C  C37  1  0.89612575  0.31147698  0.76208368  1  0  0.724119  0  3.836188  0  0  0.680701  0  4.127103  0  0  0.71612  0  4.114357  0  0  0.239392  0.655169  0  4.130299  0
C  C38  1  0.28649093  0.42384768  0.61835603  1  0  -0.0264  0  3.732982  0  0  -0.006013  0  3.955784  0  0  -0.010676  0  3.977761  0  0  -0.001896  -0.003673  0  3.943449  0
C  C39  1  0.21350700  0.80549250  0.38164039  1  0  -0.026414  0  3.733067  0  0  -0.006027  0  3.955884  0  0  -0.010694  0  3.977864  0  0  -0.001897  -0.003692  0  3.943547  0
C  C40  1  0.71350943  0.57614912  0.38164851  1  0  -0.026412  0  3.732719  0  0  -0.00599  0  3.955594  0  0  -0.010657  0  3.97758  0  0  -0.001847  -0.003651  0  3.943252  0
C  C41  1  0.78649300  0.19450227  0.61835871  1  0  -0.026446  0  3.732951  0  0  -0.006115  0  3.955851  0  0  -0.010784  0  3.97783  0  0  -0.001911  -0.003779  0  3.943517  0
C  C42  1  0.13694948  0.35154671  0.55759102  1  0  -0.114243  0  3.699397  0  0  -0.135896  0  3.94081  0  0  -0.139874  0  3.962246  0  0  -0.077925  -0.133337  0  3.927648  0
C  C43  1  0.36304904  0.79395280  0.44239790  1  0  -0.114241  0  3.699553  0  0  -0.135929  0  3.940962  0  0  -0.139906  0  3.962399  0  0  -0.07794  -0.133355  0  3.92781  0
C  C44  1  0.86304969  0.64845008  0.44241575  1  0  -0.114199  0  3.699152  0  0  -0.135881  0  3.940516  0  0  -0.139858  0  3.961955  0  0  -0.078007  -0.133307  0  3.927362  0
C  C45  1  0.63695327  0.20604612  0.55759700  1  0  -0.114131  0  3.699433  0  0  -0.135766  0  3.940852  0  0  -0.139743  0  3.962291  0  0  -0.077857  -0.133211  0  3.927685  0
C  C46  1  0.04282075  0.32132197  0.41958178  1  0  0.100203  0  3.763953  0  0  0.079595  0  4.020735  0  0  0.082723  0  4.039541  0  0  0.036024  0.077659  0  4.007818  0
C  C47  1  0.45717641  0.90173371  0.58041171  1  0  0.10015  0  3.764096  0  0  0.079563  0  4.020882  0  0  0.08269  0  4.039689  0  0  0.036008  0.077624  0  4.007965  0
C  C48  1  0.95718202  0.67868927  0.58042967  1  0  0.100076  0  3.763807  0  0  0.079511  0  4.020571  0  0  0.082637  0  4.03938  0  0  0.035991  0.077573  0  4.007654  0
C  C49  1  0.54282225  0.09827252  0.41958047  1  0  0.100159  0  3.764233  0  0  0.079578  0  4.020975  0  0  0.082706  0  4.03978  0  0  0.036005  0.07764  0  4.008061  0
C  C50  1  0.22967210  0.43147287  0.40287772  1  0  0.099914  0  3.732561  0  0  0.078871  0  3.990011  0  0  0.082235  0  4.007782  0  0  0.036876  0.07666  0  3.978714  0
C  C51  1  0.27032574  0.02860033  0.59712157  1  0  0.100004  0  3.732455  0  0  0.078968  0  3.98993  0  0  0.082332  0  4.0077  0  0  0.036918  0.076757  0  3.978632  0
C  C52  1  0.77033020  0.56852189  0.59711946  1  0  0.099921  0  3.732531  0  0  0.078865  0  3.989983  0  0  0.082225  0  4.007758  0  0  0.036921  0.076656  0  3.978682  0
C  C53  1  0.72966983  0.97140379  0.40288077  1  0  0.099778  0  3.732436  0  0  0.078714  0  3.989906  0  0  0.082077  0  4.007677  0  0  0.036815  0.076505  0  3.978606  0
C  C54  1  0.33266428  0.46659801  0.54008674  1  0  -0.13996  0  3.738799  0  0  -0.160039  0  3.979408  0  0  -0.164712  0  4.001619  0  0  -0.087098  -0.157411  0  3.965548  0
C  C55  1  0.16733401  0.92651608  0.45991393  1  0  -0.13993  0  3.73895  0  0  -0.159982  0  3.979522  0  0  -0.164658  0  4.00174  0  0  -0.087053  -0.157353  0  3.965661  0
C  C56  1  0.66732967  0.53339061  0.45991100  1  0  -0.13985  0  3.738652  0  0  -0.159914  0  3.97923  0  0  -0.164586  0  4.001448  0  0  -0.087062  -0.157287  0  3.965369  0
C  C57  1  0.83267052  0.07347963  0.54009218  1  0  -0.139917  0  3.738828  0  0  -0.159964  0  3.979428  0  0  -0.164635  0  4.001641  0  0  -0.087102  -0.157335  0  3.965567  0
C  C58  1  0.74999266  0.77259130  0.00000162  1  0  0.638083  0  3.923418  0  0  0.590109  0  4.227548  0  0  0.624094  0  4.218075  0  0  0.191528  0.568248  0  4.224422  0
C  C59  1  0.25000172  0.22740768  0.99999612  1  0  0.637987  0  3.923619  0  0  0.59  0  4.227737  0  0  0.623981  0  4.218273  0  0  0.191478  0.568139  0  4.224615  0
C  C60  1  0.74999792  0.90388665  0.00000191  1  0  0.006889  0  3.710358  0  0  0.028639  0  3.932074  0  0  0.025796  0  3.952647  0  0  0.008288  0.028972  0  3.919696  0
C  C61  1  0.25000230  0.09611551  0.00000182  1  0  0.006917  0  3.710368  0  0  0.028716  0  3.932018  0  0  0.025879  0  3.95259  0  0  0.008304  0.029049  0  3.919643  0
C  C62  1  0.80864239  0.92249593  0.91323847  1  0  -0.127886  0  3.703524  0  0  -0.14793  0  3.950794  0  0  -0.153156  0  3.972197  0  0  -0.075591  -0.145044  0  3.937685  0
C  C63  1  0.69134899  0.00925826  0.08675976  1  0  -0.127762  0  3.70366  0  0  -0.147797  0  3.950882  0  0  -0.153023  0  3.972283  0  0  -0.075461  -0.144911  0  3.937773  0
C  C64  1  0.19135693  0.07750506  0.08676173  1  0  -0.127921  0  3.703583  0  0  -0.147997  0  3.950854  0  0  -0.153227  0  3.972259  0  0  -0.075617  -0.145111  0  3.937746  0
C  C65  1  0.30864751  0.99074068  0.91324206  1  0  -0.12789  0  3.703632  0  0  -0.147959  0  3.950884  0  0  -0.153188  0  3.972286  0  0  -0.075535  -0.145073  0  3.937777  0
C  C66  1  0.80588258  0.04588037  0.91651257  1  0  0.130867  0  3.705251  0  0  0.098718  0  3.962838  0  0  0.103964  0  3.979537  0  0  0.054192  0.096143  0  3.95101  0
C  C67  1  0.69410783  0.12937482  0.08349145  1  0  0.130706  0  3.705394  0  0  0.098559  0  3.962992  0  0  0.103811  0  3.979686  0  0  0.054042  0.095985  0  3.951165  0
C  C68  1  0.19411610  0.95411755  0.08348248  1  0  0.130906  0  3.705283  0  0  0.098671  0  3.962879  0  0  0.103918  0  3.979579  0  0  0.054179  0.096094  0  3.951045  0
C  C69  1  0.30589507  0.87062716  0.91651031  1  0  0.130833  0  3.705371  0  0  0.098643  0  3.96298  0  0  0.103899  0  3.979668  0  0  0.054068  0.096065  0  3.951153  0
N  N70  1  0.08723254  0.35797156  0.34151428  1  0  -0.295111  0  3.079586  0  0  -0.259637  0  3.347698  0  0  -0.268194  0  3.36253  0  0  -0.317883  -0.25405  0  3.33804  0
N  N71  1  0.41276708  0.01645793  0.65848323  1  0  -0.295139  0  3.079539  0  0  -0.259641  0  3.347616  0  0  -0.268197  0  3.362445  0  0  -0.317898  -0.254053  0  3.337958  0
N  N72  1  0.91276611  0.64203149  0.65848847  1  0  -0.295037  0  3.079605  0  0  -0.259548  0  3.347675  0  0  -0.268105  0  3.362509  0  0  -0.317831  -0.25396  0  3.338016  0
N  N73  1  0.58723249  0.98354824  0.34151612  1  0  -0.295067  0  3.079659  0  0  -0.259575  0  3.347745  0  0  -0.268133  0  3.362576  0  0  -0.31784  -0.253987  0  3.338084  0
N  N74  1  0.74999451  0.14772967  0.00000199  1  0  -0.321  0  3.192109  0  0  -0.25148  0  3.430245  0  0  -0.2642  0  3.443964  0  0  -0.302302  -0.242866  0  3.421164  0
N  N75  1  0.25000573  0.85227029  0.99999625  1  0  -0.321024  0  3.192033  0  0  -0.251487  0  3.430205  0  0  -0.264206  0  3.443925  0  0  -0.302289  -0.24286  0  3.421113  0
O  O76  1  0.53535466  0.49746377  0.80224129  1  0  -0.696055  0  2.040981  0  0  -0.669241  0  2.284115  0  0  -0.693582  0  2.27267  0  0  -0.372459  -0.640028  0  2.295272  0
O  O77  1  0.96464143  0.69522942  0.19776505  1  0  -0.696032  0  2.040851  0  0  -0.669239  0  2.284003  0  0  -0.693582  0  2.272561  0  0  -0.372507  -0.640024  0  2.295155  0
O  O78  1  0.46465221  0.50252584  0.19774608  1  0  -0.696072  0  2.041216  0  0  -0.669209  0  2.284492  0  0  -0.693547  0  2.273047  0  0  -0.372426  -0.639997  0  2.295646  0
O  O79  1  0.03535508  0.30477368  0.80223448  1  0  -0.696103  0  2.040909  0  0  -0.66928  0  2.284056  0  0  -0.693626  0  2.272612  0  0  -0.372513  -0.64007  0  2.295214  0
O  O80  1  0.34295361  0.42001394  0.83314318  1  0  -0.762177  0  2.132881  0  0  -0.734188  0  2.392433  0  0  -0.759058  0  2.377458  0  0  -0.419669  -0.700261  0  2.403636  0
O  O81  1  0.15704034  0.58686845  0.16684545  1  0  -0.762135  0  2.132848  0  0  -0.734166  0  2.392437  0  0  -0.75902  0  2.377429  0  0  -0.419582  -0.700239  0  2.403636  0
O  O82  1  0.65705287  0.57999318  0.16685870  1  0  -0.762183  0  2.132648  0  0  -0.734161  0  2.392337  0  0  -0.759028  0  2.377372  0  0  -0.419642  -0.700228  0  2.403539  0
O  O83  1  0.84295184  0.41313056  0.83315078  1  0  -0.762189  0  2.132727  0  0  -0.734235  0  2.392349  0  0  -0.759085  0  2.377331  0  0  -0.419641  -0.700302  0  2.403556  0
O  O84  1  0.89457562  0.41343007  0.09838165  1  0  -0.918637  0  1.964662  0  0  -0.894746  0  2.166049  0  0  -0.912475  0  2.134452  0  0  -0.649981  -0.869261  0  2.194066  0
O  O85  1  0.60542796  0.31505742  0.90162932  1  0  -0.918684  0  1.964676  0  0  -0.894781  0  2.166119  0  0  -0.912508  0  2.134513  0  0  -0.649901  -0.869293  0  2.194133  0
O  O86  1  0.10542048  0.58658125  0.90162784  1  0  -0.918624  0  1.964618  0  0  -0.894759  0  2.166035  0  0  -0.91249  0  2.13443  0  0  -0.649933  -0.869278  0  2.194052  0
O  O87  1  0.39458054  0.68494866  0.09837093  1  0  -0.918726  0  1.964612  0  0  -0.894853  0  2.166057  0  0  -0.912578  0  2.134451  0  0  -0.649962  -0.869372  0  2.194076  0
O  O88  1  0.67868165  0.75092127  0.06506048  1  0  -0.678395  0  2.017635  0  0  -0.64796  0  2.261099  0  0  -0.672624  0  2.251715  0  0  -0.367391  -0.621967  0  2.267607  0
O  O89  1  0.82130219  0.68585224  0.93494358  1  0  -0.678385  0  2.017537  0  0  -0.647938  0  2.260975  0  0  -0.6726  0  2.251579  0  0  -0.367361  -0.621945  0  2.267489  0
O  O90  1  0.32130673  0.24907573  0.93493276  1  0  -0.678292  0  2.017611  0  0  -0.647857  0  2.261095  0  0  -0.672518  0  2.251716  0  0  -0.367326  -0.621864  0  2.267605  0
O  O91  1  0.17869467  0.31414359  0.06505683  1  0  -0.678356  0  2.017656  0  0  -0.647899  0  2.261084  0  0  -0.672557  0  2.251692  0  0  -0.367335  -0.62191  0  2.2676  0
