# generated using pymatgen
data_Cd3H30C28(N5O)4
_symmetry_space_group_name_H-M   'P 1'
_cell_length_a   6.96248260
_cell_length_b   12.07528220
_cell_length_c   12.76648999
_cell_angle_alpha   86.27891444
_cell_angle_beta   73.31538623
_cell_angle_gamma   82.47598533
_symmetry_Int_Tables_number   1
_chemical_formula_structural   Cd3H30C28(N5O)4
_chemical_formula_sum   'Cd3 H30 C28 N20 O4'
_cell_volume   1018.86791447
_cell_formula_units_Z   1
loop_
 _symmetry_equiv_pos_site_id
 _symmetry_equiv_pos_as_xyz
  1  'x, y, z'
loop_
 _atom_site_type_symbol
 _atom_site_label
 _atom_site_symmetry_multiplicity
 _atom_site_fract_x
 _atom_site_fract_y
 _atom_site_fract_z
 _atom_site_occupancy
 _atom_site_hle17_bader_spin_density
 _atom_site_hle17_ddec_charge
 _atom_site_hle17_ddec_spin_density
 _atom_site_hle17_ddec_sum_bond_order
 _atom_site_hle17_magmom
 _atom_site_hse06_10hf_bader_spin_density
 _atom_site_hse06_10hf_ddec_charge
 _atom_site_hse06_10hf_ddec_spin_density
 _atom_site_hse06_10hf_ddec_sum_bond_order
 _atom_site_hse06_10hf_magmom
 _atom_site_hse06_bader_spin_density
 _atom_site_hse06_ddec_charge
 _atom_site_hse06_ddec_spin_density
 _atom_site_hse06_ddec_sum_bond_order
 _atom_site_hse06_magmom
 _atom_site_pbe_bader_spin_density
 _atom_site_pbe_cm5_charge
 _atom_site_pbe_ddec_charge
 _atom_site_pbe_ddec_spin_density
 _atom_site_pbe_ddec_sum_bond_order
 _atom_site_pbe_magmom
Cd  Cd0  1  0.00000203  0.00000006  0.99999946  1  0  1.027205  0  1.85353  0  0  0.804318  0  2.340235  0  0  0.856061  0  2.292369  0  0  0.755198  0.767651  0  2.372806  0
Cd  Cd1  1  0.56286712  0.87656589  0.93058023  1  0  1.079343  0  1.760563  0  0  0.892189  0  2.202777  0  0  0.942504  0  2.155627  0  0  0.751195  0.856567  0  2.23495  0
Cd  Cd2  1  0.43713686  0.12343432  0.06942009  1  0  1.079329  0  1.76059  0  0  0.892183  0  2.20279  0  0  0.942493  0  2.155646  0  0  0.751191  0.85656  0  2.234965  0
H  H3  1  0.72516515  0.07700352  0.87827723  1  0  0.374719  0  0.94907  0  0  0.337515  0  1.025187  0  0  0.34845  0  1.009889  0  0  0.257764  0.329827  0  1.035878  0
H  H4  1  0.27483048  0.92300086  0.12172019  1  0  0.374683  0  0.949121  0  0  0.337488  0  1.025258  0  0  0.348424  0  1.009962  0  0  0.257783  0.329802  0  1.035946  0
H  H5  1  0.28589047  0.70530604  0.02420736  1  0  0.389649  0  0.921974  0  0  0.351458  0  1.004109  0  0  0.361806  0  0.989411  0  0  0.284322  0.344086  0  1.01457  0
H  H6  1  0.71412645  0.29469004  0.97578966  1  0  0.389566  0  0.921984  0  0  0.351397  0  1.004162  0  0  0.361744  0  0.989465  0  0  0.28432  0.344024  0  1.014625  0
H  H7  1  0.51525636  0.65844753  0.01516546  1  0  0.394435  0  0.897376  0  0  0.359854  0  0.981966  0  0  0.370646  0  0.966219  0  0  0.290618  0.352186  0  0.993141  0
H  H8  1  0.48475335  0.34155350  0.98483708  1  0  0.394437  0  0.897335  0  0  0.359852  0  0.981959  0  0  0.370643  0  0.966214  0  0  0.290615  0.352183  0  0.993135  0
H  H9  1  0.26544324  0.19329245  0.28197617  1  0  0.303776  0  0.932272  0  0  0.284812  0  1.002126  0  0  0.292576  0  0.995406  0  0  0.292428  0.279269  0  1.006855  0
H  H10  1  0.73455999  0.80670441  0.71802365  1  0  0.303822  0  0.93225  0  0  0.284856  0  1.002109  0  0  0.292619  0  0.995391  0  0  0.292436  0.279311  0  1.006839  0
H  H11  1  0.07507762  0.14445751  0.24616922  1  0  0.296006  0  0.962631  0  0  0.275248  0  1.035832  0  0  0.28258  0  1.030575  0  0  0.286269  0.270017  0  1.039553  0
H  H12  1  0.92493044  0.85554436  0.75383195  1  0  0.296032  0  0.962831  0  0  0.275281  0  1.036011  0  0  0.282613  0  1.030754  0  0  0.286293  0.270046  0  1.039733  0
H  H13  1  0.82782168  0.22274594  0.78345946  1  0  0.296658  0  0.929548  0  0  0.280618  0  0.995985  0  0  0.286738  0  0.99115  0  0  0.293037  0.2763  0  0.999352  0
H  H14  1  0.17217540  0.77725264  0.21653101  1  0  0.296624  0  0.92952  0  0  0.280599  0  0.995924  0  0  0.286715  0  0.991099  0  0  0.293021  0.27628  0  0.999291  0
H  H15  1  0.57338979  0.24609676  0.81946864  1  0  0.28618  0  0.954506  0  0  0.268879  0  1.026308  0  0  0.274497  0  1.022171  0  0  0.290143  0.264894  0  1.029221  0
H  H16  1  0.42659912  0.75391095  0.18052883  1  0  0.286189  0  0.954443  0  0  0.268853  0  1.026282  0  0  0.274471  0  1.022147  0  0  0.290162  0.26487  0  1.029194  0
H  H17  1  0.20353650  0.57992791  0.20660474  1  0  0.085399  0  0.965746  0  0  0.097275  0  1.025446  0  0  0.100465  0  1.023087  0  0  0.099644  0.094947  0  1.027174  0
H  H18  1  0.79645814  0.42007394  0.79339532  1  0  0.085386  0  0.965755  0  0  0.097254  0  1.025467  0  0  0.100408  0  1.02315  0  0  0.099629  0.094925  0  1.027197  0
H  H19  1  0.32596091  0.38804936  0.25539378  1  0  0.110499  0  0.931386  0  0  0.125405  0  0.980468  0  0  0.128453  0  0.979798  0  0  0.108027  0.123208  0  0.981121  0
H  H20  1  0.67403606  0.61195498  0.74461128  1  0  0.110554  0  0.931339  0  0  0.125413  0  0.980474  0  0  0.128461  0  0.979805  0  0  0.108037  0.123216  0  0.981124  0
H  H21  1  0.83951997  0.26446545  0.16825356  1  0  0.106318  0  0.963669  0  0  0.114239  0  1.028209  0  0  0.116285  0  1.029322  0  0  0.101754  0.112746  0  1.027576  0
H  H22  1  0.16048106  0.73553386  0.83175351  1  0  0.106336  0  0.963689  0  0  0.114257  0  1.028193  0  0  0.116306  0  1.029307  0  0  0.101766  0.112751  0  1.027596  0
H  H23  1  0.71991943  0.45489572  0.11748758  1  0  0.098385  0  0.952875  0  0  0.107391  0  1.017717  0  0  0.111024  0  1.014468  0  0  0.101263  0.104769  0  1.020047  0
H  H24  1  0.28008048  0.54510192  0.88251975  1  0  0.098361  0  0.952862  0  0  0.107415  0  1.017637  0  0  0.111049  0  1.014388  0  0  0.101256  0.104792  0  1.019968  0
H  H25  1  0.01301114  0.09219811  0.42523829  1  0  0.090262  0  0.968976  0  0  0.10195  0  1.030365  0  0  0.104511  0  1.028995  0  0  0.101975  0.100082  0  1.031434  0
H  H26  1  0.98699189  0.90781295  0.57476236  1  0  0.090232  0  0.96897  0  0  0.10197  0  1.030308  0  0  0.104534  0  1.028933  0  0  0.102001  0.100102  0  1.031376  0
H  H27  1  0.01848447  0.13623254  0.61008899  1  0  0.102069  0  0.954283  0  0  0.112148  0  1.015559  0  0  0.115138  0  1.014689  0  0  0.099892  0.110062  0  1.016214  0
H  H28  1  0.98149758  0.86377845  0.38991482  1  0  0.102111  0  0.954154  0  0  0.112194  0  1.015411  0  0  0.115181  0  1.014553  0  0  0.099929  0.110103  0  1.016079  0
H  H29  1  0.36962538  0.20730610  0.70566605  1  0  0.101465  0  0.951921  0  0  0.110358  0  1.01318  0  0  0.113177  0  1.013161  0  0  0.096493  0.108353  0  1.013324  0
H  H30  1  0.63036566  0.79267906  0.29432840  1  0  0.10152  0  0.951737  0  0  0.110369  0  1.013053  0  0  0.113188  0  1.013034  0  0  0.096472  0.108365  0  1.013194  0
H  H31  1  0.36521311  0.16312554  0.51947681  1  0  0.092083  0  0.951302  0  0  0.103477  0  1.012289  0  0  0.106579  0  1.009735  0  0  0.10145  0.101272  0  1.014083  0
H  H32  1  0.63478281  0.83685797  0.48051622  1  0  0.092147  0  0.951251  0  0  0.103466  0  1.012324  0  0  0.106568  0  1.009767  0  0  0.101414  0.101261  0  1.014118  0
C  C33  1  0.89959114  0.64253979  0.11480102  1  0  0.288679  0  3.792559  0  0  0.259217  0  4.074307  0  0  0.270497  0  4.089373  0  0  0.218955  0.251659  0  4.064154  0
C  C34  1  0.10041295  0.35746046  0.88519379  1  0  0.288908  0  3.792446  0  0  0.259387  0  4.074229  0  0  0.270662  0  4.089292  0  0  0.219012  0.251826  0  4.064077  0
C  C35  1  0.95549677  0.53146837  0.15598559  1  0  -0.037253  0  3.83586  0  0  -0.020824  0  4.076708  0  0  -0.026164  0  4.101804  0  0  -0.02539  -0.017458  0  4.05976  0
C  C36  1  0.04449391  0.46853095  0.84401677  1  0  -0.037378  0  3.836031  0  0  -0.020864  0  4.076785  0  0  -0.026188  0  4.101854  0  0  -0.025434  -0.017499  0  4.059835  0
C  C37  1  0.12386192  0.51080169  0.19749205  1  0  -0.072708  0  3.769282  0  0  -0.094809  0  4.015276  0  0  -0.093479  0  4.034763  0  0  -0.089271  -0.095388  0  4.001965  0
C  C38  1  0.87613168  0.48919851  0.80250434  1  0  -0.072704  0  3.769322  0  0  -0.094818  0  4.015271  0  0  -0.093463  0  4.034761  0  0  -0.089281  -0.095398  0  4.001959  0
C  C39  1  0.19234891  0.40315041  0.22580424  1  0  -0.170459  0  3.733837  0  0  -0.184309  0  3.976952  0  0  -0.190851  0  3.997973  0  0  -0.09919  -0.180001  0  3.962759  0
C  C40  1  0.80765017  0.59685145  0.77419750  1  0  -0.17049  0  3.733845  0  0  -0.184276  0  3.976992  0  0  -0.190814  0  3.997999  0  0  -0.099162  -0.179969  0  3.962798  0
C  C41  1  0.09393851  0.31248811  0.21321067  1  0  0.304614  0  3.799048  0  0  0.300827  0  4.043222  0  0  0.310017  0  4.065848  0  0  0.090846  0.29456  0  4.027744  0
C  C42  1  0.90606369  0.68751289  0.78679379  1  0  0.304656  0  3.798986  0  0  0.300775  0  4.043293  0  0  0.309965  0  4.06592  0  0  0.090711  0.294508  0  4.027809  0
C  C43  1  0.91930500  0.33345644  0.17725665  1  0  -0.173419  0  3.711409  0  0  -0.19339  0  3.967121  0  0  -0.200091  0  3.989833  0  0  -0.105447  -0.188965  0  3.951851  0
C  C44  1  0.08068963  0.66654451  0.82275286  1  0  -0.173458  0  3.711664  0  0  -0.193391  0  3.96742  0  0  -0.200099  0  3.990143  0  0  -0.105427  -0.188968  0  3.95214  0
C  C45  1  0.85148660  0.44135763  0.14881946  1  0  -0.06119  0  3.739118  0  0  -0.086179  0  3.991668  0  0  -0.084685  0  4.010504  0  0  -0.086997  -0.08687  0  3.97877  0
C  C46  1  0.14852023  0.55863675  0.85117839  1  0  -0.061144  0  3.739284  0  0  -0.086169  0  3.991776  0  0  -0.084686  0  4.010621  0  0  -0.086902  -0.086859  0  3.978871  0
C  C47  1  0.69019985  0.09937972  0.34844739  1  0  0.272164  0  3.799211  0  0  0.249763  0  4.079295  0  0  0.259495  0  4.094953  0  0  0.214818  0.243199  0  4.068787  0
C  C48  1  0.30980524  0.90061547  0.65155303  1  0  0.272056  0  3.799447  0  0  0.249678  0  4.079522  0  0  0.259411  0  4.09518  0  0  0.21483  0.243116  0  4.06901  0
C  C49  1  0.68882805  0.12527256  0.45854551  1  0  -0.032707  0  3.826698  0  0  -0.016494  0  4.064248  0  0  -0.021957  0  4.089491  0  0  -0.024222  -0.012999  0  4.047182  0
C  C50  1  0.31116576  0.87472592  0.54145877  1  0  -0.032534  0  3.826526  0  0  -0.016348  0  4.064079  0  0  -0.021811  0  4.089322  0  0  -0.024232  -0.012855  0  4.047014  0
C  C51  1  0.87173951  0.11891710  0.48584710  1  0  -0.067793  0  3.772187  0  0  -0.090784  0  4.019324  0  0  -0.089136  0  4.039517  0  0  -0.087842  -0.091584  0  4.00545  0
C  C52  1  0.12826182  0.88108900  0.51414546  1  0  -0.067876  0  3.772432  0  0  -0.090896  0  4.019567  0  0  -0.089246  0  4.039754  0  0  -0.087872  -0.091695  0  4.005689  0
C  C53  1  0.87552808  0.14403809  0.58959537  1  0  -0.189834  0  3.749536  0  0  -0.205  0  3.998228  0  0  -0.212187  0  4.019257  0  0  -0.10624  -0.200267  0  3.984004  0
C  C54  1  0.12446386  0.85596874  0.41040874  1  0  -0.189999  0  3.749546  0  0  -0.205114  0  3.998307  0  0  -0.212303  0  4.019333  0  0  -0.106323  -0.200382  0  3.984077  0
C  C55  1  0.69507138  0.17661827  0.67010009  1  0  0.311833  0  3.826985  0  0  0.308302  0  4.070121  0  0  0.318035  0  4.091497  0  0  0.092049  0.301717  0  4.055429  0
C  C56  1  0.30493130  0.82338110  0.32989967  1  0  0.312067  0  3.826646  0  0  0.308376  0  4.070005  0  0  0.318112  0  4.091375  0  0  0.092072  0.301789  0  4.055311  0
C  C57  1  0.51100823  0.18284954  0.64355108  1  0  -0.18372  0  3.731561  0  0  -0.200073  0  3.983862  0  0  -0.207126  0  4.005359  0  0  -0.108067  -0.195404  0  3.969293  0
C  C58  1  0.48898706  0.81714225  0.35645413  1  0  -0.183969  0  3.731541  0  0  -0.200243  0  3.983916  0  0  -0.207301  0  4.005416  0  0  -0.108135  -0.195573  0  3.969346  0
C  C59  1  0.50840609  0.15783089  0.53931645  1  0  -0.066223  0  3.766229  0  0  -0.091741  0  4.019598  0  0  -0.089727  0  4.038713  0  0  -0.087827  -0.092782  0  4.006413  0
C  C60  1  0.49158340  0.84215335  0.46068925  1  0  -0.066188  0  3.766198  0  0  -0.091621  0  4.019515  0  0  -0.089605  0  4.03863  0  0  -0.087715  -0.092664  0  4.006332  0
N  N61  1  0.01753779  0.72672066  0.09785847  1  0  -0.331589  0  3.025687  0  0  -0.289022  0  3.290802  0  0  -0.300649  0  3.303436  0  0  -0.213309  -0.281154  0  3.282348  0
N  N62  1  0.98246427  0.27328120  0.90214361  1  0  -0.331686  0  3.025756  0  0  -0.28911  0  3.290886  0  0  -0.300736  0  3.303517  0  0  -0.213348  -0.281242  0  3.282437  0
N  N63  1  0.92036494  0.81152960  0.05337450  1  0  -0.09699  0  3.181058  0  0  -0.057653  0  3.47625  0  0  -0.063115  0  3.491744  0  0  -0.109217  -0.053625  0  3.465552  0
N  N64  1  0.07963758  0.18847061  0.94662368  1  0  -0.096987  0  3.181122  0  0  -0.057653  0  3.47631  0  0  -0.063117  0  3.491806  0  0  -0.109217  -0.053627  0  3.465612  0
N  N65  1  0.75170214  0.78126501  0.04413852  1  0  -0.128084  0  3.218378  0  0  -0.080803  0  3.506224  0  0  -0.087971  0  3.523407  0  0  -0.12011  -0.075625  0  3.494383  0
N  N66  1  0.24830057  0.21873436  0.95585968  1  0  -0.128018  0  3.218317  0  0  -0.080738  0  3.506162  0  0  -0.087904  0  3.523344  0  0  -0.120085  -0.07556  0  3.494321  0
N  N67  1  0.73221778  0.67574405  0.08197910  1  0  -0.33013  0  2.987093  0  0  -0.294548  0  3.253248  0  0  -0.305518  0  3.266382  0  0  -0.217882  -0.287128  0  3.244432  0
N  N68  1  0.26778604  0.32425700  0.91801962  1  0  -0.33024  0  2.987007  0  0  -0.294662  0  3.253204  0  0  -0.305634  0  3.266339  0  0  -0.217907  -0.287241  0  3.244388  0
N  N69  1  0.17730001  0.20261276  0.22891434  1  0  -0.673707  0  3.17499  0  0  -0.617188  0  3.410019  0  0  -0.639949  0  3.408617  0  0  -0.602437  -0.60097  0  3.410598  0
N  N70  1  0.82270473  0.79739079  0.77108489  1  0  -0.673799  0  3.17496  0  0  -0.617259  0  3.410011  0  0  -0.640023  0  3.40861  0  0  -0.602445  -0.601034  0  3.410594  0
N  N71  1  0.85777548  0.05613765  0.27171503  1  0  -0.30554  0  2.985544  0  0  -0.279725  0  3.261498  0  0  -0.28863  0  3.274175  0  0  -0.219475  -0.273667  0  3.252906  0
N  N72  1  0.14222821  0.94386426  0.72828053  1  0  -0.305481  0  2.985624  0  0  -0.279677  0  3.261565  0  0  -0.288587  0  3.274249  0  0  -0.219484  -0.273617  0  3.252967  0
N  N73  1  0.79824960  0.04895541  0.18213935  1  0  -0.124201  0  3.204183  0  0  -0.080905  0  3.503164  0  0  -0.087609  0  3.519009  0  0  -0.120394  -0.076023  0  3.492143  0
N  N74  1  0.20175331  0.95104313  0.81785807  1  0  -0.124281  0  3.204146  0  0  -0.080992  0  3.503135  0  0  -0.087696  0  3.51898  0  0  -0.120425  -0.07611  0  3.492116  0
N  N75  1  0.60381751  0.08537172  0.20338955  1  0  -0.136155  0  3.242415  0  0  -0.084397  0  3.534829  0  0  -0.092923  0  3.552244  0  0  -0.127902  -0.078251  0  3.522715  0
N  N76  1  0.39618655  0.91462851  0.79660684  1  0  -0.136051  0  3.242219  0  0  -0.084283  0  3.534616  0  0  -0.092808  0  3.552029  0  0  -0.127825  -0.078136  0  3.5225  0
N  N77  1  0.53055667  0.11795131  0.30675139  1  0  -0.299047  0  2.953404  0  0  -0.276842  0  3.223277  0  0  -0.285421  0  3.236628  0  0  -0.21736  -0.271038  0  3.214221  0
N  N78  1  0.46945152  0.88205061  0.69324349  1  0  -0.29909  0  2.953427  0  0  -0.276891  0  3.223294  0  0  -0.285472  0  3.236645  0  0  -0.217399  -0.271088  0  3.214235  0
N  N79  1  0.69823144  0.19777867  0.77563763  1  0  -0.661061  0  3.161438  0  0  -0.615777  0  3.383713  0  0  -0.634471  0  3.382986  0  0  -0.593814  -0.602375  0  3.383756  0
N  N80  1  0.30175813  0.80222567  0.22436385  1  0  -0.661087  0  3.161182  0  0  -0.615701  0  3.383557  0  0  -0.634396  0  3.382837  0  0  -0.593798  -0.6023  0  3.383597  0
O  O81  1  0.71139448  0.03064069  0.94636438  1  0  -0.954497  0  1.870593  0  0  -0.8404  0  2.144266  0  0  -0.876657  0  2.111706  0  0  -0.604281  -0.814606  0  2.165973  0
O  O82  1  0.28860356  0.96936620  0.05363412  1  0  -0.954402  0  1.870572  0  0  -0.840369  0  2.144168  0  0  -0.876626  0  2.111603  0  0  -0.604292  -0.814577  0  2.165877  0
O  O83  1  0.42519402  0.69689540  0.97353708  1  0  -0.801834  0  1.885599  0  0  -0.74222  0  2.093495  0  0  -0.763175  0  2.062356  0  0  -0.583851  -0.727348  0  2.115292  0
O  O84  1  0.57482456  0.30310652  0.02646094  1  0  -0.801754  0  1.885498  0  0  -0.742149  0  2.093465  0  0  -0.763101  0  2.062329  0  0  -0.583858  -0.727279  0  2.115268  0
