# generated using pymatgen
data_Nd2AgH14C24NO16
_symmetry_space_group_name_H-M   'P 1'
_cell_length_a   8.59021685
_cell_length_b   11.72166115
_cell_length_c   13.47694464
_cell_angle_alpha   103.59064037
_cell_angle_beta   98.33017857
_cell_angle_gamma   99.14404680
_symmetry_Int_Tables_number   1
_chemical_formula_structural   Nd2AgH14C24NO16
_chemical_formula_sum   'Nd4 Ag2 H28 C48 N2 O32'
_cell_volume   1278.56366677
_cell_formula_units_Z   2
loop_
 _symmetry_equiv_pos_site_id
 _symmetry_equiv_pos_as_xyz
  1  'x, y, z'
loop_
 _atom_site_type_symbol
 _atom_site_label
 _atom_site_symmetry_multiplicity
 _atom_site_fract_x
 _atom_site_fract_y
 _atom_site_fract_z
 _atom_site_occupancy
 _atom_site_hle17_bader_spin_density
 _atom_site_hle17_ddec_charge
 _atom_site_hle17_ddec_spin_density
 _atom_site_hle17_ddec_sum_bond_order
 _atom_site_hle17_magmom
 _atom_site_hse06_10hf_bader_spin_density
 _atom_site_hse06_10hf_ddec_charge
 _atom_site_hse06_10hf_ddec_spin_density
 _atom_site_hse06_10hf_ddec_sum_bond_order
 _atom_site_hse06_10hf_magmom
 _atom_site_hse06_bader_spin_density
 _atom_site_hse06_ddec_charge
 _atom_site_hse06_ddec_spin_density
 _atom_site_hse06_ddec_sum_bond_order
 _atom_site_hse06_magmom
 _atom_site_pbe_bader_spin_density
 _atom_site_pbe_cm5_charge
 _atom_site_pbe_ddec_charge
 _atom_site_pbe_ddec_spin_density
 _atom_site_pbe_ddec_sum_bond_order
 _atom_site_pbe_magmom
Nd  Nd0  1  0.54778442  0.38408752  0.09973778  1  0  2.35804  0  1.567635  0  0  2.260256  0  1.919814  0  0  2.299921  0  1.87758  0  0  1.463731  2.178494  0  2.045809  0
Nd  Nd1  1  0.45221358  0.61591295  0.90026164  1  0  2.358096  0  1.567554  0  0  2.260319  0  1.919726  0  0  2.299979  0  1.87749  0  0  1.46376  2.178623  0  2.045595  0
Nd  Nd2  1  0.81734758  0.11675900  0.11302328  1  0  2.364898  0  1.64372  0  0  2.263873  0  2.01404  0  0  2.302376  0  1.970099  0  0  1.519906  2.187994  0  2.132333  0
Nd  Nd3  1  0.18265350  0.88324414  0.88698069  1  0  2.364901  0  1.643692  0  0  2.263878  0  2.014009  0  0  2.30238  0  1.970065  0  0  1.51991  2.187902  0  2.132465  0
Ag  Ag4  1  0.06495624  0.45445743  0.18090461  1  0  0.618387  0  1.314471  0  0  0.482542  0  1.735957  0  0  0.51385  0  1.690552  0  0  0.509712  0.461192  0  1.764711  0
Ag  Ag5  1  0.93504271  0.54554213  0.81909619  1  0  0.618345  0  1.314442  0  0  0.482525  0  1.735828  0  0  0.513835  0  1.690422  0  0  0.509702  0.461174  0  1.764579  0
H  H6  1  0.34392966  0.17192188  0.90161361  1  0  0.452834  0  0.840028  0  0  0.417985  0  0.909271  0  0  0.430433  0  0.891216  0  0  0.303036  0.409141  0  0.921844  0
H  H7  1  0.65606737  0.82807503  0.09838053  1  0  0.452938  0  0.839887  0  0  0.418067  0  0.909172  0  0  0.430512  0  0.891121  0  0  0.303045  0.409223  0  0.921745  0
H  H8  1  0.24216473  0.23388294  0.98020934  1  0  0.438515  0  0.829137  0  0  0.410901  0  0.900106  0  0  0.420015  0  0.889846  0  0  0.316648  0.404503  0  0.906442  0
H  H9  1  0.75783843  0.76611485  0.01978925  1  0  0.438454  0  0.829268  0  0  0.410861  0  0.900195  0  0  0.419974  0  0.889919  0  0  0.31664  0.404462  0  0.906531  0
H  H10  1  0.73696221  0.64508765  0.13722108  1  0  0.443107  0  0.836339  0  0  0.418211  0  0.892902  0  0  0.428261  0  0.878214  0  0  0.308679  0.410962  0  0.90328  0
H  H11  1  0.26303224  0.35490833  0.86277708  1  0  0.443226  0  0.836238  0  0  0.418301  0  0.892798  0  0  0.428356  0  0.878101  0  0  0.308706  0.411026  0  0.903206  0
H  H12  1  0.84923152  0.56892243  0.08874544  1  0  0.426429  0  0.858564  0  0  0.393864  0  0.937616  0  0  0.404372  0  0.921867  0  0  0.299331  0.38618  0  0.94899  0
H  H13  1  0.15076625  0.43107712  0.91125673  1  0  0.426363  0  0.858573  0  0  0.393809  0  0.937662  0  0  0.404321  0  0.921911  0  0  0.299323  0.386125  0  0.949034  0
H  H14  1  0.91071572  0.05327427  0.68249690  1  0  0.11597  0  0.926278  0  0  0.127408  0  0.980207  0  0  0.131081  0  0.977478  0  0  0.117846  0.124671  0  0.982343  0
H  H15  1  0.08928491  0.94672703  0.31751332  1  0  0.115989  0  0.926232  0  0  0.12741  0  0.980178  0  0  0.131083  0  0.97745  0  0  0.117847  0.124676  0  0.982313  0
H  H16  1  0.72996493  0.13775092  0.56761881  1  0  0.092659  0  0.963808  0  0  0.104811  0  1.019819  0  0  0.107278  0  1.019776  0  0  0.103615  0.102972  0  1.020108  0
H  H17  1  0.27004037  0.86224593  0.43238794  1  0  0.092606  0  0.96392  0  0  0.104728  0  1.019962  0  0  0.107216  0  1.019892  0  0  0.103602  0.102893  0  1.020242  0
H  H18  1  0.58199086  0.29029415  0.64958054  1  0  0.103992  0  0.946144  0  0  0.113621  0  1.007799  0  0  0.116695  0  1.00555  0  0  0.109779  0.111321  0  1.009641  0
H  H19  1  0.41800973  0.70970272  0.35042133  1  0  0.103953  0  0.946175  0  0  0.113616  0  1.007791  0  0  0.116688  0  1.005543  0  0  0.109766  0.111285  0  1.009671  0
H  H20  1  0.56294427  0.02781146  0.44508620  1  0  0.088274  0  0.989397  0  0  0.097531  0  1.05644  0  0  0.100482  0  1.05417  0  0  0.103885  0.095386  0  1.058149  0
H  H21  1  0.43706198  0.97219353  0.55491120  1  0  0.088321  0  0.989426  0  0  0.097548  0  1.056476  0  0  0.1005  0  1.05421  0  0  0.103894  0.095404  0  1.058182  0
H  H22  1  0.38019297  0.15802352  0.52155811  1  0  0.110716  0  0.949337  0  0  0.121829  0  1.006383  0  0  0.12556  0  1.00386  0  0  0.106137  0.119117  0  1.008356  0
H  H23  1  0.61981728  0.84198327  0.47843781  1  0  0.110737  0  0.949291  0  0  0.121813  0  1.006374  0  0  0.125549  0  1.00384  0  0  0.106155  0.119102  0  1.008344  0
H  H24  1  0.21800455  0.25177442  0.40465995  1  0  0.088734  0  0.962519  0  0  0.099617  0  1.024337  0  0  0.102771  0  1.022361  0  0  0.10213  0.097329  0  1.025873  0
H  H25  1  0.78199981  0.74822788  0.59533598  1  0  0.088733  0  0.96254  0  0  0.099604  0  1.024369  0  0  0.102758  0  1.022391  0  0  0.102098  0.097319  0  1.025901  0
H  H26  1  0.98555675  0.27976843  0.45639890  1  0  0.120348  0  0.933239  0  0  0.134503  0  0.98512  0  0  0.13769  0  0.983732  0  0  0.118885  0.13204  0  0.986577  0
H  H27  1  0.01444573  0.72023565  0.54359797  1  0  0.120344  0  0.933206  0  0  0.134503  0  0.985089  0  0  0.137691  0  0.983701  0  0  0.118885  0.132035  0  0.986552  0
H  H28  1  0.06273287  0.37568011  0.65021676  1  0  0.097656  0  0.916784  0  0  0.111425  0  0.969502  0  0  0.113917  0  0.96747  0  0  0.128357  0.10947  0  0.97129  0
H  H29  1  0.93726772  0.62432128  0.34978012  1  0  0.097583  0  0.916808  0  0  0.111442  0  0.969445  0  0  0.113936  0  0.967407  0  0  0.128347  0.109487  0  0.971234  0
H  H30  1  0.68585835  0.55665352  0.64171377  1  0  0.084065  0  0.949529  0  0  0.093858  0  1.013699  0  0  0.095708  0  1.012118  0  0  0.120852  0.092358  0  1.015196  0
H  H31  1  0.31414083  0.44334696  0.35828428  1  0  0.084055  0  0.949538  0  0  0.093848  0  1.013699  0  0  0.095698  0  1.012119  0  0  0.120845  0.092348  0  1.015197  0
H  H32  1  0.61247203  0.48381006  0.44638532  1  0  0.118913  0  0.939559  0  0  0.132243  0  0.993297  0  0  0.135229  0  0.99274  0  0  0.11729  0.129984  0  0.994087  0
H  H33  1  0.38753305  0.51619491  0.55361346  1  0  0.118893  0  0.939585  0  0  0.132251  0  0.993283  0  0  0.135239  0  0.992725  0  0  0.117282  0.129991  0  0.994073  0
C  C34  1  0.60783416  0.40217849  0.84362792  1  0  0.668053  0  3.911241  0  0  0.621219  0  4.211718  0  0  0.656378  0  4.200292  0  0  0.20556  0.597745  0  4.212952  0
C  C35  1  0.39215960  0.59781928  0.15637278  1  0  0.668058  0  3.911508  0  0  0.62125  0  4.211942  0  0  0.65641  0  4.200518  0  0  0.205588  0.597777  0  4.213167  0
C  C36  1  0.86720425  0.32255039  0.98270648  1  0  0.711336  0  3.862996  0  0  0.65214  0  4.161706  0  0  0.688217  0  4.149555  0  0  0.231077  0.627784  0  4.165061  0
C  C37  1  0.13279188  0.67745184  0.01729685  1  0  0.711399  0  3.862734  0  0  0.652147  0  4.161537  0  0  0.688261  0  4.149346  0  0  0.231047  0.627796  0  4.164891  0
C  C38  1  0.97138087  0.10602686  0.88800396  1  0  0.704855  0  3.89616  0  0  0.653424  0  4.200709  0  0  0.689225  0  4.188498  0  0  0.229585  0.629249  0  4.204472  0
C  C39  1  0.02861975  0.89397444  0.11200552  1  0  0.705183  0  3.896038  0  0  0.653657  0  4.200733  0  0  0.68946  0  4.188518  0  0  0.229711  0.629476  0  4.204504  0
C  C40  1  0.69749612  0.30625023  0.80496646  1  0  -0.109723  0  3.723731  0  0  -0.091123  0  3.963516  0  0  -0.101127  0  3.984226  0  0  -0.016691  -0.085328  0  3.951069  0
C  C41  1  0.30250141  0.69374842  0.19503625  1  0  -0.109885  0  3.723807  0  0  -0.091307  0  3.963587  0  0  -0.101305  0  3.984307  0  0  -0.016759  -0.085511  0  3.951133  0
C  C42  1  0.80732229  0.26363086  0.86873728  1  0  -0.046255  0  3.647257  0  0  -0.044559  0  3.885416  0  0  -0.043121  0  3.901869  0  0  0.011145  -0.045519  0  3.874998  0
C  C43  1  0.19267618  0.73636689  0.13126681  1  0  -0.046241  0  3.647203  0  0  -0.044528  0  3.885337  0  0  -0.043129  0  3.901821  0  0  0.011138  -0.045489  0  3.874916  0
C  C44  1  0.87684120  0.16799267  0.82282791  1  0  -0.089822  0  3.705043  0  0  -0.074465  0  3.940768  0  0  -0.0843  0  3.963276  0  0  -0.008895  -0.068806  0  3.9272  0
C  C45  1  0.12316036  0.83200774  0.17718147  1  0  -0.089955  0  3.704934  0  0  -0.074516  0  3.940584  0  0  -0.084345  0  3.9631  0  0  -0.008896  -0.068855  0  3.927015  0
C  C46  1  0.85115226  0.12490321  0.71477547  1  0  -0.017022  0  3.682113  0  0  -0.045257  0  3.92949  0  0  -0.041558  0  3.947443  0  0  -0.06383  -0.047585  0  3.91806  0
C  C47  1  0.14884883  0.87509540  0.28523423  1  0  -0.016975  0  3.681977  0  0  -0.045219  0  3.929336  0  0  -0.04152  0  3.947289  0  0  -0.063778  -0.04755  0  3.917908  0
C  C48  1  0.74911455  0.17086470  0.65170583  1  0  -0.078488  0  3.766079  0  0  -0.090296  0  4.022056  0  0  -0.096163  0  4.044368  0  0  -0.086371  -0.086637  0  4.007158  0
C  C49  1  0.25088959  0.82913663  0.34830027  1  0  -0.078462  0  3.766244  0  0  -0.090258  0  4.022223  0  0  -0.096137  0  4.044528  0  0  -0.086401  -0.0866  0  4.007321  0
C  C50  1  0.66819987  0.25679475  0.69680554  1  0  -0.016572  0  3.70734  0  0  -0.050364  0  3.965905  0  0  -0.046095  0  3.983883  0  0  -0.068843  -0.053053  0  3.954302  0
C  C51  1  0.33180262  0.74320480  0.30319855  1  0  -0.016484  0  3.707239  0  0  -0.050276  0  3.965734  0  0  -0.046008  0  3.983718  0  0  -0.068809  -0.052943  0  3.954141  0
C  C52  1  0.22789530  0.24584231  0.20583011  1  0  0.721405  0  3.850444  0  0  0.671153  0  4.143851  0  0  0.7066  0  4.13207  0  0  0.233508  0.646645  0  4.149003  0
C  C53  1  0.77210599  0.75415728  0.79416646  1  0  0.721505  0  3.850296  0  0  0.671326  0  4.1436  0  0  0.706767  0  4.131816  0  0  0.233612  0.646816  0  4.148755  0
C  C54  1  0.42878936  0.09279441  0.11693839  1  0  0.760767  0  3.839161  0  0  0.706309  0  4.146053  0  0  0.742386  0  4.130414  0  0  0.250155  0.681749  0  4.150922  0
C  C55  1  0.57121028  0.90720340  0.88305766  1  0  0.760707  0  3.839119  0  0  0.706192  0  4.14608  0  0  0.742276  0  4.130426  0  0  0.250084  0.68163  0  4.150944  0
C  C56  1  0.60842594  0.96428904  0.25356750  1  0  0.661247  0  3.897743  0  0  0.612037  0  4.199229  0  0  0.644965  0  4.19134  0  0  0.21173  0.590073  0  4.201326  0
C  C57  1  0.39157014  0.03570428  0.74642802  1  0  0.661293  0  3.897778  0  0  0.61211  0  4.19921  0  0  0.645042  0  4.191319  0  0  0.211815  0.590145  0  4.201306  0
C  C58  1  0.31950821  0.18291177  0.27183021  1  0  -0.078845  0  3.716075  0  0  -0.064167  0  3.952516  0  0  -0.070813  0  3.973272  0  0  -0.004814  -0.060083  0  3.939328  0
C  C59  1  0.68049142  0.81708604  0.72816509  1  0  -0.078796  0  3.716027  0  0  -0.064213  0  3.95249  0  0  -0.070853  0  3.973243  0  0  -0.00483  -0.060129  0  3.939305  0
C  C60  1  0.42282189  0.11035951  0.23067783  1  0  -0.067499  0  3.670485  0  0  -0.063758  0  3.902055  0  0  -0.065126  0  3.920224  0  0  0.008062  -0.062969  0  3.890314  0
C  C61  1  0.57718175  0.88964009  0.76931896  1  0  -0.067442  0  3.670347  0  0  -0.063596  0  3.901802  0  0  -0.064966  0  3.919968  0  0  0.008059  -0.062807  0  3.890061  0
C  C62  1  0.50816304  0.05310445  0.29440381  1  0  -0.072608  0  3.726893  0  0  -0.056947  0  3.95926  0  0  -0.063446  0  3.981246  0  0  -0.009929  -0.052931  0  3.944724  0
C  C63  1  0.49183731  0.94689606  0.70559138  1  0  -0.072755  0  3.727103  0  0  -0.057116  0  3.95943  0  0  -0.063621  0  3.981422  0  0  -0.009946  -0.053099  0  3.944894  0
C  C64  1  0.49440635  0.07406105  0.39889320  1  0  -0.063353  0  3.750226  0  0  -0.090576  0  4.003967  0  0  -0.090078  0  4.024377  0  0  -0.081575  -0.090722  0  3.990317  0
C  C65  1  0.50559966  0.92594304  0.60110325  1  0  -0.063386  0  3.750324  0  0  -0.090596  0  4.004073  0  0  -0.090102  0  4.02449  0  0  -0.081592  -0.090743  0  3.990426  0
C  C66  1  0.39299845  0.14611596  0.44051895  1  0  -0.085572  0  3.756729  0  0  -0.098711  0  4.012559  0  0  -0.101934  0  4.03272  0  0  -0.092228  -0.096654  0  3.998932  0
C  C67  1  0.60701250  0.85388903  0.55947814  1  0  -0.085442  0  3.756576  0  0  -0.09853  0  4.012334  0  0  -0.101752  0  4.032497  0  0  -0.092164  -0.096474  0  3.998707  0
C  C68  1  0.30256049  0.19816257  0.37566371  1  0  -0.058287  0  3.732867  0  0  -0.083901  0  3.984915  0  0  -0.082774  0  4.003487  0  0  -0.078913  -0.084479  0  3.972596  0
C  C69  1  0.69744245  0.80183884  0.62433190  1  0  -0.058417  0  3.73293  0  0  -0.084007  0  3.984994  0  0  -0.082883  0  4.003569  0  0  -0.078902  -0.084587  0  3.972679  0
C  C70  1  0.75334047  0.32782538  0.32101172  1  0  0.706966  0  3.883633  0  0  0.65559  0  4.189444  0  0  0.690471  0  4.177143  0  0  0.236011  0.631863  0  4.193369  0
C  C71  1  0.24665566  0.67217689  0.67898643  1  0  0.706995  0  3.883541  0  0  0.655592  0  4.189361  0  0  0.690473  0  4.177058  0  0  0.236042  0.631862  0  4.193288  0
C  C72  1  0.79391432  0.37568806  0.43764395  1  0  0.000218  0  3.698769  0  0  0.022186  0  3.923363  0  0  0.019808  0  3.944734  0  0  0.012141  0.023229  0  3.910333  0
C  C73  1  0.20608699  0.62431600  0.56235504  1  0  0.000204  0  3.698632  0  0  0.022268  0  3.923136  0  0  0.01989  0  3.944506  0  0  0.012113  0.023312  0  3.910105  0
C  C74  1  0.92032856  0.34365569  0.49550505  1  0  -0.111338  0  3.685738  0  0  -0.134243  0  3.929151  0  0  -0.139657  0  3.950677  0  0  -0.06931  -0.130834  0  3.915341  0
C  C75  1  0.07967250  0.65634750  0.50449077  1  0  -0.111319  0  3.685526  0  0  -0.134277  0  3.92897  0  0  -0.139694  0  3.9505  0  0  -0.069269  -0.130863  0  3.915163  0
C  C76  1  0.96183798  0.39506972  0.60231161  1  0  0.121525  0  3.696149  0  0  0.091811  0  3.945884  0  0  0.097762  0  3.965627  0  0  0.055067  0.087836  0  3.932687  0
C  C77  1  0.03816308  0.60493347  0.39768495  1  0  0.121652  0  3.696017  0  0  0.091874  0  3.945775  0  0  0.097826  0  3.965521  0  0  0.055056  0.087899  0  3.932579  0
C  C78  1  0.75315289  0.49881320  0.59731782  1  0  0.115645  0  3.704703  0  0  0.083495  0  3.959665  0  0  0.089757  0  3.979373  0  0  0.046274  0.079209  0  3.946687  0
C  C79  1  0.24684511  0.50118727  0.40268160  1  0  0.115705  0  3.704722  0  0  0.083572  0  3.959681  0  0  0.089833  0  3.979391  0  0  0.046304  0.079285  0  3.946703  0
C  C80  1  0.70969684  0.45575268  0.48997643  1  0  -0.123681  0  3.707312  0  0  -0.144525  0  3.949149  0  0  -0.15095  0  3.971735  0  0  -0.07402  -0.140448  0  3.934661  0
C  C81  1  0.29030423  0.54425049  0.51002309  1  0  -0.123644  0  3.707351  0  0  -0.144532  0  3.949138  0  0  -0.150959  0  3.971727  0  0  -0.073996  -0.140454  0  3.934649  0
N  N82  1  0.87883896  0.47092781  0.65266762  1  0  -0.304912  0  3.347373  0  0  -0.218527  0  3.625596  0  0  -0.238784  0  3.645219  0  0  -0.341941  -0.204798  0  3.612359  0
N  N83  1  0.12115973  0.52907088  0.34733001  1  0  -0.305064  0  3.34739  0  0  -0.21871  0  3.625683  0  0  -0.238967  0  3.645305  0  0  -0.341987  -0.204982  0  3.612454  0
O  O84  1  0.61060571  0.44278481  0.94197435  1  0  -0.829441  0  2.104591  0  0  -0.780006  0  2.366114  0  0  -0.804257  0  2.352402  0  0  -0.423971  -0.751533  0  2.373916  0
O  O85  1  0.38939090  0.55721923  0.05802718  1  0  -0.82938  0  2.10466  0  0  -0.779958  0  2.366179  0  0  -0.804209  0  2.352466  0  0  -0.423927  -0.75149  0  2.373975  0
O  O86  1  0.52946642  0.44465203  0.77873111  1  0  -0.656973  0  1.958221  0  0  -0.613824  0  2.192371  0  0  -0.636118  0  2.181743  0  0  -0.360306  -0.593458  0  2.199701  0
O  O87  1  0.47052569  0.55534394  0.22126906  1  0  -0.656981  0  1.958395  0  0  -0.613842  0  2.19254  0  0  -0.636136  0  2.181913  0  0  -0.360338  -0.593463  0  2.199862  0
O  O88  1  0.78051567  0.30147119  0.04972952  1  0  -0.870711  0  2.19584  0  0  -0.81776  0  2.476515  0  0  -0.840855  0  2.456385  0  0  -0.453739  -0.788795  0  2.487528  0
O  O89  1  0.21948425  0.69853193  0.95027657  1  0  -0.87073  0  2.195824  0  0  -0.817799  0  2.476584  0  0  -0.840876  0  2.456365  0  0  -0.453712  -0.788812  0  2.487549  0
O  O90  1  0.00296153  0.39175750  0.00854223  1  0  -0.564214  0  2.104258  0  0  -0.48096  0  2.354678  0  0  -0.511046  0  2.344632  0  0  -0.278846  -0.460949  0  2.361972  0
O  O91  1  0.99703530  0.60824296  0.99145856  1  0  -0.564257  0  2.104184  0  0  -0.480963  0  2.354612  0  0  -0.511059  0  2.344541  0  0  -0.278845  -0.46097  0  2.361919  0
O  O92  1  0.99040504  0.14181330  0.98700390  1  0  -0.750391  0  2.071284  0  0  -0.707414  0  2.33761  0  0  -0.730854  0  2.323399  0  0  -0.385886  -0.68437  0  2.345449  0
O  O93  1  0.00959417  0.85818711  0.01300452  1  0  -0.75054  0  2.071112  0  0  -0.707524  0  2.337464  0  0  -0.730963  0  2.323248  0  0  -0.385946  -0.684467  0  2.345312  0
O  O94  1  0.02791320  0.01991905  0.84099942  1  0  -0.711449  0  2.052905  0  0  -0.670251  0  2.313703  0  0  -0.693303  0  2.299958  0  0  -0.397314  -0.647499  0  2.323269  0
O  O95  1  0.97208861  0.98008223  0.15901313  1  0  -0.711535  0  2.05291  0  0  -0.67029  0  2.313697  0  0  -0.69335  0  2.299962  0  0  -0.397339  -0.647553  0  2.323261  0
O  O96  1  0.30340838  0.30560652  0.15337390  1  0  -0.755355  0  2.064304  0  0  -0.703493  0  2.326593  0  0  -0.728893  0  2.313386  0  0  -0.393263  -0.679181  0  2.337037  0
O  O97  1  0.69659027  0.69438326  0.84661592  1  0  -0.755391  0  2.064341  0  0  -0.703565  0  2.326591  0  0  -0.728964  0  2.313381  0  0  -0.393359  -0.679265  0  2.337037  0
O  O98  1  0.08032363  0.24202923  0.20878021  1  0  -0.725025  0  2.088305  0  0  -0.674902  0  2.362624  0  0  -0.699606  0  2.347618  0  0  -0.382493  -0.65167  0  2.372576  0
O  O99  1  0.91967936  0.75798109  0.79122321  1  0  -0.725112  0  2.088187  0  0  -0.674982  0  2.362414  0  0  -0.699704  0  2.347451  0  0  -0.382561  -0.651736  0  2.372369  0
O  O100  1  0.54006344  0.16240939  0.09223760  1  0  -0.852757  0  2.156776  0  0  -0.807531  0  2.426175  0  0  -0.830952  0  2.410566  0  0  -0.433283  -0.77924  0  2.434798  0
O  O101  1  0.45993996  0.83758930  0.90776045  1  0  -0.852776  0  2.156855  0  0  -0.807499  0  2.42618  0  0  -0.830926  0  2.410566  0  0  -0.433244  -0.779208  0  2.434809  0
O  O102  1  0.31719771  0.01786688  0.05286843  1  0  -0.672603  0  2.003777  0  0  -0.631452  0  2.262369  0  0  -0.65456  0  2.249528  0  0  -0.365506  -0.609416  0  2.272836  0
O  O103  1  0.68280452  0.98213181  0.94713026  1  0  -0.67258  0  2.003659  0  0  -0.631398  0  2.262243  0  0  -0.654511  0  2.249398  0  0  -0.365433  -0.609377  0  2.272704  0
O  O104  1  0.63744192  0.96201291  0.16020533  1  0  -0.776724  0  2.068366  0  0  -0.716093  0  2.310413  0  0  -0.742326  0  2.298265  0  0  -0.399628  -0.69191  0  2.318088  0
O  O105  1  0.36256053  0.03798221  0.83979115  1  0  -0.776771  0  2.068416  0  0  -0.716163  0  2.310455  0  0  -0.742397  0  2.298303  0  0  -0.399699  -0.691966  0  2.318132  0
O  O106  1  0.65339924  0.89757884  0.30615929  1  0  -0.571717  0  1.856519  0  0  -0.53189  0  2.060434  0  0  -0.55332  0  2.053035  0  0  -0.317188  -0.517174  0  2.06504  0
O  O107  1  0.34658294  0.10241089  0.69383273  1  0  -0.571707  0  1.856411  0  0  -0.531888  0  2.060291  0  0  -0.553318  0  2.052892  0  0  -0.31724  -0.517171  0  2.064899  0
O  O108  1  0.67707825  0.38761789  0.27097313  1  0  -0.732076  0  2.022556  0  0  -0.694182  0  2.288762  0  0  -0.717405  0  2.27477  0  0  -0.391853  -0.669922  0  2.298225  0
O  O109  1  0.32291574  0.61238079  0.72902407  1  0  -0.732117  0  2.022512  0  0  -0.694232  0  2.288742  0  0  -0.717457  0  2.27475  0  0  -0.391878  -0.669984  0  2.298202  0
O  O110  1  0.80134671  0.23350515  0.28266175  1  0  -0.716428  0  2.062582  0  0  -0.676468  0  2.322768  0  0  -0.699647  0  2.309843  0  0  -0.383945  -0.653652  0  2.331263  0
O  O111  1  0.19864777  0.76649531  0.71733883  1  0  -0.716429  0  2.062546  0  0  -0.676502  0  2.322778  0  0  -0.699675  0  2.309846  0  0  -0.38396  -0.653671  0  2.331279  0
O  O112  1  0.33061949  0.25310035  0.94430471  1  0  -0.894508  0  1.827084  0  0  -0.84075  0  2.016862  0  0  -0.860221  0  1.987035  0  0  -0.600654  -0.821159  0  2.03952  0
O  O113  1  0.66937872  0.74689657  0.05568953  1  0  -0.894503  0  1.827067  0  0  -0.840762  0  2.016855  0  0  -0.860221  0  1.987032  0  0  -0.600673  -0.821183  0  2.039517  0
O  O114  1  0.77895091  0.57187600  0.14064457  1  0  -0.89115  0  1.843974  0  0  -0.855442  0  2.044574  0  0  -0.871913  0  2.010801  0  0  -0.614882  -0.837693  0  2.07075  0
O  O115  1  0.22104379  0.42812087  0.85935528  1  0  -0.891214  0  1.843889  0  0  -0.855469  0  2.044517  0  0  -0.871954  0  2.010718  0  0  -0.614909  -0.837702  0  2.070754  0
