# generated using pymatgen
data_HgH6C5(SN2)2
_symmetry_space_group_name_H-M   'P 1'
_cell_length_a   5.98600576
_cell_length_b   7.80300989
_cell_length_c   19.40344767
_cell_angle_alpha   89.99983469
_cell_angle_beta   89.99753636
_cell_angle_gamma   105.65073973
_symmetry_Int_Tables_number   1
_chemical_formula_structural   HgH6C5(SN2)2
_chemical_formula_sum   'Hg4 H24 C20 S8 N16'
_cell_volume   872.71053840
_cell_formula_units_Z   4
loop_
 _symmetry_equiv_pos_site_id
 _symmetry_equiv_pos_as_xyz
  1  'x, y, z'
loop_
 _atom_site_type_symbol
 _atom_site_label
 _atom_site_symmetry_multiplicity
 _atom_site_fract_x
 _atom_site_fract_y
 _atom_site_fract_z
 _atom_site_occupancy
 _atom_site_hle17_bader_spin_density
 _atom_site_hle17_ddec_charge
 _atom_site_hle17_ddec_spin_density
 _atom_site_hle17_ddec_sum_bond_order
 _atom_site_hle17_magmom
 _atom_site_hse06_10hf_bader_spin_density
 _atom_site_hse06_10hf_ddec_charge
 _atom_site_hse06_10hf_ddec_spin_density
 _atom_site_hse06_10hf_ddec_sum_bond_order
 _atom_site_hse06_10hf_magmom
 _atom_site_hse06_bader_spin_density
 _atom_site_hse06_ddec_charge
 _atom_site_hse06_ddec_spin_density
 _atom_site_hse06_ddec_sum_bond_order
 _atom_site_hse06_magmom
 _atom_site_pbe_bader_spin_density
 _atom_site_pbe_cm5_charge
 _atom_site_pbe_ddec_charge
 _atom_site_pbe_ddec_spin_density
 _atom_site_pbe_ddec_sum_bond_order
 _atom_site_pbe_magmom
Hg  Hg0  1  0.80836863  0.66764507  0.91374023  1  0  0.676779  0  2.036099  0  0  0.534945  0  2.512602  0  0  0.577939  0  2.487203  0  0  0.540802  0.505785  0  2.529381  0
Hg  Hg1  1  0.19163678  0.33236761  0.41373703  1  0  0.676696  0  2.036271  0  0  0.534817  0  2.512789  0  0  0.577814  0  2.487395  0  0  0.540779  0.505657  0  2.529563  0
Hg  Hg2  1  0.19160450  0.33236078  0.08626584  1  0  0.67665  0  2.036253  0  0  0.53477  0  2.512783  0  0  0.577764  0  2.487393  0  0  0.540768  0.505609  0  2.529562  0
Hg  Hg3  1  0.80837732  0.66765022  0.58625977  1  0  0.676532  0  2.036341  0  0  0.534662  0  2.512847  0  0  0.577659  0  2.487459  0  0  0.540742  0.505504  0  2.52962  0
H  H4  1  0.20003023  0.97738825  0.81132422  1  0  0.076178  0  0.932454  0  0  0.090021  0  0.999472  0  0  0.090232  0  0.999267  0  0  0.117232  0.089801  0  0.999701  0
H  H5  1  0.79996909  0.02260969  0.31132655  1  0  0.076197  0  0.932343  0  0  0.09001  0  0.999409  0  0  0.090219  0  0.999202  0  0  0.117236  0.089793  0  0.999638  0
H  H6  1  0.79995640  0.02259897  0.18868082  1  0  0.076158  0  0.932462  0  0  0.08998  0  0.999473  0  0  0.090187  0  0.999266  0  0  0.117249  0.089761  0  0.999699  0
H  H7  1  0.20005002  0.97740815  0.68867643  1  0  0.076163  0  0.932481  0  0  0.089981  0  0.999505  0  0  0.090188  0  0.999298  0  0  0.117269  0.089763  0  0.999732  0
H  H8  1  0.04189465  0.10530080  0.85771702  1  0  0.064815  0  0.950017  0  0  0.076782  0  1.022424  0  0  0.076651  0  1.022643  0  0  0.104649  0.076832  0  1.022393  0
H  H9  1  0.95809627  0.89468885  0.35771572  1  0  0.064759  0  0.950027  0  0  0.076717  0  1.022472  0  0  0.076584  0  1.02269  0  0  0.104616  0.076764  0  1.022446  0
H  H10  1  0.95807655  0.89467578  0.14229008  1  0  0.064776  0  0.949963  0  0  0.076714  0  1.02241  0  0  0.076579  0  1.022627  0  0  0.10457  0.076759  0  1.022384  0
H  H11  1  0.04191495  0.10533031  0.64229036  1  0  0.064755  0  0.949965  0  0  0.076701  0  1.0224  0  0  0.076566  0  1.022617  0  0  0.104591  0.076749  0  1.022373  0
H  H12  1  0.62494425  0.01757209  0.85779181  1  0  0.07738  0  0.925416  0  0  0.09015  0  0.991834  0  0  0.090359  0  0.991491  0  0  0.112688  0.089951  0  0.992223  0
H  H13  1  0.37505528  0.98241357  0.35778884  1  0  0.077434  0  0.925458  0  0  0.090155  0  0.991918  0  0  0.090364  0  0.99158  0  0  0.112684  0.089957  0  0.992306  0
H  H14  1  0.37502655  0.98239384  0.14220447  1  0  0.077412  0  0.925406  0  0  0.090208  0  0.991831  0  0  0.090417  0  0.991486  0  0  0.112699  0.090011  0  0.992221  0
H  H15  1  0.62497292  0.01760161  0.64220693  1  0  0.077379  0  0.925462  0  0  0.090118  0  0.99191  0  0  0.090327  0  0.991569  0  0  0.112672  0.089921  0  0.992301  0
H  H16  1  0.47063306  0.82349023  0.81169713  1  0  0.069874  0  0.947125  0  0  0.083699  0  1.013933  0  0  0.083149  0  1.014766  0  0  0.112545  0.084023  0  1.013472  0
H  H17  1  0.52936653  0.17649438  0.31169372  1  0  0.069896  0  0.9471  0  0  0.083723  0  1.013893  0  0  0.083174  0  1.014727  0  0  0.112541  0.084048  0  1.01343  0
H  H18  1  0.52935531  0.17648768  0.18829194  1  0  0.069839  0  0.947186  0  0  0.083748  0  1.01392  0  0  0.0832  0  1.014754  0  0  0.112574  0.084075  0  1.013459  0
H  H19  1  0.47065078  0.82350882  0.68829689  1  0  0.069857  0  0.947125  0  0  0.083703  0  1.013883  0  0  0.083155  0  1.014716  0  0  0.112552  0.08403  0  1.013423  0
H  H20  1  0.99010310  0.71171007  0.74999768  1  0  0.09024  0  0.951836  0  0  0.100088  0  1.023299  0  0  0.101229  0  1.021513  0  0  0.114622  0.09919  0  1.024687  0
H  H21  1  0.00989497  0.28828115  0.24999860  1  0  0.090174  0  0.951853  0  0  0.100016  0  1.023335  0  0  0.101158  0  1.02154  0  0  0.114619  0.099117  0  1.024721  0
H  H22  1  0.68080672  0.64719411  0.74999635  1  0  0.063763  0  0.948812  0  0  0.073559  0  1.02385  0  0  0.073281  0  1.024747  0  0  0.106018  0.073622  0  1.023376  0
H  H23  1  0.31919349  0.35279844  0.24999374  1  0  0.06374  0  0.948814  0  0  0.073535  0  1.023852  0  0  0.073271  0  1.024732  0  0  0.106031  0.073598  0  1.023377  0
H  H24  1  0.83356284  0.27887494  0.79583330  1  0  0.06691  0  0.944455  0  0  0.079153  0  1.014411  0  0  0.078838  0  1.014791  0  0  0.106228  0.079358  0  1.01423  0
H  H25  1  0.16642639  0.72111601  0.29583071  1  0  0.066939  0  0.944432  0  0  0.079167  0  1.014378  0  0  0.078854  0  1.014758  0  0  0.106248  0.079374  0  1.014196  0
H  H26  1  0.16641972  0.72111495  0.20417329  1  0  0.066963  0  0.944571  0  0  0.079186  0  1.014519  0  0  0.078872  0  1.014899  0  0  0.106265  0.079393  0  1.014335  0
H  H27  1  0.83357782  0.27888320  0.70417537  1  0  0.066977  0  0.944486  0  0  0.079215  0  1.014432  0  0  0.078901  0  1.014812  0  0  0.106285  0.079421  0  1.01425  0
C  C28  1  0.28932639  0.49851294  0.85445263  1  0  0.268199  0  3.934892  0  0  0.250584  0  4.242462  0  0  0.270077  0  4.256829  0  0  0.14492  0.237325  0  4.232788  0
C  C29  1  0.71072840  0.50150488  0.35443591  1  0  0.26794  0  3.935005  0  0  0.250304  0  4.242592  0  0  0.269802  0  4.256953  0  0  0.144645  0.237041  0  4.232922  0
C  C30  1  0.71073803  0.50147696  0.14555447  1  0  0.268088  0  3.935268  0  0  0.25044  0  4.242857  0  0  0.269932  0  4.257217  0  0  0.144731  0.237182  0  4.233187  0
C  C31  1  0.28925202  0.49851695  0.64555368  1  0  0.267597  0  3.934668  0  0  0.249959  0  4.242276  0  0  0.269456  0  4.256633  0  0  0.144396  0.236698  0  4.232607  0
C  C32  1  0.31990147  0.79142167  0.98222645  1  0  0.273342  0  3.943522  0  0  0.257379  0  4.24444  0  0  0.276599  0  4.260396  0  0  0.144843  0.244326  0  4.23362  0
C  C33  1  0.68006652  0.20859062  0.48222235  1  0  0.273259  0  3.943512  0  0  0.257288  0  4.244456  0  0  0.276507  0  4.260415  0  0  0.144813  0.244236  0  4.233633  0
C  C34  1  0.68006345  0.20859882  0.01777241  1  0  0.273026  0  3.943261  0  0  0.257056  0  4.244214  0  0  0.276274  0  4.260175  0  0  0.144712  0.244006  0  4.233389  0
C  C35  1  0.31994003  0.79141524  0.51777703  1  0  0.272994  0  3.943626  0  0  0.25701  0  4.244596  0  0  0.276227  0  4.260561  0  0  0.144682  0.243959  0  4.233768  0
C  C36  1  0.04415213  0.02548856  0.81127569  1  0  0.083586  0  3.608497  0  0  0.009593  0  3.872403  0  0  0.018951  0  3.881867  0  0  0.015893  0.003157  0  3.865917  0
C  C37  1  0.95584412  0.97450539  0.31127613  1  0  0.083702  0  3.608345  0  0  0.00966  0  3.872337  0  0  0.019026  0  3.881787  0  0  0.015902  0.003213  0  3.865868  0
C  C38  1  0.95583190  0.97449600  0.18872935  1  0  0.083614  0  3.608395  0  0  0.009672  0  3.872268  0  0  0.019045  0  3.881708  0  0  0.015893  0.003241  0  3.865774  0
C  C39  1  0.04417145  0.02550712  0.68872788  1  0  0.083615  0  3.608476  0  0  0.009646  0  3.872437  0  0  0.019022  0  3.88187  0  0  0.01587  0.003206  0  3.865953  0
C  C40  1  0.62474721  0.93789913  0.81120673  1  0  0.070957  0  3.627689  0  0  -0.000203  0  3.887657  0  0  0.009134  0  3.897115  0  0  0.010492  -0.006579  0  3.88111  0
C  C41  1  0.37524385  0.06208950  0.31120285  1  0  0.070805  0  3.627919  0  0  -0.000344  0  3.887822  0  0  0.008994  0  3.897269  0  0  0.010525  -0.006716  0  3.881271  0
C  C42  1  0.37523282  0.06207878  0.18878697  1  0  0.070933  0  3.627707  0  0  -0.00041  0  3.887833  0  0  0.008926  0  3.897291  0  0  0.010446  -0.006794  0  3.881301  0
C  C43  1  0.62477486  0.93791769  0.68879137  1  0  0.070928  0  3.627721  0  0  -0.00019  0  3.88762  0  0  0.009153  0  3.89706  0  0  0.010523  -0.006575  0  3.881088  0
C  C44  1  0.83559042  0.76141678  0.74999865  1  0  0.057397  0  3.604464  0  0  -0.015215  0  3.857202  0  0  -0.007079  0  3.869893  0  0  0.004793  -0.020678  0  3.848504  0
C  C45  1  0.16441025  0.23857710  0.24999763  1  0  0.057486  0  3.604496  0  0  -0.015115  0  3.857101  0  0  -0.006984  0  3.869779  0  0  0.004716  -0.020575  0  3.848397  0
C  C46  1  0.83330265  0.19654305  0.75000373  1  0  0.084346  0  3.644833  0  0  0.015804  0  3.905422  0  0  0.024441  0  3.915317  0  0  0.015749  0.00986  0  3.898492  0
C  C47  1  0.16669347  0.80345216  0.25000182  1  0  0.084246  0  3.644982  0  0  0.015776  0  3.90547  0  0  0.02441  0  3.915369  0  0  0.015755  0.009834  0  3.898538  0
S  S48  1  0.49814495  0.40235028  0.86957850  1  0  -0.19871  0  2.252476  0  0  -0.164174  0  2.608479  0  0  -0.180732  0  2.602838  0  0  -0.080719  -0.15318  0  2.612353  0
S  S49  1  0.50188331  0.59763196  0.36956342  1  0  -0.198295  0  2.252778  0  0  -0.163784  0  2.608868  0  0  -0.180342  0  2.603232  0  0  -0.080492  -0.152787  0  2.612738  0
S  S50  1  0.50190023  0.59762763  0.13042602  1  0  -0.198382  0  2.252485  0  0  -0.163844  0  2.608529  0  0  -0.180404  0  2.602893  0  0  -0.080454  -0.152843  0  2.612399  0
S  S51  1  0.49810072  0.40238587  0.63043595  1  0  -0.198193  0  2.252742  0  0  -0.163632  0  2.608766  0  0  -0.180193  0  2.60313  0  0  -0.080369  -0.152635  0  2.612635  0
S  S52  1  0.06041758  0.76693675  0.01590330  1  0  -0.220914  0  2.348728  0  0  -0.189649  0  2.721902  0  0  -0.207198  0  2.716234  0  0  -0.089915  -0.177819  0  2.725606  0
S  S53  1  0.93954306  0.23307344  0.51589526  1  0  -0.220904  0  2.348571  0  0  -0.189641  0  2.721777  0  0  -0.20719  0  2.71611  0  0  -0.089942  -0.177812  0  2.725482  0
S  S54  1  0.93955663  0.23308641  0.98410175  1  0  -0.220811  0  2.348596  0  0  -0.189529  0  2.721774  0  0  -0.207088  0  2.716126  0  0  -0.08991  -0.177701  0  2.725477  0
S  S55  1  0.06046576  0.76691512  0.48409793  1  0  -0.220784  0  2.348648  0  0  -0.189482  0  2.721804  0  0  -0.207048  0  2.716174  0  0  -0.089942  -0.177652  0  2.725503  0
N  N56  1  0.13742875  0.56439536  0.84274022  1  0  -0.467892  0  2.738987  0  0  -0.427504  0  3.000882  0  0  -0.44444  0  3.009819  0  0  -0.347398  -0.416143  0  2.994914  0
N  N57  1  0.86262610  0.43560325  0.34272104  1  0  -0.467914  0  2.738864  0  0  -0.427508  0  3.000739  0  0  -0.444448  0  3.009674  0  0  -0.347306  -0.416155  0  2.99479  0
N  N58  1  0.86261629  0.43560119  0.15727410  1  0  -0.467955  0  2.739336  0  0  -0.427553  0  3.001262  0  0  -0.444488  0  3.01019  0  0  -0.347408  -0.416199  0  2.995314  0
N  N59  1  0.13735699  0.56441193  0.65727627  1  0  -0.467645  0  2.73838  0  0  -0.427238  0  3.00028  0  0  -0.444177  0  3.009216  0  0  -0.347162  -0.415885  0  2.994334  0
N  N60  1  0.50944685  0.81335949  0.96067144  1  0  -0.465065  0  2.83075  0  0  -0.420523  0  3.096233  0  0  -0.439728  0  3.108318  0  0  -0.347934  -0.407593  0  3.087975  0
N  N61  1  0.49052862  0.18664088  0.46066439  1  0  -0.464941  0  2.830987  0  0  -0.420381  0  3.09647  0  0  -0.439586  0  3.108561  0  0  -0.347866  -0.40745  0  3.088209  0
N  N62  1  0.49051472  0.18662773  0.03933154  1  0  -0.464809  0  2.830639  0  0  -0.420259  0  3.096116  0  0  -0.43946  0  3.108204  0  0  -0.34781  -0.407329  0  3.087855  0
N  N63  1  0.50948201  0.81339559  0.53933550  1  0  -0.46473  0  2.830959  0  0  -0.420155  0  3.096419  0  0  -0.439356  0  3.108513  0  0  -0.347713  -0.407225  0  3.088155  0
N  N64  1  0.83470580  0.86858396  0.81302004  1  0  -0.251667  0  3.152745  0  0  -0.150171  0  3.385531  0  0  -0.172389  0  3.40852  0  0  -0.319831  -0.134746  0  3.369247  0
N  N65  1  0.16528968  0.13140855  0.31301982  1  0  -0.251798  0  3.152801  0  0  -0.15014  0  3.385333  0  0  -0.172366  0  3.408332  0  0  -0.319811  -0.134712  0  3.36905  0
N  N66  1  0.16528157  0.13140060  0.18697676  1  0  -0.251712  0  3.152645  0  0  -0.150132  0  3.385356  0  0  -0.172357  0  3.408352  0  0  -0.319874  -0.134709  0  3.369084  0
N  N67  1  0.83472736  0.86859864  0.68697749  1  0  -0.251585  0  3.152439  0  0  -0.150103  0  3.385166  0  0  -0.172328  0  3.408162  0  0  -0.319879  -0.134679  0  3.368896  0
N  N68  1  0.04425857  0.13389886  0.75000319  1  0  -0.266566  0  3.156878  0  0  -0.202259  0  3.426307  0  0  -0.218752  0  3.443486  0  0  -0.343036  -0.19024  0  3.413829  0
N  N69  1  0.95573849  0.86609901  0.25000443  1  0  -0.266517  0  3.15688  0  0  -0.202215  0  3.426288  0  0  -0.218708  0  3.443463  0  0  -0.342987  -0.190195  0  3.413814  0
N  N70  1  0.62292682  0.04586742  0.75000018  1  0  -0.276816  0  3.177766  0  0  -0.21224  0  3.447381  0  0  -0.2281  0  3.463326  0  0  -0.347147  -0.200839  0  3.435983  0
N  N71  1  0.37707218  0.95412646  0.24999661  1  0  -0.276686  0  3.177728  0  0  -0.212104  0  3.447372  0  0  -0.227959  0  3.463319  0  0  -0.347171  -0.200706  0  3.435977  0
