# generated using pymatgen
data_Tb2H11C9O16
_symmetry_space_group_name_H-M   'P 1'
_cell_length_a   5.99651274
_cell_length_b   10.83668964
_cell_length_c   12.97767287
_cell_angle_alpha   68.35236907
_cell_angle_beta   81.34770780
_cell_angle_gamma   84.30452113
_symmetry_Int_Tables_number   1
_chemical_formula_structural   Tb2H11C9O16
_chemical_formula_sum   'Tb4 H22 C18 O32'
_cell_volume   774.04130116
_cell_formula_units_Z   2
loop_
 _symmetry_equiv_pos_site_id
 _symmetry_equiv_pos_as_xyz
  1  'x, y, z'
loop_
 _atom_site_type_symbol
 _atom_site_label
 _atom_site_symmetry_multiplicity
 _atom_site_fract_x
 _atom_site_fract_y
 _atom_site_fract_z
 _atom_site_occupancy
 _atom_site_hle17_bader_spin_density
 _atom_site_hle17_ddec_charge
 _atom_site_hle17_ddec_spin_density
 _atom_site_hle17_ddec_sum_bond_order
 _atom_site_hle17_magmom
 _atom_site_hse06_10hf_bader_spin_density
 _atom_site_hse06_10hf_ddec_charge
 _atom_site_hse06_10hf_ddec_spin_density
 _atom_site_hse06_10hf_ddec_sum_bond_order
 _atom_site_hse06_10hf_magmom
 _atom_site_hse06_bader_spin_density
 _atom_site_hse06_ddec_charge
 _atom_site_hse06_ddec_spin_density
 _atom_site_hse06_ddec_sum_bond_order
 _atom_site_hse06_magmom
 _atom_site_pbe_bader_spin_density
 _atom_site_pbe_cm5_charge
 _atom_site_pbe_ddec_charge
 _atom_site_pbe_ddec_spin_density
 _atom_site_pbe_ddec_sum_bond_order
 _atom_site_pbe_magmom
Tb  Tb0  1  0.56393584  0.90397076  0.16918808  1  0  2.15099  0  1.785026  0  0  2.061065  0  2.134218  0  0  2.118935  0  2.086261  0  0  1.510145  2.022307  0  2.166765  0
Tb  Tb1  1  0.43607928  0.09603096  0.83081046  1  0  2.15116  0  1.784794  0  0  2.061126  0  2.134223  0  0  2.119017  0  2.086199  0  0  1.510146  2.02237  0  2.166775  0
Tb  Tb2  1  0.07890652  0.32206401  0.35814488  1  0  2.219876  0  1.730126  0  0  2.219339  0  1.915894  0  0  2.262508  0  1.875595  0  0  1.483117  2.111731  0  2.086378  0
Tb  Tb3  1  0.92109032  0.67793466  0.64185582  1  0  2.219921  0  1.73011  0  0  2.219306  0  1.915996  0  0  2.262476  0  1.875695  0  0  1.483116  2.111675  0  2.086537  0
H  H4  1  0.22507767  0.94085780  0.33544134  1  0  0.443692  0  0.806804  0  0  0.422176  0  0.869166  0  0  0.43182  0  0.858034  0  0  0.331305  0.415651  0  0.877067  0
H  H5  1  0.77492328  0.05913292  0.66456002  1  0  0.44372  0  0.806808  0  0  0.422197  0  0.869198  0  0  0.431839  0  0.858066  0  0  0.331301  0.415671  0  0.877107  0
H  H6  1  0.10089831  0.91259848  0.24689805  1  0  0.434124  0  0.871444  0  0  0.402729  0  0.935168  0  0  0.415028  0  0.917446  0  0  0.303636  0.394338  0  0.947384  0
H  H7  1  0.89911592  0.08739525  0.75309763  1  0  0.43417  0  0.871358  0  0  0.402817  0  0.935013  0  0  0.415112  0  0.9173  0  0  0.303705  0.394437  0  0.947216  0
H  H8  1  0.82400337  0.04434806  0.45311021  1  0  0.44535  0  0.845308  0  0  0.417739  0  0.901845  0  0  0.428924  0  0.88539  0  0  0.304762  0.409036  0  0.91458  0
H  H9  1  0.17599328  0.95565260  0.54689066  1  0  0.44537  0  0.845279  0  0  0.417755  0  0.90182  0  0  0.428939  0  0.885366  0  0  0.304774  0.409054  0  0.914553  0
H  H10  1  0.69975211  0.15700242  0.36627599  1  0  0.449313  0  0.807397  0  0  0.423126  0  0.877525  0  0  0.432455  0  0.863614  0  0  0.325363  0.416314  0  0.885034  0
H  H11  1  0.30024285  0.84299823  0.63372499  1  0  0.449313  0  0.807402  0  0  0.42313  0  0.877519  0  0  0.432458  0  0.863609  0  0  0.325375  0.416319  0  0.885031  0
H  H12  1  0.76473210  0.47122297  0.47443263  1  0  0.451096  0  0.835145  0  0  0.421129  0  0.895378  0  0  0.432703  0  0.878413  0  0  0.308366  0.412534  0  0.907773  0
H  H13  1  0.23526121  0.52877767  0.52556615  1  0  0.451105  0  0.835132  0  0  0.421142  0  0.895357  0  0  0.432715  0  0.878394  0  0  0.308343  0.412547  0  0.907752  0
H  H14  1  0.62212931  0.39402051  0.42154574  1  0  0.441607  0  0.851333  0  0  0.411033  0  0.914039  0  0  0.421757  0  0.898355  0  0  0.305612  0.403135  0  0.925311  0
H  H15  1  0.37786072  0.60597911  0.57845358  1  0  0.44164  0  0.851299  0  0  0.411063  0  0.91401  0  0  0.421786  0  0.898325  0  0  0.305607  0.403167  0  0.92528  0
H  H16  1  0.94612846  0.61091457  0.27675419  1  0  0.448986  0  0.839534  0  0  0.420354  0  0.898434  0  0  0.430833  0  0.883179  0  0  0.310828  0.412974  0  0.908944  0
H  H17  1  0.05386160  0.38908409  0.72324928  1  0  0.449068  0  0.839422  0  0  0.420431  0  0.89833  0  0  0.430907  0  0.883078  0  0  0.310846  0.413051  0  0.90884  0
H  H18  1  0.21164424  0.61280729  0.23319828  1  0  0.462513  0  0.825806  0  0  0.432509  0  0.885887  0  0  0.443946  0  0.869215  0  0  0.306808  0.42409  0  0.898017  0
H  H19  1  0.78834911  0.38719238  0.76680466  1  0  0.462476  0  0.825855  0  0  0.432485  0  0.885916  0  0  0.443921  0  0.869245  0  0  0.306784  0.424064  0  0.898047  0
H  H20  1  0.79147025  0.56295219  0.01869697  1  0  0.104022  0  0.893815  0  0  0.114696  0  0.949411  0  0  0.117632  0  0.947574  0  0  0.114532  0.112472  0  0.951398  0
H  H21  1  0.20852296  0.43704945  0.98130228  1  0  0.104043  0  0.893884  0  0  0.11471  0  0.949441  0  0  0.117647  0  0.947604  0  0  0.114536  0.112483  0  0.951436  0
H  H22  1  0.31762153  0.48848490  0.13990583  1  0  0.080002  0  0.955046  0  0  0.084866  0  1.028697  0  0  0.088348  0  1.025449  0  0  0.115073  0.08433  0  1.027657  0
H  H23  1  0.68237345  0.51151575  0.86009438  1  0  0.08002  0  0.95502  0  0  0.084907  0  1.028678  0  0  0.08839  0  1.025428  0  0  0.115092  0.08437  0  1.027644  0
H  H24  1  0.31971856  0.67359879  0.95453076  1  0  0.110902  0  0.88638  0  0  0.121969  0  0.938799  0  0  0.125126  0  0.937203  0  0  0.118476  0.119758  0  0.940248  0
H  H25  1  0.68027437  0.32640583  0.04546835  1  0  0.110916  0  0.88649  0  0  0.12199  0  0.93887  0  0  0.125146  0  0.937271  0  0  0.118487  0.119777  0  0.940321  0
C  C26  1  0.61215673  0.58687821  0.04024507  1  0  -0.116394  0  3.588143  0  0  -0.128405  0  3.827574  0  0  -0.132115  0  3.838879  0  0  -0.074415  -0.125848  0  3.821062  0
C  C27  1  0.38783646  0.41312344  0.95975572  1  0  -0.116455  0  3.588209  0  0  -0.128331  0  3.827443  0  0  -0.132043  0  3.838751  0  0  -0.074341  -0.125773  0  3.820927  0
C  C28  1  0.49592723  0.46110648  0.12051230  1  0  -0.144537  0  3.647459  0  0  -0.161217  0  3.887075  0  0  -0.165422  0  3.899486  0  0  -0.083423  -0.158209  0  3.87801  0
C  C29  1  0.50406933  0.53889517  0.87948826  1  0  -0.14452  0  3.6475  0  0  -0.161336  0  3.887254  0  0  -0.165538  0  3.899665  0  0  -0.083483  -0.15833  0  3.878191  0
C  C30  1  0.49645277  0.64490701  0.93218716  1  0  -0.137836  0  3.575016  0  0  -0.150245  0  3.811444  0  0  -0.154908  0  3.822691  0  0  -0.073455  -0.14723  0  3.80497  0
C  C31  1  0.50354040  0.35509464  0.06781440  1  0  -0.137845  0  3.575162  0  0  -0.150269  0  3.811472  0  0  -0.15492  0  3.822689  0  0  -0.073458  -0.147253  0  3.804997  0
C  C32  1  0.60351934  0.68944480  0.09513803  1  0  0.682779  0  3.816936  0  0  0.63221  0  4.128581  0  0  0.666224  0  4.121498  0  0  0.202382  0.609199  0  4.133899  0
C  C33  1  0.39648574  0.31055589  0.90486226  1  0  0.682672  0  3.81701  0  0  0.632091  0  4.128616  0  0  0.666096  0  4.121546  0  0  0.202337  0.609079  0  4.133935  0
C  C34  1  0.60165650  0.40351309  0.22944424  1  0  0.717387  0  3.794401  0  0  0.674026  0  4.094975  0  0  0.707423  0  4.085811  0  0  0.232291  0.650708  0  4.095939  0
C  C35  1  0.39834352  0.59648758  0.77055639  1  0  0.717399  0  3.794503  0  0  0.674089  0  4.095039  0  0  0.707487  0  4.085874  0  0  0.23235  0.650774  0  4.095999  0
C  C36  1  0.60628547  0.77241169  0.85081058  1  0  0.764439  0  3.766944  0  0  0.723741  0  4.059709  0  0  0.759354  0  4.047455  0  0  0.245052  0.699041  0  4.06641  0
C  C37  1  0.39371110  0.22758996  0.14918921  1  0  0.764513  0  3.766819  0  0  0.723792  0  4.059605  0  0  0.759411  0  4.047341  0  0  0.245067  0.699091  0  4.066306  0
C  C38  1  0.71359420  0.86035373  0.41311122  1  0  0.569149  0  3.908292  0  0  0.522825  0  4.216425  0  0  0.554015  0  4.206382  0  0  0.223236  0.502355  0  4.218957  0
C  C39  1  0.28640433  0.13964495  0.58688937  1  0  0.569175  0  3.908193  0  0  0.522997  0  4.216162  0  0  0.554184  0  4.206122  0  0  0.223303  0.502531  0  4.218695  0
C  C40  1  0.74397509  0.72080550  0.40540447  1  0  0.571499  0  3.900498  0  0  0.523706  0  4.205809  0  0  0.554712  0  4.196128  0  0  0.229762  0.503378  0  4.208628  0
C  C41  1  0.25602298  0.27919815  0.59459537  1  0  0.571606  0  3.90011  0  0  0.523623  0  4.2057  0  0  0.554627  0  4.196019  0  0  0.229719  0.503294  0  4.208519  0
C  C42  1  0.06577109  0.97874691  0.05085954  1  0  0.622877  0  3.821544  0  0  0.577953  0  4.112694  0  0  0.612535  0  4.099136  0  0  0.251754  0.555599  0  4.121656  0
C  C43  1  0.93424882  0.02125780  0.94913774  1  0  0.623366  0  3.821208  0  0  0.578297  0  4.112545  0  0  0.612856  0  4.099012  0  0  0.251883  0.555956  0  4.121493  0
O  O44  1  0.42201289  0.70873891  0.15560116  1  0  -0.693278  0  1.985825  0  0  -0.637266  0  2.213536  0  0  -0.665044  0  2.205418  0  0  -0.369751  -0.618569  0  2.219723  0
O  O45  1  0.57799232  0.29125982  0.84440359  1  0  -0.6932  0  1.985914  0  0  -0.63717  0  2.213617  0  0  -0.664945  0  2.205499  0  0  -0.369697  -0.618474  0  2.219804  0
O  O46  1  0.77355106  0.75756525  0.07910365  1  0  -0.658133  0  1.959284  0  0  -0.621289  0  2.195255  0  0  -0.646423  0  2.187602  0  0  -0.368154  -0.603405  0  2.200538  0
O  O47  1  0.22645418  0.24243442  0.92089232  1  0  -0.658111  0  1.959279  0  0  -0.621298  0  2.195308  0  0  -0.646428  0  2.187651  0  0  -0.368178  -0.603415  0  2.200591  0
O  O48  1  0.81441311  0.39079540  0.22442479  1  0  -0.688229  0  1.996982  0  0  -0.656433  0  2.235894  0  0  -0.680768  0  2.225322  0  0  -0.375649  -0.629698  0  2.246046  0
O  O49  1  0.18558888  0.60920230  0.77557587  1  0  -0.688269  0  1.997062  0  0  -0.656472  0  2.235973  0  0  -0.680805  0  2.2254  0  0  -0.375695  -0.629729  0  2.246116  0
O  O50  1  0.46918948  0.36847016  0.32176528  1  0  -0.751606  0  2.090368  0  0  -0.712534  0  2.329648  0  0  -0.73862  0  2.320156  0  0  -0.385825  -0.683838  0  2.336496  0
O  O51  1  0.53080905  0.63152851  0.67823453  1  0  -0.751604  0  2.090387  0  0  -0.71253  0  2.329658  0  0  -0.738616  0  2.320167  0  0  -0.385826  -0.683829  0  2.336503  0
O  O52  1  0.53179585  0.87793246  0.86664588  1  0  -0.72347  0  2.097508  0  0  -0.687672  0  2.356216  0  0  -0.715449  0  2.34556  0  0  -0.414801  -0.669819  0  2.364971  0
O  O53  1  0.46820745  0.12206922  0.13335423  1  0  -0.723455  0  2.097405  0  0  -0.687679  0  2.356115  0  0  -0.715462  0  2.345468  0  0  -0.41481  -0.669826  0  2.364867  0
O  O54  1  0.76156833  0.76757607  0.77394234  1  0  -0.740258  0  2.009885  0  0  -0.714002  0  2.25409  0  0  -0.737027  0  2.238655  0  0  -0.406186  -0.685259  0  2.267855  0
O  O55  1  0.23842507  0.23242357  0.22605674  1  0  -0.740299  0  2.009852  0  0  -0.714035  0  2.254021  0  0  -0.737061  0  2.238585  0  0  -0.40621  -0.685298  0  2.267783  0
O  O56  1  0.63183241  0.95201974  0.33405374  1  0  -0.62475  0  2.039507  0  0  -0.582548  0  2.273057  0  0  -0.607796  0  2.265452  0  0  -0.339984  -0.567225  0  2.279532  0
O  O57  1  0.36817099  0.04798094  0.66594667  1  0  -0.62479  0  2.03948  0  0  -0.582591  0  2.272946  0  0  -0.607836  0  2.265335  0  0  -0.340018  -0.567268  0  2.279421  0
O  O58  1  0.78076342  0.87251150  0.49774733  1  0  -0.676335  0  2.048049  0  0  -0.639281  0  2.281388  0  0  -0.663225  0  2.269265  0  0  -0.36211  -0.612312  0  2.290166  0
O  O59  1  0.21922851  0.12748517  0.50225663  1  0  -0.676405  0  2.048132  0  0  -0.639398  0  2.281423  0  0  -0.663337  0  2.269288  0  0  -0.362131  -0.612427  0  2.290188  0
O  O60  1  0.70986048  0.71347513  0.31377950  1  0  -0.65512  0  2.094165  0  0  -0.608886  0  2.327038  0  0  -0.636187  0  2.320632  0  0  -0.353599  -0.592482  0  2.332935  0
O  O61  1  0.29014469  0.28652456  0.68622110  1  0  -0.655249  0  2.09405  0  0  -0.608951  0  2.327031  0  0  -0.636251  0  2.320619  0  0  -0.35364  -0.592549  0  2.332933  0
O  O62  1  0.80379853  0.62517250  0.48928045  1  0  -0.630333  0  2.090891  0  0  -0.586723  0  2.318607  0  0  -0.610381  0  2.308833  0  0  -0.330723  -0.561865  0  2.325681  0
O  O63  1  0.19619637  0.37482914  0.51071869  1  0  -0.630258  0  2.090789  0  0  -0.586607  0  2.318603  0  0  -0.610266  0  2.308833  0  0  -0.33062  -0.561751  0  2.325676  0
O  O64  1  0.94859882  0.95252503  0.14563968  1  0  -0.649296  0  2.127312  0  0  -0.601078  0  2.356668  0  0  -0.628421  0  2.347394  0  0  -0.35194  -0.583095  0  2.363112  0
O  O65  1  0.05142123  0.04747867  0.85435406  1  0  -0.649508  0  2.127185  0  0  -0.601288  0  2.356643  0  0  -0.628622  0  2.347369  0  0  -0.352043  -0.583313  0  2.363087  0
O  O66  1  0.27857395  0.97304010  0.03262041  1  0  -0.689867  0  2.185189  0  0  -0.65233  0  2.435666  0  0  -0.681723  0  2.43146  0  0  -0.362452  -0.634522  0  2.43989  0
O  O67  1  0.72145131  0.02696068  0.96738236  1  0  -0.68995  0  2.185185  0  0  -0.652399  0  2.435788  0  0  -0.681783  0  2.431587  0  0  -0.362413  -0.634593  0  2.440005  0
O  O68  1  0.22280125  0.87864395  0.29730455  1  0  -0.869218  0  1.834577  0  0  -0.834853  0  2.02584  0  0  -0.855381  0  1.997016  0  0  -0.628575  -0.822135  0  2.0461  0
O  O69  1  0.77720468  0.12134778  0.70269540  1  0  -0.869301  0  1.834476  0  0  -0.834954  0  2.025721  0  0  -0.855479  0  1.996899  0  0  -0.628633  -0.822246  0  2.045962  0
O  O70  1  0.82142183  0.14213786  0.41221808  1  0  -0.896778  0  1.845666  0  0  -0.86809  0  2.035593  0  0  -0.884329  0  2.001952  0  0  -0.632073  -0.846298  0  2.06281  0
O  O71  1  0.17857492  0.85786180  0.58778232  1  0  -0.896812  0  1.84562  0  0  -0.868111  0  2.035553  0  0  -0.884351  0  2.001919  0  0  -0.632104  -0.846315  0  2.062773  0
O  O72  1  0.75747298  0.38891373  0.45854482  1  0  -0.898768  0  1.857675  0  0  -0.867571  0  2.037162  0  0  -0.886259  0  2.00338  0  0  -0.650428  -0.84414  0  2.067101  0
O  O73  1  0.24252195  0.61108789  0.54145200  1  0  -0.898826  0  1.857621  0  0  -0.867628  0  2.037128  0  0  -0.886313  0  2.003346  0  0  -0.650402  -0.844193  0  2.06707  0
O  O74  1  0.08601823  0.55441492  0.27817641  1  0  -0.926588  0  1.865883  0  0  -0.896828  0  2.052298  0  0  -0.914873  0  2.017548  0  0  -0.65902  -0.87306  0  2.081672  0
O  O75  1  0.91397198  0.44558272  0.72182351  1  0  -0.926609  0  1.865787  0  0  -0.896842  0  2.052202  0  0  -0.914885  0  2.017449  0  0  -0.659007  -0.873067  0  2.081578  0
