# generated using pymatgen
data_ZnP2H8C7(NO4)2
_symmetry_space_group_name_H-M   'P 1'
_cell_length_a   7.41812640
_cell_length_b   9.69703620
_cell_length_c   16.06929526
_cell_angle_alpha   89.99998647
_cell_angle_beta   90.00028644
_cell_angle_gamma   89.46384726
_symmetry_Int_Tables_number   1
_chemical_formula_structural   ZnP2H8C7(NO4)2
_chemical_formula_sum   'Zn4 P8 H32 C28 N8 O32'
_cell_volume   1155.87550962
_cell_formula_units_Z   4
loop_
 _symmetry_equiv_pos_site_id
 _symmetry_equiv_pos_as_xyz
  1  'x, y, z'
loop_
 _atom_site_type_symbol
 _atom_site_label
 _atom_site_symmetry_multiplicity
 _atom_site_fract_x
 _atom_site_fract_y
 _atom_site_fract_z
 _atom_site_occupancy
 _atom_site_hle17_bader_spin_density
 _atom_site_hle17_ddec_charge
 _atom_site_hle17_ddec_spin_density
 _atom_site_hle17_ddec_sum_bond_order
 _atom_site_hle17_magmom
 _atom_site_hse06_10hf_bader_spin_density
 _atom_site_hse06_10hf_ddec_charge
 _atom_site_hse06_10hf_ddec_spin_density
 _atom_site_hse06_10hf_ddec_sum_bond_order
 _atom_site_hse06_10hf_magmom
 _atom_site_hse06_bader_spin_density
 _atom_site_hse06_ddec_charge
 _atom_site_hse06_ddec_spin_density
 _atom_site_hse06_ddec_sum_bond_order
 _atom_site_hse06_magmom
 _atom_site_pbe_bader_spin_density
 _atom_site_pbe_cm5_charge
 _atom_site_pbe_ddec_charge
 _atom_site_pbe_ddec_spin_density
 _atom_site_pbe_ddec_sum_bond_order
 _atom_site_pbe_magmom
Zn  Zn0  1  0.77222037  0.70536668  0.68464193  1  0  1.262691  0  1.762636  0  0  1.094576  0  2.258139  0  0  1.13978  0  2.191832  0  0  0.724181  1.06232  0  2.304248  0
Zn  Zn1  1  0.22777998  0.79462986  0.18464240  1  0  1.262647  0  1.762635  0  0  1.094561  0  2.258137  0  0  1.139764  0  2.191832  0  0  0.724166  1.062311  0  2.304246  0
Zn  Zn2  1  0.22778111  0.29463295  0.31535694  1  0  1.26269  0  1.7627  0  0  1.094579  0  2.258206  0  0  1.139784  0  2.191901  0  0  0.724191  1.06233  0  2.304323  0
Zn  Zn3  1  0.77221745  0.20536982  0.81535959  1  0  1.262638  0  1.762575  0  0  1.094555  0  2.258061  0  0  1.139759  0  2.191755  0  0  0.724183  1.062299  0  2.304173  0
P  P4  1  0.89237583  0.39765830  0.65085094  1  0  1.518716  0  4.797629  0  0  1.358233  0  5.297922  0  0  1.408305  0  5.2592  0  0  0.372886  1.323289  0  5.323929  0
P  P5  1  0.10762627  0.10233830  0.15084743  1  0  1.518567  0  4.797832  0  0  1.358094  0  5.298134  0  0  1.408162  0  5.259417  0  0  0.372871  1.323152  0  5.324136  0
P  P6  1  0.10762427  0.60233825  0.34915105  1  0  1.518638  0  4.797798  0  0  1.358153  0  5.298105  0  0  1.408221  0  5.259385  0  0  0.372882  1.323211  0  5.324107  0
P  P7  1  0.89237386  0.89766135  0.84915207  1  0  1.518764  0  4.797685  0  0  1.358288  0  5.297972  0  0  1.408354  0  5.259253  0  0  0.372929  1.323347  0  5.323977  0
P  P8  1  0.48479579  0.47388014  0.64772401  1  0  1.512538  0  4.772232  0  0  1.347198  0  5.277633  0  0  1.39746  0  5.238521  0  0  0.375548  1.312279  0  5.30409  0
P  P9  1  0.51520093  0.02612168  0.14772455  1  0  1.512311  0  4.772334  0  0  1.34697  0  5.277751  0  0  1.397221  0  5.238652  0  0  0.375466  1.312047  0  5.304208  0
P  P10  1  0.51520300  0.52612055  0.35227549  1  0  1.512516  0  4.77215  0  0  1.347165  0  5.27756  0  0  1.397428  0  5.238442  0  0  0.375555  1.312251  0  5.30401  0
P  P11  1  0.48479785  0.97387798  0.85227557  1  0  1.512502  0  4.772221  0  0  1.347131  0  5.27765  0  0  1.397389  0  5.23854  0  0  0.375508  1.312212  0  5.304108  0
H  H12  1  0.15441860  0.39434092  0.58604203  1  0  0.454051  0  0.844584  0  0  0.418754  0  0.913519  0  0  0.430791  0  0.896346  0  0  0.309551  0.41036  0  0.925429  0
H  H13  1  0.84557474  0.10566096  0.08604207  1  0  0.454048  0  0.84458  0  0  0.418759  0  0.913506  0  0  0.430793  0  0.896338  0  0  0.30954  0.410363  0  0.925419  0
H  H14  1  0.84558152  0.60565769  0.41395934  1  0  0.454103  0  0.84451  0  0  0.418798  0  0.913452  0  0  0.430838  0  0.896276  0  0  0.309566  0.410406  0  0.92536  0
H  H15  1  0.15442268  0.89433769  0.91395681  1  0  0.454077  0  0.844551  0  0  0.418784  0  0.913481  0  0  0.430822  0  0.896308  0  0  0.309571  0.41039  0  0.925391  0
H  H16  1  0.50931426  0.41978357  0.77836823  1  0  0.421558  0  0.884336  0  0  0.386913  0  0.960403  0  0  0.399083  0  0.942848  0  0  0.305766  0.378357  0  0.972736  0
H  H17  1  0.49068251  0.08021511  0.27837119  1  0  0.42149  0  0.884334  0  0  0.386844  0  0.96048  0  0  0.399012  0  0.942929  0  0  0.305741  0.378286  0  0.972813  0
H  H18  1  0.49069531  0.58021596  0.22163003  1  0  0.421411  0  0.884504  0  0  0.386739  0  0.960617  0  0  0.398901  0  0.943075  0  0  0.305726  0.37819  0  0.97295  0
H  H19  1  0.50931355  0.91978252  0.72162955  1  0  0.421545  0  0.884309  0  0  0.386886  0  0.960433  0  0  0.39905  0  0.942887  0  0  0.30575  0.37833  0  0.972764  0
H  H20  1  0.72285840  0.35092556  0.43483879  1  0  0.314397  0  0.907716  0  0  0.291843  0  0.970631  0  0  0.300881  0  0.963839  0  0  0.31983  0.28556  0  0.975387  0
H  H21  1  0.27713732  0.14906586  0.93483782  1  0  0.314354  0  0.907676  0  0  0.291896  0  0.970469  0  0  0.300933  0  0.963678  0  0  0.319874  0.28561  0  0.975224  0
H  H22  1  0.27713770  0.64907619  0.56516196  1  0  0.314425  0  0.907722  0  0  0.291869  0  0.970622  0  0  0.300904  0  0.963832  0  0  0.319855  0.285586  0  0.975377  0
H  H23  1  0.72286011  0.85093382  0.06516479  1  0  0.314376  0  0.907642  0  0  0.291913  0  0.970432  0  0  0.300948  0  0.963643  0  0  0.319866  0.285629  0  0.975193  0
H  H24  1  0.60589996  0.18189106  0.62481339  1  0  0.302698  0  0.913523  0  0  0.284269  0  0.977242  0  0  0.292591  0  0.97071  0  0  0.311678  0.278553  0  0.981615  0
H  H25  1  0.39410184  0.31810452  0.12481362  1  0  0.302641  0  0.913462  0  0  0.284229  0  0.977215  0  0  0.292551  0  0.970684  0  0  0.311673  0.278512  0  0.981588  0
H  H26  1  0.39409880  0.81810654  0.37518610  1  0  0.30257  0  0.913594  0  0  0.284204  0  0.977281  0  0  0.292526  0  0.970752  0  0  0.311632  0.278484  0  0.981654  0
H  H27  1  0.60590498  0.68188989  0.87518775  1  0  0.302651  0  0.913483  0  0  0.284221  0  0.977237  0  0  0.292542  0  0.970707  0  0  0.311664  0.278503  0  0.981611  0
H  H28  1  0.83217498  0.25108414  0.31694576  1  0  0.113672  0  0.91375  0  0  0.123297  0  0.970942  0  0  0.126187  0  0.967568  0  0  0.13808  0.121087  0  0.973553  0
H  H29  1  0.16781684  0.24891665  0.81694639  1  0  0.113656  0  0.913795  0  0  0.123257  0  0.97101  0  0  0.126145  0  0.96764  0  0  0.138051  0.121048  0  0.973622  0
H  H30  1  0.16781576  0.74892078  0.68305498  1  0  0.113606  0  0.913818  0  0  0.123287  0  0.970955  0  0  0.126176  0  0.967584  0  0  0.138064  0.121076  0  0.973566  0
H  H31  1  0.83217924  0.75108304  0.18305746  1  0  0.113601  0  0.913846  0  0  0.123197  0  0.971077  0  0  0.126084  0  0.96771  0  0  0.138003  0.120987  0  0.973687  0
H  H32  1  0.89236114  0.99382610  0.31177255  1  0  0.134343  0  0.936674  0  0  0.143277  0  0.99189  0  0  0.147219  0  0.990979  0  0  0.115909  0.140459  0  0.992724  0
H  H33  1  0.10763251  0.50617047  0.81177495  1  0  0.13447  0  0.936681  0  0  0.143405  0  0.991862  0  0  0.147349  0  0.990944  0  0  0.115962  0.140582  0  0.992697  0
H  H34  1  0.10763502  0.00618287  0.68822570  1  0  0.134399  0  0.93656  0  0  0.143326  0  0.991769  0  0  0.147267  0  0.990858  0  0  0.115955  0.140502  0  0.992607  0
H  H35  1  0.89236763  0.49383020  0.18822641  1  0  0.134532  0  0.936628  0  0  0.143435  0  0.991847  0  0  0.147377  0  0.990933  0  0  0.115968  0.140615  0  0.992684  0
H  H36  1  0.82846090  0.85687458  0.44177072  1  0  0.123933  0  0.95142  0  0  0.130937  0  1.012635  0  0  0.134513  0  1.008579  0  0  0.115308  0.128315  0  1.01554  0
H  H37  1  0.17153821  0.64312085  0.94177263  1  0  0.124025  0  0.951308  0  0  0.130967  0  1.012577  0  0  0.134544  0  1.008521  0  0  0.115313  0.128344  0  1.015481  0
H  H38  1  0.17154192  0.14312400  0.55822504  1  0  0.123932  0  0.951442  0  0  0.130954  0  1.012627  0  0  0.134532  0  1.008567  0  0  0.115312  0.128331  0  1.015537  0
H  H39  1  0.82847272  0.35688072  0.05822812  1  0  0.124026  0  0.951344  0  0  0.131004  0  1.012586  0  0  0.134585  0  1.008519  0  0  0.115332  0.128381  0  1.015491  0
H  H40  1  0.68988953  0.45115108  0.53679903  1  0  0.159664  0  0.964853  0  0  0.164257  0  1.022025  0  0  0.168811  0  1.019331  0  0  0.136225  0.161062  0  1.023891  0
H  H41  1  0.31010591  0.04884356  0.03679972  1  0  0.15972  0  0.964876  0  0  0.164289  0  1.022081  0  0  0.168841  0  1.019389  0  0  0.136263  0.161094  0  1.023946  0
H  H42  1  0.31011464  0.54884851  0.46320171  1  0  0.159736  0  0.964845  0  0  0.164334  0  1.021993  0  0  0.168882  0  1.019301  0  0  0.136302  0.161139  0  1.023859  0
H  H43  1  0.68989153  0.95115611  0.96320040  1  0  0.159694  0  0.964848  0  0  0.164253  0  1.022074  0  0  0.168802  0  1.019383  0  0  0.136273  0.161057  0  1.02394  0
C  C44  1  0.80883685  0.18279620  0.36941226  1  0  0.196834  0  3.597269  0  0  0.150199  0  3.863325  0  0  0.164256  0  3.873945  0  0  0.076537  0.141115  0  3.856258  0
C  C45  1  0.19116080  0.31718903  0.86941293  1  0  0.196997  0  3.597138  0  0  0.150347  0  3.863236  0  0  0.164404  0  3.873853  0  0  0.076658  0.14126  0  3.856168  0
C  C46  1  0.19115526  0.81721076  0.63058973  1  0  0.197013  0  3.597301  0  0  0.150282  0  3.863381  0  0  0.164341  0  3.873999  0  0  0.076552  0.141195  0  3.856311  0
C  C47  1  0.80883933  0.68281062  0.13059030  1  0  0.197012  0  3.597176  0  0  0.150346  0  3.863239  0  0  0.164401  0  3.873859  0  0  0.076736  0.141259  0  3.856167  0
C  C48  1  0.83889358  0.04260563  0.36764184  1  0  -0.135581  0  3.70158  0  0  -0.153476  0  3.969373  0  0  -0.164844  0  3.98781  0  0  -0.087999  -0.146502  0  3.957224  0
C  C49  1  0.16110148  0.45739407  0.86764119  1  0  -0.135819  0  3.701296  0  0  -0.153657  0  3.968982  0  0  -0.165026  0  3.987417  0  0  -0.088077  -0.146682  0  3.956836  0
C  C50  1  0.16110118  0.95739614  0.63235641  1  0  -0.135742  0  3.701684  0  0  -0.153602  0  3.969493  0  0  -0.16497  0  3.987926  0  0  -0.088059  -0.146618  0  3.957337  0
C  C51  1  0.83890131  0.54260141  0.13236018  1  0  -0.135983  0  3.701313  0  0  -0.153795  0  3.969014  0  0  -0.165165  0  3.987457  0  0  -0.088171  -0.146814  0  3.95686  0
C  C52  1  0.80069713  0.96732937  0.43962498  1  0  0.046673  0  3.65014  0  0  0.010137  0  3.909557  0  0  0.023461  0  3.920997  0  0  -0.049474  0.00195  0  3.901515  0
C  C53  1  0.19930191  0.53266090  0.93962696  1  0  0.0465  0  3.650299  0  0  0.010034  0  3.909708  0  0  0.023352  0  3.921158  0  0  -0.049527  0.001853  0  3.901659  0
C  C54  1  0.19929763  0.03267240  0.56037328  1  0  0.046709  0  3.650178  0  0  0.010152  0  3.909582  0  0  0.023483  0  3.921011  0  0  -0.049463  0.00196  0  3.901544  0
C  C55  1  0.80070765  0.46733862  0.06037378  1  0  0.046511  0  3.650378  0  0  0.010012  0  3.909775  0  0  0.023333  0  3.921212  0  0  -0.049542  0.001833  0  3.901726  0
C  C56  1  0.73112877  0.03029230  0.51075752  1  0  -0.232166  0  3.70546  0  0  -0.210199  0  3.955571  0  0  -0.229992  0  3.978928  0  0  -0.020678  -0.197615  0  3.940047  0
C  C57  1  0.26886643  0.46970751  0.01075681  1  0  -0.231944  0  3.705152  0  0  -0.210137  0  3.955194  0  0  -0.229929  0  3.97855  0  0  -0.020666  -0.197553  0  3.939674  0
C  C58  1  0.26886596  0.96970637  0.48923949  1  0  -0.232191  0  3.705583  0  0  -0.210231  0  3.955675  0  0  -0.230026  0  3.979033  0  0  -0.020698  -0.197639  0  3.940151  0
C  C59  1  0.73114583  0.53029198  0.98924518  1  0  -0.231933  0  3.704866  0  0  -0.210111  0  3.954986  0  0  -0.229895  0  3.978338  0  0  -0.020696  -0.197532  0  3.939465  0
C  C60  1  0.70235151  0.17589887  0.51001880  1  0  0.436606  0  3.696578  0  0  0.389763  0  3.964619  0  0  0.412842  0  3.977076  0  0  0.258652  0.374479  0  3.955849  0
C  C61  1  0.29764492  0.32408855  0.01002067  1  0  0.436205  0  3.696917  0  0  0.389744  0  3.964593  0  0  0.412819  0  3.977052  0  0  0.258628  0.374455  0  3.955825  0
C  C62  1  0.29764328  0.82410702  0.48997883  1  0  0.436599  0  3.696595  0  0  0.389885  0  3.964536  0  0  0.412963  0  3.976993  0  0  0.25866  0.374596  0  3.955768  0
C  C63  1  0.70235927  0.67591310  0.98998132  1  0  0.436308  0  3.696666  0  0  0.389652  0  3.964532  0  0  0.412724  0  3.976988  0  0  0.25862  0.374367  0  3.955762  0
C  C64  1  0.69924780  0.94516120  0.58676697  1  0  0.680578  0  3.897473  0  0  0.622806  0  4.197063  0  0  0.658641  0  4.190844  0  0  0.215921  0.598467  0  4.200769  0
C  C65  1  0.30075954  0.55483219  0.08677075  1  0  0.680442  0  3.897657  0  0  0.622771  0  4.197147  0  0  0.658604  0  4.19093  0  0  0.215888  0.598434  0  4.200852  0
C  C66  1  0.30074695  0.05484057  0.41322817  1  0  0.680521  0  3.897578  0  0  0.622704  0  4.197226  0  0  0.658538  0  4.191012  0  0  0.215868  0.598362  0  4.20093  0
C  C67  1  0.69925544  0.44516934  0.91322812  1  0  0.680377  0  3.897763  0  0  0.622754  0  4.197185  0  0  0.658586  0  4.19097  0  0  0.215861  0.598418  0  4.200888  0
C  C68  1  0.67590350  0.39022415  0.59419855  1  0  -0.482732  0  3.686505  0  0  -0.467449  0  3.934446  0  0  -0.478948  0  3.942166  0  0  -0.007152  -0.459505  0  3.929091  0
C  C69  1  0.32409938  0.10977864  0.09419429  1  0  -0.482732  0  3.686609  0  0  -0.467342  0  3.934435  0  0  -0.478846  0  3.942171  0  0  -0.007144  -0.459399  0  3.929077  0
C  C70  1  0.32409391  0.60977243  0.40580281  1  0  -0.482592  0  3.686303  0  0  -0.467302  0  3.934436  0  0  -0.478797  0  3.942152  0  0  -0.007154  -0.459362  0  3.929078  0
C  C71  1  0.67590619  0.89022713  0.90580148  1  0  -0.48278  0  3.686586  0  0  -0.467443  0  3.934496  0  0  -0.478947  0  3.942223  0  0  -0.007224  -0.459502  0  3.929144  0
N  N72  1  0.74555776  0.24489820  0.43895537  1  0  -0.301443  0  3.376952  0  0  -0.2327  0  3.605867  0  0  -0.251703  0  3.616932  0  0  -0.350084  -0.22021  0  3.59839  0
N  N73  1  0.25443000  0.25510156  0.93895433  1  0  -0.301412  0  3.377333  0  0  -0.23286  0  3.606166  0  0  -0.251862  0  3.617233  0  0  -0.350197  -0.220351  0  3.598665  0
N  N74  1  0.25443293  0.75510052  0.56104475  1  0  -0.301506  0  3.376762  0  0  -0.23273  0  3.605619  0  0  -0.251738  0  3.616693  0  0  -0.350073  -0.220233  0  3.598135  0
N  N75  1  0.74556876  0.74489500  0.06104828  1  0  -0.301304  0  3.377446  0  0  -0.232652  0  3.606254  0  0  -0.25165  0  3.617321  0  0  -0.350109  -0.220165  0  3.598786  0
N  N76  1  0.63614066  0.24642616  0.57578576  1  0  -0.345906  0  3.350875  0  0  -0.294875  0  3.596371  0  0  -0.314262  0  3.60854  0  0  -0.402826  -0.281461  0  3.58741  0
N  N77  1  0.36385119  0.25357161  0.07578343  1  0  -0.345475  0  3.351241  0  0  -0.294683  0  3.596746  0  0  -0.314064  0  3.608918  0  0  -0.402746  -0.281285  0  3.587817  0
N  N78  1  0.36385404  0.75356839  0.42421685  1  0  -0.345844  0  3.350656  0  0  -0.295054  0  3.596346  0  0  -0.314439  0  3.608506  0  0  -0.402889  -0.281652  0  3.58742  0
N  N79  1  0.63614624  0.74642806  0.92421669  1  0  -0.345625  0  3.350975  0  0  -0.294693  0  3.596467  0  0  -0.314069  0  3.60863  0  0  -0.402731  -0.281284  0  3.587514  0
O  O80  1  0.76918602  0.82411703  0.58541417  1  0  -0.647043  0  2.064356  0  0  -0.578813  0  2.342032  0  0  -0.607899  0  2.326997  0  0  -0.316216  -0.558766  0  2.351846  0
O  O81  1  0.23081326  0.67588058  0.08541466  1  0  -0.647034  0  2.06421  0  0  -0.578886  0  2.341901  0  0  -0.607975  0  2.326871  0  0  -0.316256  -0.558837  0  2.351715  0
O  O82  1  0.23081142  0.17588368  0.41458284  1  0  -0.646989  0  2.064568  0  0  -0.578756  0  2.342282  0  0  -0.607843  0  2.327253  0  0  -0.316181  -0.558708  0  2.352098  0
O  O83  1  0.76919094  0.32412210  0.91458483  1  0  -0.646965  0  2.064449  0  0  -0.578844  0  2.342123  0  0  -0.607932  0  2.327092  0  0  -0.316256  -0.558796  0  2.351934  0
O  O84  1  0.60859703  0.99627957  0.64670415  1  0  -0.628408  0  2.018553  0  0  -0.566943  0  2.243514  0  0  -0.592896  0  2.233998  0  0  -0.298115  -0.549075  0  2.249696  0
O  O85  1  0.39140561  0.50371798  0.14670317  1  0  -0.628294  0  2.018926  0  0  -0.56686  0  2.243839  0  0  -0.592808  0  2.234324  0  0  -0.298063  -0.548993  0  2.250029  0
O  O86  1  0.39139498  0.00371708  0.35329161  1  0  -0.628356  0  2.018539  0  0  -0.566871  0  2.243519  0  0  -0.592824  0  2.234  0  0  -0.298076  -0.548998  0  2.249699  0
O  O87  1  0.60861344  0.49628762  0.85329259  1  0  -0.628333  0  2.018783  0  0  -0.566905  0  2.243687  0  0  -0.592854  0  2.234166  0  0  -0.298023  -0.549036  0  2.249871  0
O  O88  1  0.88219565  0.29447809  0.72163189  1  0  -0.879103  0  2.058169  0  0  -0.785984  0  2.371141  0  0  -0.814  0  2.342508  0  0  -0.378207  -0.766205  0  2.390485  0
O  O89  1  0.11780584  0.20551436  0.22163336  1  0  -0.879153  0  2.058297  0  0  -0.786013  0  2.371228  0  0  -0.814029  0  2.342595  0  0  -0.378233  -0.766231  0  2.390574  0
O  O90  1  0.11780850  0.70551841  0.27836823  1  0  -0.879136  0  2.058225  0  0  -0.786014  0  2.371178  0  0  -0.814029  0  2.342544  0  0  -0.378224  -0.766234  0  2.390521  0
O  O91  1  0.88219426  0.79448115  0.77836676  1  0  -0.879143  0  2.058162  0  0  -0.786029  0  2.371133  0  0  -0.814044  0  2.342499  0  0  -0.378253  -0.766248  0  2.390475  0
O  O92  1  0.93668592  0.54543898  0.67496840  1  0  -0.867263  0  2.005425  0  0  -0.780349  0  2.301988  0  0  -0.807746  0  2.275448  0  0  -0.373801  -0.760581  0  2.319462  0
O  O93  1  0.06331029  0.95455864  0.17496412  1  0  -0.867172  0  2.005339  0  0  -0.780312  0  2.301941  0  0  -0.807708  0  2.2754  0  0  -0.373833  -0.76055  0  2.319418  0
O  O94  1  0.06331422  0.45456170  0.32503483  1  0  -0.867215  0  2.005518  0  0  -0.780331  0  2.302097  0  0  -0.807732  0  2.275564  0  0  -0.373806  -0.760569  0  2.319575  0
O  O95  1  0.93668576  0.04543693  0.82503663  1  0  -0.867287  0  2.005481  0  0  -0.780385  0  2.302022  0  0  -0.807783  0  2.275489  0  0  -0.373806  -0.760619  0  2.319498  0
O  O96  1  0.03188820  0.34377644  0.58420174  1  0  -0.741359  0  1.985549  0  0  -0.667849  0  2.205601  0  0  -0.689614  0  2.180617  0  0  -0.38203  -0.652574  0  2.222486  0
O  O97  1  0.96810915  0.15622332  0.08420143  1  0  -0.741316  0  1.985684  0  0  -0.667778  0  2.20569  0  0  -0.689534  0  2.180705  0  0  -0.381961  -0.652505  0  2.222578  0
O  O98  1  0.96811326  0.65622112  0.41579838  1  0  -0.741419  0  1.98569  0  0  -0.667829  0  2.205691  0  0  -0.689592  0  2.180705  0  0  -0.381998  -0.652553  0  2.222573  0
O  O99  1  0.03188828  0.84377635  0.91579745  1  0  -0.741394  0  1.985643  0  0  -0.667854  0  2.205651  0  0  -0.68961  0  2.180663  0  0  -0.38201  -0.652578  0  2.222535  0
O  O100  1  0.44582214  0.38173578  0.72662164  1  0  -0.733981  0  2.027082  0  0  -0.664497  0  2.258218  0  0  -0.685582  0  2.23282  0  0  -0.37885  -0.649816  0  2.275641  0
O  O101  1  0.55417271  0.11826293  0.22662413  1  0  -0.733857  0  2.02709  0  0  -0.664399  0  2.258302  0  0  -0.685477  0  2.232904  0  0  -0.378834  -0.649713  0  2.275735  0
O  O102  1  0.55418208  0.61826896  0.27337785  1  0  -0.733882  0  2.027069  0  0  -0.664328  0  2.258285  0  0  -0.685399  0  2.232889  0  0  -0.378846  -0.649661  0  2.275679  0
O  O103  1  0.44582067  0.88173679  0.77337412  1  0  -0.734022  0  2.027088  0  0  -0.664499  0  2.258243  0  0  -0.68557  0  2.232845  0  0  -0.378851  -0.649817  0  2.275673  0
O  O104  1  0.32599492  0.47200498  0.58783321  1  0  -0.813985  0  1.955836  0  0  -0.731747  0  2.1901  0  0  -0.758439  0  2.171676  0  0  -0.353926  -0.712818  0  2.202079  0
O  O105  1  0.67400113  0.02799583  0.08783847  1  0  -0.813873  0  1.955932  0  0  -0.731668  0  2.190195  0  0  -0.758358  0  2.171777  0  0  -0.353873  -0.712731  0  2.202169  0
O  O106  1  0.67400657  0.52799568  0.41216629  1  0  -0.813982  0  1.955849  0  0  -0.731745  0  2.190111  0  0  -0.758442  0  2.171688  0  0  -0.353899  -0.712814  0  2.202086  0
O  O107  1  0.32599631  0.97200488  0.91216227  1  0  -0.813883  0  1.955879  0  0  -0.731676  0  2.190159  0  0  -0.758371  0  2.171739  0  0  -0.353873  -0.712743  0  2.202133  0
O  O108  1  0.53757107  0.61868703  0.67341031  1  0  -0.869975  0  2.051671  0  0  -0.781578  0  2.356219  0  0  -0.808897  0  2.32955  0  0  -0.376706  -0.762522  0  2.374374  0
O  O109  1  0.46242647  0.88131057  0.17341130  1  0  -0.869968  0  2.051562  0  0  -0.78154  0  2.356079  0  0  -0.80885  0  2.329411  0  0  -0.376704  -0.762481  0  2.374232  0
O  O110  1  0.46242772  0.38131366  0.32658732  1  0  -0.870021  0  2.051646  0  0  -0.781622  0  2.356201  0  0  -0.808938  0  2.329528  0  0  -0.376733  -0.762567  0  2.374359  0
O  O111  1  0.53757094  0.11868704  0.82658944  1  0  -0.86999  0  2.051542  0  0  -0.781596  0  2.356103  0  0  -0.808912  0  2.329432  0  0  -0.376729  -0.762542  0  2.374264  0
