# generated using pymatgen
data_Zr3H28C44S5O31
_symmetry_space_group_name_H-M   'P 1'
_cell_length_a   19.02815869
_cell_length_b   19.02149179
_cell_length_c   19.09757576
_cell_angle_alpha   59.72039638
_cell_angle_beta   59.85598463
_cell_angle_gamma   60.25472348
_symmetry_Int_Tables_number   1
_chemical_formula_structural   Zr3H28C44S5O31
_chemical_formula_sum   'Zr6 H56 C88 S10 O62'
_cell_volume   4881.22908123
_cell_formula_units_Z   2
loop_
 _symmetry_equiv_pos_site_id
 _symmetry_equiv_pos_as_xyz
  1  'x, y, z'
loop_
 _atom_site_type_symbol
 _atom_site_label
 _atom_site_symmetry_multiplicity
 _atom_site_fract_x
 _atom_site_fract_y
 _atom_site_fract_z
 _atom_site_occupancy
 _atom_site_pbe_bader_charge
 _atom_site_pbe_bader_spin_density
 _atom_site_pbe_cm5_charge
 _atom_site_pbe_ddec_charge
 _atom_site_pbe_ddec_spin_density
 _atom_site_pbe_ddec_sum_bond_order
 _atom_site_pbe_magmom
Zr  Zr0  1  0.90411942  0.41087284  0.58994089  1  2.630494  0  1.638694  2.3695  0  2.779151  0
Zr  Zr1  1  0.09508002  0.59050906  0.41038784  1  2.630652  0  1.638959  2.370348  0  2.777244  0
Zr  Zr2  1  0.08894107  0.40431761  0.59687225  1  2.639498  0  1.635972  2.377678  0  2.743108  0
Zr  Zr3  1  0.90986825  0.59738984  0.40378536  1  2.637473  0  1.635649  2.377218  0  2.74309  0
Zr  Zr4  1  0.90754239  0.59270099  0.59220083  1  2.629046  0  1.638337  2.367226  0  2.782579  0
Zr  Zr5  1  0.09151113  0.40879441  0.40828511  1  2.631951  0  1.636353  2.371361  0  2.76737  0
H  H6  1  0.92182982  0.42669006  0.71875192  1  0.642267  0  0.335649  0.430221  0  0.846717  0
H  H7  1  0.93268881  0.71930113  0.42618006  1  0.605853  0  0.335375  0.430175  0  0.845206  0
H  H8  1  0.21733492  0.42441548  0.43141647  1  0.630137  0  0.33267  0.426687  0  0.852802  0
H  H9  1  0.92693035  0.43190150  0.42384318  1  0.618842  0  0.332848  0.426586  0  0.852549  0
H  H10  1  0.46442304  0.60525325  0.04636250  1  0.13071  0  0.118606  0.131545  0  1.010136  0
H  H11  1  0.53943994  0.39212519  0.95753876  1  0.118785  0  0.117311  0.133231  0  1.009836  0
H  H12  1  0.64889595  0.63946245  0.78039124  1  0.160372  0  0.11387  0.131655  0  1.018068  0
H  H13  1  0.51214777  0.65289988  0.90143177  1  0.107912  0  0.118326  0.12248  0  0.973045  0
H  H14  1  0.28167635  0.43264409  0.15225017  1  0.135378  0  0.113409  0.131181  0  1.020742  0
H  H15  1  0.39739477  0.44136900  0.01164913  1  0.09926  0  0.117757  0.121729  0  0.974793  0
H  H16  1  0.11101157  0.95803654  0.39163699  1  0.155765  0  0.117427  0.130077  0  1.013174  0
H  H17  1  0.88406214  0.04692938  0.60463359  1  0.14656  0  0.118668  0.13169  0  1.009398  0
H  H18  1  0.13359169  0.15267142  0.43237379  1  0.144588  0  0.113096  0.130669  0  1.021221  0
H  H19  1  0.14978819  0.01206708  0.44104309  1  0.064585  0  0.117824  0.121594  0  0.974423  0
H  H20  1  0.93130244  0.78094840  0.63895241  1  0.129536  0  0.113821  0.13161  0  1.018379  0
H  H21  1  0.93362597  0.90196233  0.65239133  1  0.096425  0  0.118163  0.12225  0  0.973172  0
H  H22  1  0.46330613  0.05201539  0.38116618  1  0.123341  0  0.116634  0.131497  0  1.014424  0
H  H23  1  0.55224561  0.96528847  0.59991890  1  0.147222  0  0.116823  0.12876  0  1.015141  0
H  H24  1  0.66115675  0.79218199  0.41953596  1  0.159832  0  0.113786  0.135554  0  1.009315  0
H  H25  1  0.52315829  0.91132865  0.42327950  1  0.064229  0  0.116366  0.120134  0  0.978948  0
H  H26  1  0.28853440  0.14953645  0.63281587  1  0.138813  0  0.114955  0.119345  0  0.988827  0
H  H27  1  0.41146269  0.01484530  0.64293145  1  0.102551  0  0.117093  0.120868  0  0.977486  0
H  H28  1  0.88244071  0.60020187  0.96495762  1  0.144286  0  0.116702  0.128831  0  1.014823  0
H  H29  1  0.10357370  0.38156208  0.05155903  1  0.156873  0  0.116973  0.12939  0  1.017508  0
H  H30  1  0.92911918  0.63328825  0.14896723  1  0.104867  0  0.114885  0.119089  0  0.988866  0
H  H31  1  0.93067864  0.64324984  0.01438739  1  0.090891  0  0.116785  0.120485  0  0.977859  0
H  H32  1  0.12697338  0.41990719  0.79176178  1  0.155055  0  0.113595  0.13528  0  1.009666  0
H  H33  1  0.14212497  0.42360256  0.91090850  1  0.110041  0  0.116164  0.119878  0  0.979301  0
H  H34  1  0.88845863  0.82416275  0.18804890  1  0.117685  0  0.107868  0.118338  0  1.001247  0
H  H35  1  0.13848255  0.80665287  0.15252511  1  0.133705  0  0.108189  0.127138  0  1.020441  0
H  H36  1  0.09915317  0.18857678  0.82379241  1  0.090406  0  0.107608  0.118127  0  1.00136  0
H  H37  1  0.90223337  0.15316593  0.80603771  1  0.117718  0  0.107955  0.126376  0  1.022129  0
H  H38  1  0.82051748  0.02211667  0.07052127  1  0.079771  0  0.104026  0.107802  0  0.953028  0
H  H39  1  0.82703975  0.92582054  0.07137452  1  0.02184  0  0.102801  0.105987  0  0.964842  0
H  H40  1  0.19825235  0.92200884  0.95021648  1  0.035666  0  0.096879  0.094763  0  0.966078  0
H  H41  1  0.19434286  0.92504630  0.04322369  1  0.063813  0  0.108452  0.118974  0  0.953837  0
H  H42  1  0.08662179  0.07096497  0.02172956  1  0.045154  0  0.103871  0.107651  0  0.95317  0
H  H43  1  0.17548737  0.07200906  0.92536875  1  -0.008235  0  0.102889  0.106287  0  0.963801  0
H  H44  1  0.92933162  0.95088889  0.92135799  1  0.00352  0  0.096805  0.094711  0  0.965829  0
H  H45  1  0.83715628  0.04383888  0.92453766  1  0.061446  0  0.108364  0.119235  0  0.953361  0
H  H46  1  0.45984108  0.38854082  0.61159231  1  0.119113  0  0.119006  0.1328  0  1.008308  0
H  H47  1  0.54002568  0.61194706  0.38809270  1  0.112358  0  0.118889  0.132447  0  1.008379  0
H  H48  1  0.65022667  0.43827138  0.63252016  1  0.182444  0  0.113256  0.132036  0  1.027795  0
H  H49  1  0.51084894  0.44169515  0.65169097  1  0.093434  0  0.118428  0.122452  0  0.973478  0
H  H50  1  0.27894107  0.63306756  0.43790573  1  0.178543  0  0.113357  0.132276  0  1.027623  0
H  H51  1  0.39578425  0.65213885  0.44132670  1  0.127964  0  0.11845  0.122447  0  0.973698  0
H  H52  1  0.29375584  0.57801872  0.33347819  1  0.658216  0  0.319021  0.381646  0  0.935921  0
H  H53  1  0.82286321  0.30041260  0.78481538  1  0.665838  0  0.317094  0.382227  0  0.941181  0
H  H54  1  0.09189757  0.78538161  0.29992780  1  0.659728  0  0.317436  0.382085  0  0.941073  0
H  H55  1  0.79480950  0.33396063  0.57749228  1  0.656925  0  0.319279  0.382491  0  0.934208  0
H  H56  1  0.28675709  0.33253900  0.29625056  1  0.677029  0  0.316829  0.380946  0  0.94433  0
H  H57  1  0.83305890  0.78806057  0.58450279  1  0.659863  0  0.318559  0.381781  0  0.938068  0
H  H58  1  0.79433229  0.58496781  0.78755869  1  0.65707  0  0.31883  0.382244  0  0.937615  0
H  H59  1  0.08461161  0.29668989  0.33200147  1  0.668759  0  0.317097  0.381246  0  0.943557  0
H  H60  1  0.29010201  0.30294160  0.58237161  1  0.655809  0  0.316314  0.37489  0  0.94462  0
H  H61  1  0.82459322  0.58283401  0.30238329  1  0.66077  0  0.316315  0.374988  0  0.944212  0
C  C62  1  0.75549551  0.50622488  0.72846335  1  1.525468  0  0.242934  0.648089  0  4.072398  0
C  C63  1  0.00981527  0.72903241  0.50570591  1  1.538496  0  0.243165  0.648885  0  4.072382  0
C  C64  1  0.23522787  0.50411857  0.26286187  1  1.519389  0  0.244847  0.652014  0  4.062835  0
C  C65  1  0.99788942  0.26336899  0.50361869  1  1.54328  0  0.244618  0.651827  0  4.062562  0
C  C66  1  0.99513514  0.26004230  0.73391786  1  1.473485  0  0.242107  0.650949  0  4.047591  0
C  C67  1  0.75952661  0.51207851  0.49565140  1  1.555533  0  0.243369  0.64834  0  4.068949  0
C  C68  1  0.01087878  0.73442835  0.25948498  1  1.480006  0  0.24118  0.648875  0  4.049227  0
C  C69  1  0.23265949  0.49623243  0.51164378  1  1.547812  0  0.243645  0.649449  0  4.068003  0
C  C70  1  0.99750530  0.50335131  0.73441347  1  1.558347  0  0.240306  0.646865  0  4.086908  0
C  C71  1  0.23076624  0.25835699  0.50375986  1  1.535629  0  0.240823  0.647594  0  4.076275  0
C  C72  1  0.00720517  0.50430971  0.25777379  1  1.545669  0  0.241869  0.649478  0  4.073302  0
C  C73  1  0.76463385  0.73489083  0.50288663  1  1.550727  0  0.240743  0.647965  0  4.085467  0
C  C74  1  0.30570917  0.51472323  0.17878094  1  0.004096  0  -0.011254  -0.0578  0  3.935396  0
C  C75  1  0.67159554  0.50933377  0.79934612  1  -0.023377  0  -0.011201  -0.056957  0  3.933957  0
C  C76  1  0.35667285  0.56622428  0.14632622  1  -0.172539  0  -0.002626  -0.078527  0  3.881668  0
C  C77  1  0.42318799  0.56914763  0.06768406  1  -0.007546  0  -0.072973  -0.137802  0  3.935484  0
C  C78  1  0.63777123  0.44025020  0.84856245  1  -0.110804  0  -0.00384  -0.082328  0  3.891892  0
C  C79  1  0.56143956  0.44782651  0.91780198  1  0.032414  0  -0.075265  -0.142471  0  3.94215  0
C  C80  1  0.62412882  0.58545245  0.81951036  1  -0.052771  0  -0.068807  -0.062643  0  3.920676  0
C  C81  1  0.54718181  0.59278654  0.88785741  1  -0.057845  0  -0.070191  -0.105665  0  3.925465  0
C  C82  1  0.32187788  0.47082103  0.12840778  1  0.004149  0  -0.069167  -0.062997  0  3.924159  0
C  C83  1  0.38723821  0.47570949  0.04924791  1  -0.012638  0  -0.070714  -0.106527  0  3.929271  0
C  C84  1  0.44009861  0.52371555  0.01848431  1  0.006322  0  0.009875  0.089901  0  3.981643  0
C  C85  1  0.51580015  0.52296343  0.93946577  1  -0.011162  0  0.009943  0.08956  0  3.984389  0
C  C86  1  0.01972956  0.79991076  0.50881298  1  0.005928  0  -0.01102  -0.056529  0  3.934855  0
C  C87  1  0.00092670  0.17923205  0.51431826  1  0.009583  0  -0.01152  -0.058454  0  3.936435  0
C  C88  1  0.07344779  0.84910643  0.43973690  1  -0.142817  0  -0.003989  -0.082652  0  3.890882  0
C  C89  1  0.07301605  0.91831399  0.44732726  1  -0.062234  0  -0.07505  -0.139274  0  3.940565  0
C  C90  1  0.93089891  0.14681502  0.56577028  1  -0.156632  0  -0.002291  -0.078744  0  3.883403  0
C  C91  1  0.94008760  0.06823297  0.56859041  1  -0.026198  0  -0.073191  -0.137641  0  3.936513  0
C  C92  1  0.07905151  0.12883591  0.47047950  1  -0.036115  0  -0.069138  -0.062828  0  3.924121  0
C  C93  1  0.08797929  0.04968624  0.47532454  1  0.018493  0  -0.070422  -0.105102  0  3.928827  0
C  C94  1  0.97094965  0.82005998  0.58493513  1  -0.006881  0  -0.068922  -0.063004  0  3.921398  0
C  C95  1  0.97225844  0.88838552  0.59227399  1  -0.03504  0  -0.07024  -0.105771  0  3.926209  0
C  C96  1  0.02185467  0.93999735  0.52245699  1  0.028328  0  0.010057  0.089682  0  3.983249  0
C  C97  1  0.01782838  0.01900016  0.52320676  1  -0.003791  0  0.009942  0.089149  0  3.983219  0
C  C98  1  0.30441162  0.17668909  0.50322510  1  -0.026016  0  -0.010601  -0.054759  0  3.927549  0
C  C99  1  0.68297203  0.80855971  0.50960063  1  -0.009442  0  -0.009293  -0.050984  0  3.929319  0
C  C100  1  0.35365063  0.14612376  0.43264372  1  -0.15416  0  -0.003636  -0.082953  0  3.883725  0
C  C101  1  0.42438327  0.07128436  0.43795478  1  0.003496  0  -0.07383  -0.139387  0  3.93733  0
C  C102  1  0.64996538  0.85742048  0.56250136  1  -0.176541  0  -0.00453  -0.085395  0  3.890094  0
C  C103  1  0.57364433  0.92629075  0.56206478  1  -0.000625  0  -0.075547  -0.138408  0  3.943535  0
C  C104  1  0.63585301  0.83028471  0.45971064  1  -0.042626  0  -0.06986  -0.069966  0  3.926455  0
C  C105  1  0.55860793  0.89775881  0.46156099  1  0.040359  0  -0.072841  -0.110477  0  3.938461  0
C  C106  1  0.32721799  0.12712153  0.57797032  1  -0.014109  0  -0.07051  -0.063055  0  3.954611  0
C  C107  1  0.39674466  0.05157814  0.58328886  1  -0.055077  0  -0.071915  -0.110544  0  3.934828  0
C  C108  1  0.44788730  0.02325708  0.51220933  1  0.016571  0  0.010161  0.093702  0  3.976437  0
C  C109  1  0.52664269  0.94761015  0.51234333  1  -0.03916  0  0.007021  0.085315  0  3.984459  0
C  C110  1  0.99871474  0.50997644  0.80817943  1  -0.007115  0  -0.009897  -0.051502  0  3.92905  0
C  C111  1  0.01575252  0.50372715  0.17614085  1  -0.065268  0  -0.011368  -0.056843  0  3.929125  0
C  C112  1  0.92997364  0.56286031  0.85706024  1  -0.155696  0  -0.004089  -0.084752  0  3.89013  0
C  C113  1  0.93787454  0.56236975  0.92594341  1  -0.040045  0  -0.075625  -0.138517  0  3.942979  0
C  C114  1  0.06766781  0.43312921  0.14559729  1  -0.109398  0  -0.003015  -0.080808  0  3.881835  0
C  C115  1  0.06641302  0.43835816  0.07081447  1  -0.031259  0  -0.074887  -0.138996  0  3.939166  0
C  C116  1  0.96770569  0.57841719  0.12659394  1  0.004882  0  -0.07012  -0.062584  0  3.954672  0
C  C117  1  0.96833385  0.58364603  0.05112073  1  -0.02325  0  -0.071885  -0.109829  0  3.933821  0
C  C118  1  0.07399342  0.46003937  0.82991345  1  -0.022645  0  -0.069187  -0.069418  0  3.925685  0
C  C119  1  0.08194608  0.46187340  0.89737894  1  -0.027569  0  -0.072679  -0.10981  0  3.938329  0
C  C120  1  0.01328864  0.51264338  0.94724363  1  0.000243  0  0.006867  0.084991  0  3.984449  0
C  C121  1  0.01659303  0.51253904  0.02283446  1  -0.00844  0  0.010507  0.093556  0  3.976447  0
C  C122  1  0.86411425  0.96838073  0.04520461  1  -0.033877  0  -0.150387  -0.186987  0  3.968612  0
C  C123  1  0.15556695  0.94725892  0.00411306  1  -0.01177  0  -0.150938  -0.186851  0  3.96539  0
C  C124  1  0.12207119  0.04575860  0.96792275  1  0.033951  0  -0.1506  -0.187605  0  3.969454  0
C  C125  1  0.89286858  0.00472684  0.94668770  1  0.04268  0  -0.150683  -0.187563  0  3.963427  0
C  C126  1  0.94221803  0.84917218  0.15027690  1  -0.110182  0  -0.086566  -0.159496  0  3.964067  0
C  C127  1  0.94002686  0.92108654  0.07605163  1  0.041784  0  -0.002683  0.085162  0  3.961267  0
C  C128  1  0.08296053  0.83954116  0.13135405  1  -0.016497  0  -0.082478  -0.147231  0  3.927496  0
C  C129  1  0.08198608  0.91159250  0.05685115  1  -0.045775  0  0.001268  0.092226  0  3.939288  0
C  C130  1  0.05812795  0.15084630  0.84876014  1  -0.068663  0  -0.085902  -0.158211  0  3.964393  0
C  C131  1  0.06259020  0.07660896  0.92064657  1  0.040902  0  -0.002463  0.084994  0  3.961605  0
C  C132  1  0.94600081  0.13197165  0.83896849  1  -0.001182  0  -0.08133  -0.144454  0  3.926752  0
C  C133  1  0.94935589  0.05748191  0.91103910  1  -0.049397  0  0.000406  0.09196  0  3.93583  0
C  C134  1  0.01287104  0.80866299  0.17868646  1  0.005818  0  -0.026636  -0.052751  0  4.033086  0
C  C135  1  0.01018187  0.95278089  0.02930151  1  -0.054302  0  0.001044  -0.016216  0  3.928788  0
C  C136  1  0.99963469  0.17927991  0.80817653  1  -0.029186  0  -0.027015  -0.055244  0  4.035384  0
C  C137  1  0.00751055  0.02988053  0.95226279  1  -0.021102  0  0.000862  -0.01486  0  3.925146  0
C  C138  1  0.30171434  0.50120845  0.52276386  1  0.003286  0  -0.011202  -0.057727  0  3.935875  0
C  C139  1  0.67437938  0.52314989  0.50066891  1  0.012891  0  -0.011566  -0.057803  0  3.936206  0
C  C140  1  0.35178371  0.43297236  0.57497375  1  -0.156103  0  -0.003141  -0.081113  0  3.893257  0
C  C141  1  0.41908841  0.44358842  0.57507939  1  -7.7e-05  0  -0.072852  -0.138179  0  3.933091  0
C  C142  1  0.64030507  0.57533836  0.43246406  1  -0.149586  0  -0.003214  -0.080662  0  3.891363  0
C  C143  1  0.56226551  0.57544292  0.44312696  1  0.053312  0  -0.072574  -0.137627  0  3.932385  0
C  C144  1  0.62538151  0.47668045  0.57913256  1  -0.094327  0  -0.069134  -0.062983  0  3.919557  0
C  C145  1  0.54686761  0.47855134  0.58968903  1  0.019143  0  -0.068859  -0.103336  0  3.926688  0
C  C146  1  0.31875245  0.57965576  0.47631652  1  -0.02555  0  -0.069378  -0.063413  0  3.919482  0
C  C147  1  0.38486351  0.59016145  0.47818719  1  -0.059107  0  -0.0688  -0.103083  0  3.926347  0
C  C148  1  0.43775672  0.52126596  0.52582851  1  -0.027989  0  0.010224  0.089602  0  3.97908  0
C  C149  1  0.51517571  0.52619628  0.52083791  1  -0.039155  0  0.010769  0.089878  0  3.978931  0
S  S150  1  0.34549448  0.63458130  0.19401427  1  3.109856  0  0.544135  1.167938  0  5.974712  0
S  S151  1  0.68199713  0.33798150  0.83297549  1  3.100399  0  0.544715  1.172281  0  5.981821  0
S  S152  1  0.14704457  0.83356870  0.33744991  1  3.123694  0  0.544698  1.17243  0  5.983081  0
S  S153  1  0.82600947  0.19449352  0.63413778  1  3.089822  0  0.544142  1.167617  0  5.977874  0
S  S154  1  0.33605287  0.19205849  0.33103817  1  3.108817  0  0.545623  1.174217  0  5.977892  0
S  S155  1  0.69346805  0.84079238  0.63725654  1  3.125036  0  0.54405  1.16946  0  5.977752  0
S  S156  1  0.82840082  0.63766989  0.84038756  1  3.128905  0  0.543926  1.168702  0  5.977549  0
S  S157  1  0.14100239  0.33157841  0.19151747  1  3.10668  0  0.545379  1.17365  0  5.979097  0
S  S158  1  0.33994636  0.32781252  0.64492734  1  3.098551  0  0.538441  1.15576  0  5.996244  0
S  S159  1  0.68732738  0.64532466  0.32729836  1  3.084009  0  0.538045  1.154853  0  5.99566  0
O  O160  1  0.78896731  0.44887689  0.69463895  1  -1.18425  0  -0.358074  -0.624152  0  2.403985  0
O  O161  1  0.06751020  0.69520158  0.44835553  1  -1.184755  0  -0.358682  -0.625298  0  2.403508  0
O  O162  1  0.20362575  0.55962913  0.29833450  1  -1.185999  0  -0.355931  -0.623339  0  2.403704  0
O  O163  1  0.93845216  0.29887809  0.55908212  1  -1.189651  0  -0.356278  -0.62342  0  2.404341  0
O  O164  1  0.05558283  0.29145277  0.70021812  1  -1.185078  0  -0.367283  -0.625956  0  2.303627  0
O  O165  1  0.79612454  0.56779294  0.43585350  1  -1.189673  0  -0.353755  -0.626539  0  2.388535  0
O  O166  1  0.95271439  0.70073421  0.29093749  1  -1.182071  0  -0.366944  -0.62491  0  2.305072  0
O  O167  1  0.20013612  0.43643912  0.56735118  1  -1.197295  0  -0.353827  -0.626819  0  2.388902  0
O  O168  1  0.93817007  0.56093110  0.70246635  1  -1.186129  0  -0.367048  -0.636714  0  2.404041  0
O  O169  1  0.19723080  0.29362118  0.44572369  1  -1.186375  0  -0.356443  -0.622578  0  2.394402  0
O  O170  1  0.06351306  0.44628810  0.29304778  1  -1.188613  0  -0.356714  -0.623265  0  2.392628  0
O  O171  1  0.79840513  0.70300013  0.56040556  1  -1.18724  0  -0.366925  -0.637127  0  2.401557  0
O  O172  1  0.20538033  0.28917360  0.56224611  1  -1.185028  0  -0.342467  -0.625774  0  2.270776  0
O  O173  1  0.94328146  0.56278597  0.28859725  1  -1.187755  0  -0.342978  -0.626626  0  2.269761  0
O  O174  1  0.79619319  0.70757467  0.44084525  1  -1.170038  0  -0.345716  -0.601066  0  2.262415  0
O  O175  1  0.05531490  0.44131147  0.70710345  1  -1.179629  0  -0.345405  -0.600227  0  2.262824  0
O  O176  1  0.93081720  0.29637003  0.70692194  1  -1.186625  0  -0.347252  -0.622767  0  2.297617  0
O  O177  1  0.20956168  0.55294775  0.44568120  1  -1.190348  0  -0.342411  -0.615078  0  2.306161  0
O  O178  1  0.06586119  0.70747220  0.29580516  1  -1.184386  0  -0.346514  -0.621997  0  2.296108  0
O  O179  1  0.79189783  0.44612105  0.55235532  1  -1.199542  0  -0.341899  -0.614501  0  2.30636  0
O  O180  1  0.05577358  0.29620449  0.43895542  1  -1.186865  0  -0.342317  -0.619235  0  2.308048  0
O  O181  1  0.79040756  0.56126530  0.70519636  1  -1.180373  0  -0.340959  -0.613415  0  2.30535  0
O  O182  1  0.94314759  0.70574447  0.56075426  1  -1.18797  0  -0.340635  -0.613368  0  2.304631  0
O  O183  1  0.20912877  0.43948052  0.29569194  1  -1.180807  0  -0.342705  -0.619455  0  2.308313  0
O  O184  1  0.94770512  0.45227018  0.44498284  1  -1.244297  0  -0.703524  -1.077321  0  2.393179  0
O  O185  1  0.15505191  0.44558204  0.45174885  1  -1.2562  0  -0.703452  -1.078124  0  2.394696  0
O  O186  1  0.95152149  0.65689456  0.44741767  1  -1.231328  0  -0.701457  -1.076061  0  2.380742  0
O  O187  1  0.94417317  0.44793760  0.65634826  1  -1.268903  0  -0.701773  -1.076574  0  2.384576  0
O  O188  1  0.03872754  0.53661590  0.54116677  1  -1.200286  0  -0.792455  -1.143838  0  2.13029  0
O  O189  1  0.88351655  0.54167929  0.53605791  1  -1.197147  0  -0.792402  -1.143639  0  2.129875  0
O  O190  1  0.04084923  0.53992318  0.38354912  1  -1.196804  0  -0.793011  -1.141329  0  2.128415  0
O  O191  1  0.03572257  0.38407908  0.53936428  1  -1.194199  0  -0.793367  -1.141335  0  2.129901  0
O  O192  1  0.35088854  0.57116709  0.28768247  1  -1.232261  0  -0.366198  -0.536281  0  2.199227  0
O  O193  1  0.42272632  0.65687258  0.14802142  1  -1.284361  0  -0.30626  -0.506581  0  2.106348  0
O  O194  1  0.26308106  0.70115027  0.19925129  1  -1.29957  0  -0.30863  -0.540185  0  2.216018  0
O  O195  1  0.77465060  0.29766463  0.84086352  1  -1.241148  0  -0.363823  -0.54164  0  2.23359  0
O  O196  1  0.63356088  0.28476561  0.90772510  1  -1.284967  0  -0.310636  -0.513635  0  2.10891  0
O  O197  1  0.68744040  0.35311022  0.74877905  1  -1.291718  0  -0.307716  -0.540874  0  2.23043  0
O  O198  1  0.08680925  0.84143898  0.29715285  1  -1.236533  0  -0.364111  -0.541319  0  2.234106  0
O  O199  1  0.17390110  0.90835245  0.28425799  1  -1.291919  0  -0.310411  -0.513148  0  2.108426  0
O  O200  1  0.21070219  0.74938612  0.35251342  1  -1.306494  0  -0.307893  -0.541144  0  2.230745  0
O  O201  1  0.79030707  0.28812316  0.57071783  1  -1.229803  0  -0.36632  -0.536723  0  2.20028  0
O  O202  1  0.77250595  0.14845240  0.65646814  1  -1.276527  0  -0.306156  -0.50599  0  2.106735  0
O  O203  1  0.83660308  0.19979129  0.70067914  1  -1.284314  0  -0.308694  -0.540407  0  2.217617  0
O  O204  1  0.34317006  0.28554062  0.29103519  1  -1.249732  0  -0.364246  -0.538386  0  2.223003  0
O  O205  1  0.41025377  0.14571042  0.27684911  1  -1.29044  0  -0.309284  -0.511716  0  2.108009  0
O  O206  1  0.25182319  0.19591199  0.34752490  1  -1.288441  0  -0.308223  -0.541719  0  2.228052  0
O  O207  1  0.78815178  0.84563142  0.57943043  1  -1.235777  0  -0.364331  -0.535491  0  2.214085  0
O  O208  1  0.64731620  0.91636209  0.66137018  1  -1.285054  0  -0.308036  -0.508419  0  2.108071  0
O  O209  1  0.69483442  0.75731026  0.70264420  1  -1.305877  0  -0.308376  -0.539846  0  2.221562  0
O  O210  1  0.78672411  0.57986807  0.84515003  1  -1.234383  0  -0.364785  -0.536011  0  2.21413  0
O  O211  1  0.77485515  0.66176655  0.91597029  1  -1.290767  0  -0.308179  -0.508333  0  2.107378  0
O  O212  1  0.84517498  0.70307114  0.75692433  1  -1.30496  0  -0.308029  -0.539464  0  2.221047  0
O  O213  1  0.08041273  0.29151024  0.28498017  1  -1.248189  0  -0.36445  -0.538287  0  2.222977  0
O  O214  1  0.16747731  0.27739911  0.14510274  1  -1.276906  0  -0.309101  -0.510997  0  2.107442  0
O  O215  1  0.20480329  0.34811783  0.19545585  1  -1.291322  0  -0.307983  -0.541834  0  2.229317  0
O  O216  1  0.34732687  0.28957387  0.58273091  1  -1.224579  0  -0.36583  -0.536116  0  2.204931  0
O  O217  1  0.41610053  0.27528702  0.66810893  1  -1.288356  0  -0.304858  -0.502932  0  2.110314  0
O  O218  1  0.25655559  0.33690942  0.71101179  1  -1.300021  0  -0.313056  -0.541635  0  2.169807  0
O  O219  1  0.78039488  0.58319329  0.28899122  1  -1.242927  0  -0.365368  -0.535622  0  2.204698  0
O  O220  1  0.64049097  0.66848653  0.27479988  1  -1.275313  0  -0.304838  -0.502652  0  2.110557  0
O  O221  1  0.69549875  0.71142430  0.33640953  1  -1.289706  0  -0.313154  -0.541797  0  2.169871  0
