# generated using pymatgen
data_CoH12C17N3O4
_symmetry_space_group_name_H-M   'P 1'
_cell_length_a   10.12043805
_cell_length_b   14.21352970
_cell_length_c   15.32566042
_cell_angle_alpha   118.10782651
_cell_angle_beta   97.25614897
_cell_angle_gamma   91.51629799
_symmetry_Int_Tables_number   1
_chemical_formula_structural   CoH12C17N3O4
_chemical_formula_sum   'Co4 H48 C68 N12 O16'
_cell_volume   1919.64729915
_cell_formula_units_Z   4
loop_
 _symmetry_equiv_pos_site_id
 _symmetry_equiv_pos_as_xyz
  1  'x, y, z'
loop_
 _atom_site_type_symbol
 _atom_site_label
 _atom_site_symmetry_multiplicity
 _atom_site_fract_x
 _atom_site_fract_y
 _atom_site_fract_z
 _atom_site_occupancy
 _atom_site_pbe_bader_charge
 _atom_site_pbe_bader_spin_density
 _atom_site_pbe_cm5_charge
 _atom_site_pbe_ddec_charge
 _atom_site_pbe_ddec_spin_density
 _atom_site_pbe_ddec_sum_bond_order
 _atom_site_pbe_magmom
Co  Co0  1  0.52000209  0.37221798  0.85210175  1  1.220342  -2.56251  0.694006  0.826587  -2.835231  2.549474  -2.509
Co  Co1  1  0.98318633  0.01721269  0.14776741  1  1.22121  2.563443  0.698362  0.829444  2.839029  2.564845  2.511
Co  Co2  1  0.46660612  0.62038769  0.14368993  1  1.116644  0.956766  0.653511  0.684346  1.043612  2.858586  0.921
Co  Co3  1  0.01729485  0.98134615  0.85217229  1  1.222786  -2.56379  0.699237  0.830936  -2.836792  2.567579  -2.512
H  H4  1  0.99723509  0.34454044  0.81224946  1  0.135201  -0.00034  0.1043  0.11006  -0.00018  1.016926  0.0
H  H5  1  0.50166083  0.03183954  0.18550540  1  0.130112  0.000366  0.104318  0.109843  0.000196  1.018076  0.0
H  H6  1  0.02189314  0.65101131  0.19152061  1  0.090748  -8.2e-05  0.104196  0.108854  -9.9e-05  1.012252  0.0
H  H7  1  0.49599372  0.96728232  0.81259739  1  0.119634  -0.000375  0.103671  0.10848  -0.000195  1.01893  0.0
H  H8  1  0.27684033  0.39075320  0.06736499  1  0.094344  -8.8e-05  0.104613  0.107743  0.000111  1.031044  0.0
H  H9  1  0.21971540  0.82122761  0.92558844  1  0.082983  0.000463  0.103733  0.107775  0.000286  1.037178  0.0
H  H10  1  0.71788550  0.60835317  0.95028465  1  0.111541  -0.000189  0.104471  0.106875  -0.000161  1.035579  0.0
H  H11  1  0.78030012  0.17991513  0.06983161  1  0.075878  -0.000475  0.103228  0.107596  -0.000278  1.036923  0.0
H  H12  1  0.85304415  0.38939439  0.07972370  1  0.086676  -0.000589  0.104812  0.107835  -0.000292  1.010193  0.0
H  H13  1  0.64414570  0.80818601  0.91820422  1  0.090854  0.000576  0.10395  0.107418  0.000291  1.010561  0.0
H  H14  1  0.13430757  0.62022959  0.91784339  1  0.095739  8.6e-05  0.106689  0.10978  3e-06  1.004004  0.0
H  H15  1  0.35646013  0.19495930  0.07964216  1  0.074231  -0.000605  0.104553  0.108156  -0.000305  1.007887  0.0
H  H16  1  0.20557479  0.43439101  0.21991522  1  0.070787  9.8e-05  0.105875  0.086876  8e-06  1.016926  0.0
H  H17  1  0.29203137  0.70333321  0.77512466  1  0.044412  -0.00012  0.106197  0.08699  -2.3e-05  1.018278  0.0
H  H18  1  0.77351010  0.58232222  0.79621953  1  0.097979  -0.00011  0.106044  0.08909  9e-06  1.026423  0.0
H  H19  1  0.71087295  0.29597669  0.22061939  1  0.06655  -9.5e-05  0.10498  0.085697  -6e-05  1.02366  0.0
H  H20  1  0.05055758  0.49097459  0.23965025  1  0.075319  0.000282  0.120561  0.108627  0.000128  0.953496  0.0
H  H21  1  0.44596078  0.74731887  0.75541547  1  0.078202  -0.000302  0.121482  0.111758  -0.000132  0.949002  0.0
H  H22  1  0.91542248  0.51077494  0.76506562  1  0.06892  -0.000282  0.121826  0.113251  -0.000123  0.949152  0.0
H  H23  1  0.55569976  0.25547761  0.24118975  1  0.071334  5.9e-05  0.121931  0.111991  2.7e-05  0.947926  0.0
H  H24  1  0.95607632  0.42816442  0.34424899  1  0.146614  0.000893  0.124771  0.125097  0.000383  0.998893  0.0
H  H25  1  0.53747185  0.57871395  0.64885132  1  0.110349  -0.000898  0.124891  0.124458  -0.000372  0.99925  0.0
H  H26  1  0.02988930  0.56792877  0.66334207  1  0.11258  -0.000919  0.124307  0.124505  -0.000385  1.000576  0.0
H  H27  1  0.45909281  0.41942331  0.34366123  1  0.104521  -5.4e-05  0.124716  0.124414  -7e-06  1.000454  0.0
H  H28  1  0.88772169  0.22429582  0.32135371  1  0.135871  0.000957  0.12589  0.127291  0.000245  0.992558  0.001
H  H29  1  0.61017359  0.40328675  0.67442415  1  0.102226  -0.000915  0.126252  0.126171  -0.000226  0.989942  -0.001
H  H30  1  0.10949485  0.76792928  0.68160436  1  0.12715  -0.000951  0.125273  0.125415  -0.00024  0.992374  -0.001
H  H31  1  0.39890298  0.60092015  0.32527344  1  0.114824  0.000302  0.125582  0.122548  7e-06  0.992287  0.0
H  H32  1  0.09775267  0.19064002  0.08874155  1  0.201602  0.000542  0.143921  0.126435  0.000338  1.008393  0.0
H  H33  1  0.40744596  0.60278774  0.91042028  1  0.214585  -0.000491  0.142298  0.124987  -0.000223  1.027999  0.0
H  H34  1  0.89359642  0.81578769  0.91527126  1  0.214333  -0.000495  0.142862  0.125397  -0.000327  1.016732  0.0
H  H35  1  0.61005141  0.40665955  0.09249729  1  0.219594  7.4e-05  0.142777  0.125832  0.00019  1.01551  0.0
H  H36  1  0.60762597  0.15801460  0.79651173  1  0.120964  -0.002498  0.122037  0.092566  -0.000924  1.001624  -0.002
H  H37  1  0.88807502  0.85763869  0.20072091  1  0.096604  0.002593  0.121807  0.092219  0.001005  1.00326  0.002
H  H38  1  0.38952839  0.83870577  0.19714509  1  0.104241  0.002499  0.118694  0.09222  0.000821  1.015236  0.002
H  H39  1  0.11074721  0.14023676  0.79855017  1  0.109894  -0.002614  0.121453  0.091589  -0.00099  1.00458  -0.002
H  H40  1  0.61429386  0.99201948  0.64131156  1  0.103063  -0.000806  0.109475  0.119877  -0.000298  1.016287  0.0
H  H41  1  0.88171401  0.84432343  0.35347626  1  0.112788  0.000726  0.10828  0.121555  0.0003  1.031633  0.0
H  H42  1  0.38168743  0.00369218  0.35260604  1  0.074822  0.001046  0.107981  0.118645  0.000394  1.020631  0.0
H  H43  1  0.11684637  0.15319561  0.64568152  1  0.101689  -0.000776  0.108962  0.12096  -0.000287  1.023663  0.0
H  H44  1  0.37346396  0.13087698  0.48403278  1  0.076565  -0.000854  0.107121  0.11261  -0.000355  1.019258  0.0
H  H45  1  0.12772700  0.14971043  0.51556286  1  0.091487  0.000879  0.107868  0.113667  0.000374  1.017233  0.0
H  H46  1  0.62776978  0.86624466  0.50848699  1  0.072419  0.000932  0.105679  0.110139  0.000392  1.023073  0.0
H  H47  1  0.87305962  0.84670526  0.48358487  1  0.084185  -0.000901  0.109631  0.117428  -0.000371  1.012476  0.0
H  H48  1  0.36857199  0.28845987  0.64997553  1  0.12762  -0.002714  0.117363  0.090728  -0.001082  1.008767  -0.002
H  H49  1  0.13313761  0.14287306  0.35112859  1  0.115274  0.002734  0.118617  0.092555  0.001076  1.002411  0.002
H  H50  1  0.63369990  0.70972791  0.34210255  1  0.147831  0.002803  0.115592  0.091706  0.001  1.028416  0.002
H  H51  1  0.86864018  0.85342610  0.64813034  1  0.087277  -0.002761  0.118798  0.092262  -0.001084  1.001866  -0.002
C  C52  1  0.77271911  0.36186017  0.89240658  1  1.543337  -0.000769  0.194559  0.543777  -0.001527  4.229629  0.001
C  C53  1  0.72644373  0.96780767  0.10782451  1  1.527335  0.00109  0.196352  0.549893  0.001725  4.222475  -0.001
C  C54  1  0.23915584  0.63977182  0.09234718  1  1.486441  0.00112  0.200734  0.526842  0.001316  4.13762  0.001
C  C55  1  0.27249612  0.03235195  0.89181149  1  1.522634  -0.000905  0.195101  0.54676  -0.001619  4.226552  0.001
C  C56  1  0.91061517  0.36287729  0.94019623  1  0.000971  -0.002808  -0.017664  -0.026572  -0.001485  3.993588  -0.002
C  C57  1  0.58701928  0.92203286  0.05750685  1  -0.018794  0.003031  -0.016467  -0.024375  0.001602  3.995406  0.002
C  C58  1  0.09446296  0.63824419  0.05902266  1  -0.033496  -8.3e-05  -0.014104  -0.025188  -0.000231  3.984629  0.0
C  C59  1  0.41213284  0.07923827  0.94050280  1  -0.043898  -0.002933  -0.016684  -0.025349  -0.001557  3.995308  -0.002
C  C60  1  0.01695947  0.35537506  0.88807320  1  -0.045464  -0.002062  -0.072452  -0.102147  -0.001123  3.941892  -0.002
C  C61  1  0.48104354  0.96681337  0.10875424  1  -0.004171  0.001975  -0.071818  -0.101616  0.001111  3.941129  0.002
C  C62  1  0.99489246  0.64138812  0.11645097  1  0.04407  -0.000861  -0.070982  -0.105887  -0.000533  3.911163  -0.001
C  C63  1  0.51743510  0.03349085  0.88875550  1  0.016158  -0.002025  -0.072194  -0.103285  -0.001131  3.944137  -0.002
C  C64  1  0.14842578  0.36496445  0.93371352  1  -0.024463  -0.004199  -0.021691  -0.037223  -0.00222  3.997147  -0.003
C  C65  1  0.34912337  0.93031077  0.06139228  1  -0.056376  0.003988  -0.018343  -0.029128  0.002108  3.982687  0.003
C  C66  1  0.85877428  0.63171720  0.07779841  1  -0.086911  -0.001751  -0.014915  -0.030906  -0.00096  3.942973  -0.001
C  C67  1  0.64971803  0.07008150  0.93508400  1  -0.074611  -0.004275  -0.019606  -0.031442  -0.002239  3.988692  -0.003
C  C68  1  0.26108841  0.36464494  0.87922421  1  1.548184  -0.001584  0.195823  0.559909  -0.002202  4.226858  0.0
C  C69  1  0.23765078  0.98354558  0.11623811  1  1.563024  0.002381  0.196832  0.562541  0.002701  4.21994  0.001
C  C70  1  0.75166688  0.63350707  0.13973798  1  1.561397  -6.7e-05  0.205585  0.561239  -0.000221  4.178479  0.0
C  C71  1  0.76086474  0.01531677  0.88072108  1  1.547763  -0.002367  0.196859  0.562441  -0.002683  4.22369  -0.001
C  C72  1  0.17351566  0.38133799  0.03203306  1  -0.051446  -0.000347  -0.075102  -0.118602  -6.6e-05  3.918961  0.0
C  C73  1  0.32323710  0.84774590  0.96213122  1  0.05718  0.000658  -0.074444  -0.117982  0.000364  3.907864  0.0
C  C74  1  0.82357478  0.61791624  0.98078640  1  0.001156  -0.000694  -0.073841  -0.118517  -0.000371  3.905192  0.0
C  C75  1  0.67652221  0.15360836  0.03382475  1  -0.028371  -0.000699  -0.076033  -0.121606  -0.000394  3.91108  0.0
C  C76  1  0.06812737  0.39050484  0.08509181  1  -0.066955  -4e-05  -0.015413  0.076054  -1.4e-05  4.000094  0.0
C  C77  1  0.42848246  0.80332411  0.91013087  1  -0.072033  8.2e-05  -0.014452  0.07848  -5e-06  3.995468  0.0
C  C78  1  0.92168387  0.61300969  0.92276787  1  -0.032509  -9.7e-05  -0.011819  0.084951  -5e-06  3.987475  0.0
C  C79  1  0.57205627  0.19898184  0.08634595  1  0.074119  -0.000167  -0.015303  0.077202  -4.9e-05  3.999994  0.0
C  C80  1  0.93653833  0.38028360  0.03872408  1  -0.001369  -0.000908  -0.074341  -0.123465  -0.000492  3.916994  -0.001
C  C81  1  0.56044535  0.84029478  0.95817835  1  -0.044727  0.000865  -0.076079  -0.127441  0.000488  3.918958  0.001
C  C82  1  0.05654002  0.62478409  0.96247065  1  -0.049286  -0.00071  -0.074918  -0.126062  -0.000448  3.918296  -0.001
C  C83  1  0.43964063  0.16217013  0.03929427  1  -0.020471  -0.000895  -0.074644  -0.123727  -0.00053  3.914586  -0.001
C  C84  1  0.09713383  0.41833007  0.19366736  1  0.302114  0.001026  -0.042763  -0.102541  0.000618  3.90054  0.001
C  C85  1  0.40036639  0.71936894  0.80157201  1  0.313557  -0.001015  -0.042402  -0.102829  -0.000651  3.893543  -0.001
C  C86  1  0.88263666  0.58852926  0.81553400  1  0.295164  -0.001094  -0.042643  -0.104034  -0.000651  3.895859  -0.001
C  C87  1  0.60239840  0.28258202  0.19485813  1  0.285155  0.000378  -0.042677  -0.103309  0.000213  3.901323  0.0
C  C88  1  0.97603264  0.34883439  0.29007369  1  0.274826  0.003465  -0.008556  -0.138092  0.001871  3.979025  0.002
C  C89  1  0.52066922  0.55558769  0.70485506  1  0.312248  -0.003548  -0.007194  -0.133665  -0.001955  3.971483  -0.002
C  C90  1  0.01325629  0.64876997  0.71635129  1  0.25093  -0.003742  -0.009103  -0.137336  -0.002026  3.977422  -0.002
C  C91  1  0.48207673  0.44559679  0.29087729  1  0.305543  0.001491  -0.008007  -0.135481  0.000739  3.984704  0.001
C  C92  1  0.94418001  0.24871562  0.27867238  1  0.367503  0.002122  -0.001383  -0.039352  0.001116  4.041203  0.002
C  C93  1  0.55510061  0.46964875  0.71787308  1  0.404634  -0.002221  -0.000996  -0.040639  -0.001112  4.044101  -0.002
C  C94  1  0.05087091  0.74702215  0.72553050  1  0.428962  -0.002218  -0.001713  -0.040532  -0.001166  4.043511  -0.002
C  C95  1  0.45360000  0.53455797  0.28131649  1  0.392883  -0.003158  -0.002714  -0.050701  -0.002295  4.033745  -0.003
C  C96  1  0.05157974  0.22684367  0.15614424  1  0.932086  0.004772  0.156263  0.11285  0.00333  3.846108  0.004
C  C97  1  0.45196881  0.57061177  0.84217305  1  0.96011  -0.005744  0.15316  0.108821  -0.003891  3.843199  -0.005
C  C98  1  0.94009785  0.77631916  0.84822872  1  0.94742  -0.005515  0.156443  0.117187  -0.003791  3.842015  -0.005
C  C99  1  0.56340783  0.43687709  0.15964771  1  0.924131  -0.001743  0.152284  0.101651  -5.7e-05  3.819399  0.0
C  C100  1  0.55617255  0.14801655  0.72531477  1  0.460297  0.006414  0.051193  0.107662  0.002777  3.92747  0.004
C  C101  1  0.94097995  0.92005014  0.27233741  1  0.449429  -0.007426  0.052134  0.107784  -0.003302  3.928707  -0.005
C  C102  1  0.44077897  0.84821539  0.26816360  1  0.47163  -0.007672  0.04489  0.091635  -0.003234  3.930023  -0.005
C  C103  1  0.05835638  0.07743602  0.72691239  1  0.471331  0.007945  0.053223  0.109335  0.003551  3.926343  0.005
C  C104  1  0.55986002  0.05497279  0.63658162  1  -0.026697  -0.009209  -0.077297  -0.159768  -0.004752  3.908398  -0.007
C  C105  1  0.93710201  0.91459430  0.35986960  1  -0.011372  0.009336  -0.078438  -0.162514  0.004814  3.911145  0.007
C  C106  1  0.43678250  0.94096414  0.35713323  1  0.039241  0.010031  -0.080848  -0.163107  0.005353  3.925978  0.008
C  C107  1  0.06179650  0.08283235  0.63933442  1  -0.044763  -0.009352  -0.077404  -0.159619  -0.004791  3.910842  -0.007
C  C108  1  0.49630475  0.04547663  0.54515173  1  0.007711  0.010663  0.00777  0.100313  0.005674  3.982843  0.008
C  C109  1  0.00230708  0.99835867  0.45180220  1  -0.037879  -0.013204  0.00775  0.099197  -0.007012  3.983144  -0.009
C  C110  1  0.50152189  0.95074436  0.44830100  1  -0.027799  -0.012919  0.002774  0.090621  -0.006813  3.995149  -0.009
C  C111  1  0.99708083  0.99875842  0.54739087  1  0.026487  0.013983  0.00754  0.09698  0.007428  3.984019  0.01
C  C112  1  0.42643763  0.13214865  0.55101950  1  0.000273  -0.008467  -0.087223  -0.181298  -0.004366  3.966716  -0.006
C  C113  1  0.07371804  0.08233972  0.44793263  1  0.01251  0.008812  -0.085655  -0.178421  0.004528  3.965834  0.007
C  C114  1  0.57311445  0.86468780  0.44186873  1  -0.071627  0.006121  -0.090321  -0.182735  0.003297  3.97602  0.005
C  C115  1  0.92655958  0.91437263  0.55124413  1  -0.0566  -0.008848  -0.084499  -0.177708  -0.004513  3.959905  -0.007
C  C116  1  0.42427895  0.22126034  0.64272817  1  0.41264  0.005191  0.041296  0.08548  0.002099  3.978599  0.003
C  C117  1  0.07624080  0.08059277  0.35715372  1  0.428411  -0.006477  0.042431  0.084725  -0.002743  3.977311  -0.004
C  C118  1  0.57545156  0.77583904  0.34994440  1  0.443882  -0.006141  0.037841  0.075284  -0.002778  3.972851  -0.004
C  C119  1  0.92471916  0.91604983  0.64208414  1  0.535517  0.007107  0.042449  0.086499  0.003009  3.973212  0.004
N  N120  1  0.49089934  0.23104700  0.72912122  1  -1.230649  -0.07703  -0.342668  -0.243264  -0.041413  3.648878  -0.058
N  N121  1  0.00835837  0.00188515  0.27022983  1  -1.210938  0.076365  -0.343059  -0.242448  0.041128  3.659765  0.057
N  N122  1  0.50698757  0.76512660  0.26358521  1  -1.200274  0.077828  -0.333936  -0.211328  0.041429  3.610047  0.066
N  N123  1  0.99207197  0.99515770  0.72898629  1  -1.228009  -0.07674  -0.342435  -0.241235  -0.041253  3.659593  -0.057
N  N124  1  0.04325473  0.33353755  0.21199354  1  -1.219046  0.004871  -0.241226  0.046424  0.002169  3.774475  0.003
N  N125  1  0.45624361  0.61869021  0.78412280  1  -1.237451  -0.005087  -0.238586  0.047948  -0.002246  3.769443  -0.003
N  N126  1  0.94370690  0.66879836  0.79450171  1  -1.221668  -0.004976  -0.240371  0.043305  -0.002187  3.779684  -0.003
N  N127  1  0.55067145  0.38481538  0.21367993  1  -1.233984  5.9e-05  -0.240561  0.045862  -0.000137  3.777305  0.0
N  N128  1  0.99198875  0.17369085  0.19507053  1  -1.187062  0.063855  -0.361879  -0.301418  0.034754  3.676558  0.041
N  N129  1  0.51178472  0.48007786  0.80370450  1  -1.218064  -0.06248  -0.362113  -0.306591  -0.034008  3.671916  -0.04
N  N130  1  0.00458781  0.82551932  0.80794977  1  -1.213381  -0.064016  -0.362648  -0.302737  -0.034794  3.678515  -0.04
N  N131  1  0.50517597  0.52817345  0.19952999  1  -1.15562  0.007043  -0.364692  -0.246734  0.003728  3.717561  -0.001
O  O132  1  0.67485340  0.36673933  0.94140284  1  -1.143728  -0.103751  -0.323942  -0.54004  -0.054614  2.301254  -0.08
O  O133  1  0.82313306  0.92314060  0.05862939  1  -1.142669  0.105029  -0.326565  -0.54591  0.055446  2.305682  0.081
O  O134  1  0.33105486  0.65719521  0.04958751  1  -1.128728  0.003542  -0.294567  -0.498002  0.001528  2.203675  -0.001
O  O135  1  0.17623913  0.07763531  0.94109000  1  -1.141509  -0.105371  -0.326306  -0.543358  -0.055516  2.295472  -0.081
O  O136  1  0.75213737  0.35899319  0.80839094  1  -1.158224  -0.050578  -0.317639  -0.551408  -0.026225  2.143893  -0.043
O  O137  1  0.74945496  0.04788091  0.19374720  1  -1.164359  0.048288  -0.317791  -0.549706  0.024953  2.13781  0.041
O  O138  1  0.27994998  0.61843560  0.16386749  1  -1.080739  -0.013396  -0.293737  -0.474125  -0.007592  2.298242  -0.013
O  O139  1  0.24889801  0.95035003  0.80705139  1  -1.163323  -0.050715  -0.317728  -0.550183  -0.02627  2.139036  -0.043
O  O140  1  0.38011140  0.38806119  0.93227371  1  -1.140375  -0.099041  -0.329054  -0.557142  -0.05158  2.349095  -0.079
O  O141  1  0.11759416  0.94717457  0.06567805  1  -1.134316  0.10748  -0.329749  -0.554197  0.056394  2.350441  0.084
O  O142  1  0.62892464  0.61398758  0.09196678  1  -1.081925  -0.010545  -0.310691  -0.51466  -0.005824  2.394067  -0.01
O  O143  1  0.88070289  0.05140446  0.93173542  1  -1.131317  -0.107014  -0.330464  -0.554241  -0.056136  2.3496  -0.083
O  O144  1  0.23860118  0.34445323  0.78950364  1  -1.175064  -0.019938  -0.333591  -0.57118  -0.010081  2.114116  -0.016
O  O145  1  0.26166856  0.05853391  0.20466479  1  -1.186845  0.025415  -0.336929  -0.576156  0.0129  2.100838  0.02
O  O146  1  0.78615292  0.65294389  0.22820188  1  -1.176835  0.000524  -0.334842  -0.562273  0.00016  2.117198  0.0
O  O147  1  0.73634499  0.93952446  0.79275490  1  -1.1856  -0.023231  -0.337814  -0.5764  -0.011722  2.1002  -0.018
