# generated using pymatgen
data_Zn2H12C19N6O7
_symmetry_space_group_name_H-M   'P 1'
_cell_length_a   10.49721686
_cell_length_b   11.03575475
_cell_length_c   10.77143256
_cell_angle_alpha   79.54911277
_cell_angle_beta   62.55226461
_cell_angle_gamma   69.50103908
_symmetry_Int_Tables_number   1
_chemical_formula_structural   Zn2H12C19N6O7
_chemical_formula_sum   'Zn4 H24 C38 N12 O14'
_cell_volume   1036.93067926
_cell_formula_units_Z   2
loop_
 _symmetry_equiv_pos_site_id
 _symmetry_equiv_pos_as_xyz
  1  'x, y, z'
loop_
 _atom_site_type_symbol
 _atom_site_label
 _atom_site_symmetry_multiplicity
 _atom_site_fract_x
 _atom_site_fract_y
 _atom_site_fract_z
 _atom_site_occupancy
 _atom_site_hle17_bader_spin_density
 _atom_site_hle17_ddec_charge
 _atom_site_hle17_ddec_spin_density
 _atom_site_hle17_ddec_sum_bond_order
 _atom_site_hle17_magmom
 _atom_site_hse06_10hf_bader_spin_density
 _atom_site_hse06_10hf_ddec_charge
 _atom_site_hse06_10hf_ddec_spin_density
 _atom_site_hse06_10hf_ddec_sum_bond_order
 _atom_site_hse06_10hf_magmom
 _atom_site_hse06_bader_spin_density
 _atom_site_hse06_ddec_charge
 _atom_site_hse06_ddec_spin_density
 _atom_site_hse06_ddec_sum_bond_order
 _atom_site_hse06_magmom
 _atom_site_pbe_bader_spin_density
 _atom_site_pbe_cm5_charge
 _atom_site_pbe_ddec_charge
 _atom_site_pbe_ddec_spin_density
 _atom_site_pbe_ddec_sum_bond_order
 _atom_site_pbe_magmom
Zn  Zn0  1  0.07926200  0.22822346  0.24842689  1  0  1.058556  0  1.805695  0  0  0.878037  0  2.268134  0  0  0.925274  0  2.213681  0  0  0.704703  0.844943  0  2.305488  0
Zn  Zn1  1  0.92073539  0.77177389  0.75157624  1  0  1.058523  0  1.805822  0  0  0.877993  0  2.268258  0  0  0.925231  0  2.213803  0  0  0.704687  0.844895  0  2.305612  0
Zn  Zn2  1  0.04850567  0.79638943  0.27254985  1  0  1.099709  0  1.774253  0  0  0.919682  0  2.25321  0  0  0.96789  0  2.192556  0  0  0.698583  0.885869  0  2.294461  0
Zn  Zn3  1  0.95149818  0.20361085  0.72744893  1  0  1.099711  0  1.774299  0  0  0.91969  0  2.253268  0  0  0.967902  0  2.192603  0  0  0.698552  0.885879  0  2.294531  0
H  H4  1  0.51630856  0.16219322  0.89270248  1  0  0.119982  0  0.927787  0  0  0.128288  0  0.988473  0  0  0.132514  0  0.98515  0  0  0.114142  0.125074  0  0.991181  0
H  H5  1  0.48370285  0.83780995  0.10729518  1  0  0.119894  0  0.927743  0  0  0.128184  0  0.988468  0  0  0.13241  0  0.985145  0  0  0.114088  0.12497  0  0.991175  0
H  H6  1  0.54212151  0.86286108  0.58318140  1  0  0.097914  0  0.968804  0  0  0.10619  0  1.032668  0  0  0.108666  0  1.033526  0  0  0.101735  0.104263  0  1.032587  0
H  H7  1  0.45788230  0.13713331  0.41682680  1  0  0.097919  0  0.9688  0  0  0.106187  0  1.032668  0  0  0.108669  0  1.033528  0  0  0.101714  0.10426  0  1.03259  0
H  H8  1  0.29659093  0.96739541  0.77866467  1  0  0.107844  0  0.937997  0  0  0.11765  0  0.997375  0  0  0.121839  0  0.99378  0  0  0.107445  0.114568  0  1.000107  0
H  H9  1  0.70341861  0.03259798  0.22134578  1  0  0.107927  0  0.93796  0  0  0.117722  0  0.997321  0  0  0.121912  0  0.993724  0  0  0.107461  0.11464  0  1.000054  0
H  H10  1  0.51366977  0.73457757  0.37400879  1  0  0.09427  0  0.972044  0  0  0.105074  0  1.034387  0  0  0.106879  0  1.035307  0  0  0.102192  0.103791  0  1.033733  0
H  H11  1  0.48632236  0.26542847  0.62599701  1  0  0.094288  0  0.971818  0  0  0.104968  0  1.034314  0  0  0.106817  0  1.035183  0  0  0.102143  0.103675  0  1.033688  0
H  H12  1  0.78375990  0.68010713  0.21318080  1  0  0.09567  0  0.952339  0  0  0.106943  0  1.011833  0  0  0.109287  0  1.011073  0  0  0.10247  0.105469  0  1.011909  0
H  H13  1  0.21623762  0.31990186  0.78681834  1  0  0.095658  0  0.952461  0  0  0.106976  0  1.011897  0  0  0.109321  0  1.011134  0  0  0.102483  0.105491  0  1.011988  0
H  H14  1  0.89313740  0.44454046  0.53643324  1  0  0.09513  0  0.975155  0  0  0.102698  0  1.044098  0  0  0.105334  0  1.042942  0  0  0.100988  0.100832  0  1.044918  0
H  H15  1  0.10685755  0.55546371  0.46356420  1  0  0.095118  0  0.975044  0  0  0.10269  0  1.044008  0  0  0.105328  0  1.04285  0  0  0.100972  0.100822  0  1.044829  0
H  H16  1  0.62440388  0.49997175  0.70016309  1  0  0.099046  0  0.952621  0  0  0.109048  0  1.013539  0  0  0.1122  0  1.011895  0  0  0.104125  0.106756  0  1.014692  0
H  H17  1  0.37558886  0.50002658  0.29983917  1  0  0.099046  0  0.952689  0  0  0.109057  0  1.013583  0  0  0.112216  0  1.011939  0  0  0.104128  0.106764  0  1.014735  0
H  H18  1  0.09911030  0.68031904  0.94857092  1  0  0.097171  0  0.944695  0  0  0.104528  0  1.009213  0  0  0.106743  0  1.006845  0  0  0.137708  0.10315  0  1.010419  0
H  H19  1  0.90088718  0.31968708  0.05142504  1  0  0.09711  0  0.944743  0  0  0.104457  0  1.009272  0  0  0.106673  0  1.006905  0  0  0.137689  0.10308  0  1.010479  0
H  H20  1  0.26134034  0.73037067  0.51029845  1  0  0.119827  0  0.955109  0  0  0.127233  0  1.018417  0  0  0.129845  0  1.017428  0  0  0.120451  0.125291  0  1.019196  0
H  H21  1  0.73866129  0.26962385  0.48969492  1  0  0.119829  0  0.95513  0  0  0.127181  0  1.018495  0  0  0.129784  0  1.017529  0  0  0.12041  0.125249  0  1.019261  0
H  H22  1  0.38188387  0.61077165  0.84853059  1  0  0.31848  0  0.848213  0  0  0.305125  0  0.900613  0  0  0.311802  0  0.895598  0  0  0.343045  0.300489  0  0.904099  0
H  H23  1  0.61811215  0.38923252  0.15146637  1  0  0.318457  0  0.848329  0  0  0.305094  0  0.900739  0  0  0.311772  0  0.895723  0  0  0.343004  0.300457  0  0.904229  0
H  H24  1  0.08567858  0.97152393  0.07071061  1  0  0.4348  0  0.866099  0  0  0.405182  0  0.926677  0  0  0.415216  0  0.912282  0  0  0.298996  0.398221  0  0.936668  0
H  H25  1  0.91431964  0.02848307  0.92929414  1  0  0.434709  0  0.86622  0  0  0.40514  0  0.926706  0  0  0.415172  0  0.912315  0  0  0.298993  0.398182  0  0.936691  0
H  H26  1  0.98388514  0.89193039  0.06735987  1  0  0.434404  0  0.873311  0  0  0.401776  0  0.939766  0  0  0.412791  0  0.92369  0  0  0.296437  0.394031  0  0.951048  0
H  H27  1  0.01611415  0.10807665  0.93264068  1  0  0.434493  0  0.873209  0  0  0.401882  0  0.939626  0  0  0.412896  0  0.92355  0  0  0.296478  0.394143  0  0.950895  0
C  C28  1  0.81541264  0.86661615  0.52624777  1  0  0.677938  0  3.853645  0  0  0.624042  0  4.145364  0  0  0.659524  0  4.136274  0  0  0.223265  0.599823  0  4.150881  0
C  C29  1  0.18459589  0.13338606  0.47375042  1  0  0.67816  0  3.853144  0  0  0.624217  0  4.144972  0  0  0.659698  0  4.135882  0  0  0.223419  0.599999  0  4.150487  0
C  C30  1  0.26396954  0.70666493  0.61152549  1  0  -0.018439  0  3.649566  0  0  -0.055347  0  3.908608  0  0  -0.054047  0  3.929119  0  0  0.012904  -0.056085  0  3.894803  0
C  C31  1  0.73602783  0.29333248  0.38847021  1  0  -0.018399  0  3.649523  0  0  -0.055239  0  3.908561  0  0  -0.053944  0  3.929077  0  0  0.012986  -0.055979  0  3.894762  0
C  C32  1  0.38724125  0.65724282  0.64233994  1  0  0.117021  0  3.76268  0  0  0.107612  0  4.015992  0  0  0.108976  0  4.039758  0  0  0.087588  0.106715  0  3.999913  0
C  C33  1  0.61275504  0.34275459  0.35765625  1  0  0.117056  0  3.762584  0  0  0.10769  0  4.015841  0  0  0.109056  0  4.039607  0  0  0.087635  0.106788  0  3.999771  0
C  C34  1  0.54783006  0.62313575  0.55007107  1  0  0.031037  0  3.842667  0  0  0.044796  0  4.080146  0  0  0.046213  0  4.103119  0  0  -0.005053  0.043784  0  4.064618  0
C  C35  1  0.45216620  0.37685878  0.44992379  1  0  0.030983  0  3.842601  0  0  0.04472  0  4.080072  0  0  0.046135  0  4.103063  0  0  -0.005076  0.043715  0  4.064541  0
C  C36  1  0.59612452  0.67132805  0.41093997  1  0  -0.098355  0  3.723287  0  0  -0.116364  0  3.968974  0  0  -0.119673  0  3.990489  0  0  -0.084307  -0.114304  0  3.954769  0
C  C37  1  0.40386541  0.32867515  0.58905990  1  0  -0.098184  0  3.722748  0  0  -0.116079  0  3.968452  0  0  -0.119421  0  3.989953  0  0  -0.08418  -0.114028  0  3.954247  0
C  C38  1  0.74842281  0.64115869  0.32012425  1  0  -0.079544  0  3.740117  0  0  -0.102673  0  3.989504  0  0  -0.10327  0  4.009878  0  0  -0.084423  -0.102421  0  3.975859  0
C  C39  1  0.25156782  0.35884256  0.67987751  1  0  -0.079616  0  3.740306  0  0  -0.102793  0  3.989636  0  0  -0.103393  0  4.010024  0  0  -0.084484  -0.10253  0  3.975994  0
C  C40  1  0.80957938  0.51032505  0.50254105  1  0  -0.072836  0  3.720336  0  0  -0.094663  0  3.968979  0  0  -0.095057  0  3.989223  0  0  -0.085146  -0.094396  0  3.955299  0
C  C41  1  0.19041728  0.48967135  0.49745979  1  0  -0.072701  0  3.720236  0  0  -0.094546  0  3.968856  0  0  -0.09495  0  3.989124  0  0  -0.085107  -0.094278  0  3.955172  0
C  C42  1  0.85703805  0.56035093  0.36506114  1  0  -0.012328  0  3.803775  0  0  0.007026  0  4.042529  0  0  0.004197  0  4.064836  0  0  -0.010215  0.008857  0  4.027724  0
C  C43  1  0.14295323  0.43964549  0.63494026  1  0  -0.012486  0  3.803911  0  0  0.006912  0  4.042624  0  0  0.004083  0  4.06493  0  0  -0.010299  0.008746  0  4.027811  0
C  C44  1  0.01798940  0.52969082  0.26774498  1  0  0.306311  0  3.790043  0  0  0.273604  0  4.056585  0  0  0.2868  0  4.073739  0  0  0.22789  0.264961  0  4.044694  0
C  C45  1  0.98200085  0.47030848  0.73225823  1  0  0.306302  0  3.790121  0  0  0.273579  0  4.056665  0  0  0.286774  0  4.073819  0  0  0.227912  0.264937  0  4.04477  0
C  C46  1  0.79710159  0.06411547  0.70289342  1  0  0.657667  0  3.873955  0  0  0.606941  0  4.161223  0  0  0.641227  0  4.154982  0  0  0.21212  0.583802  0  4.164593  0
C  C47  1  0.20290724  0.93588290  0.29710068  1  0  0.657671  0  3.873579  0  0  0.606991  0  4.160749  0  0  0.641279  0  4.154511  0  0  0.212169  0.583849  0  4.16412  0
C  C48  1  0.25140387  0.11981844  0.97892457  1  0  0.661763  0  3.890153  0  0  0.607302  0  4.18413  0  0  0.64163  0  4.176323  0  0  0.216685  0.584494  0  4.188371  0
C  C49  1  0.74859749  0.88018280  0.02107515  1  0  0.661773  0  3.890282  0  0  0.607313  0  4.184245  0  0  0.641641  0  4.176439  0  0  0.216681  0.584502  0  4.188489  0
C  C50  1  0.39293051  0.06658171  0.85207354  1  0  -0.070742  0  3.759532  0  0  -0.047297  0  3.999107  0  0  -0.056161  0  4.021868  0  0  -0.015793  -0.041943  0  3.984127  0
C  C51  1  0.60707476  0.93341760  0.14792477  1  0  -0.070592  0  3.759554  0  0  -0.04721  0  3.999178  0  0  -0.056072  0  4.021934  0  0  -0.015795  -0.041853  0  3.9842  0
C  C52  1  0.52308880  0.09492615  0.82564015  1  0  -0.054415  0  3.681148  0  0  -0.091926  0  3.933386  0  0  -0.089101  0  3.95033  0  0  -0.070417  -0.093503  0  3.922373  0
C  C53  1  0.47691866  0.90507604  0.17435945  1  0  -0.054355  0  3.681105  0  0  -0.091837  0  3.933357  0  0  -0.089006  0  3.950301  0  0  -0.070426  -0.093417  0  3.922342  0
C  C54  1  0.66180810  0.03434399  0.71828543  1  0  -0.084186  0  3.745147  0  0  -0.068069  0  3.982272  0  0  -0.075101  0  4.002982  0  0  -0.013442  -0.063824  0  3.968536  0
C  C55  1  0.33819539  0.96565430  0.28171851  1  0  -0.084204  0  3.745225  0  0  -0.068112  0  3.982368  0  0  -0.075157  0  4.003095  0  0  -0.013389  -0.063865  0  3.968631  0
C  C56  1  0.66942457  0.94522956  0.63453530  1  0  -0.051306  0  3.700152  0  0  -0.035083  0  3.928268  0  0  -0.037397  0  3.946528  0  0  -0.000447  -0.033187  0  3.915824  0
C  C57  1  0.33058531  0.05476589  0.36546070  1  0  -0.05119  0  3.700119  0  0  -0.034991  0  3.92828  0  0  -0.037299  0  3.946547  0  0  -0.000414  -0.033094  0  3.915832  0
C  C58  1  0.53620139  0.92647688  0.65335890  1  0  -0.0753  0  3.714145  0  0  -0.096677  0  3.964544  0  0  -0.099589  0  3.984518  0  0  -0.082334  -0.094865  0  3.951474  0
C  C59  1  0.46380490  0.07351657  0.34664557  1  0  -0.07535  0  3.714295  0  0  -0.096712  0  3.964692  0  0  -0.099635  0  3.984675  0  0  -0.082339  -0.094901  0  3.951622  0
C  C60  1  0.39893269  0.98523543  0.76234136  1  0  -0.038801  0  3.692992  0  0  -0.067907  0  3.9473  0  0  -0.064992  0  3.963679  0  0  -0.07458  -0.06979  0  3.93635  0
C  C61  1  0.60107402  0.01476285  0.23766392  1  0  -0.038989  0  3.693034  0  0  -0.068049  0  3.947322  0  0  -0.065135  0  3.963702  0  0  -0.074576  -0.069935  0  3.936378  0
C  C62  1  0.65705418  0.54192265  0.59441775  1  0  -0.102853  0  3.714171  0  0  -0.12436  0  3.964001  0  0  -0.127764  0  3.984583  0  0  -0.089454  -0.121867  0  3.949926  0
C  C63  1  0.34294530  0.45807185  0.40557845  1  0  -0.102911  0  3.71427  0  0  -0.124418  0  3.964096  0  0  -0.127834  0  3.984688  0  0  -0.089448  -0.121922  0  3.950016  0
C  C64  1  0.17427001  0.67942210  0.83825700  1  0  0.243586  0  3.654913  0  0  0.178992  0  3.933312  0  0  0.194056  0  3.944337  0  0  0.152065  0.169169  0  3.925619  0
C  C65  1  0.82572493  0.32058208  0.16173859  1  0  0.243697  0  3.654977  0  0  0.179135  0  3.93339  0  0  0.194201  0  3.944414  0  0  0.152105  0.169312  0  3.925696  0
N  N66  1  0.13347513  0.71917027  0.73365401  1  0  -0.37936  0  3.298842  0  0  -0.300477  0  3.59803  0  0  -0.320587  0  3.61011  0  0  -0.351623  -0.286901  0  3.589713  0
N  N67  1  0.86652296  0.28082813  0.26633934  1  0  -0.379353  0  3.298793  0  0  -0.300513  0  3.598007  0  0  -0.320622  0  3.610087  0  0  -0.351638  -0.286935  0  3.589692  0
N  N68  1  0.32592877  0.64132816  0.78711260  1  0  -0.312669  0  3.413931  0  0  -0.252785  0  3.647911  0  0  -0.268354  0  3.662291  0  0  -0.3658  -0.242461  0  3.638233  0
N  N69  1  0.67406825  0.35867020  0.21288494  1  0  -0.312743  0  3.414225  0  0  -0.252882  0  3.648221  0  0  -0.268447  0  3.662596  0  0  -0.365811  -0.242557  0  3.638547  0
N  N70  1  0.11037846  0.41476323  0.21014439  1  0  -0.343211  0  3.143504  0  0  -0.280408  0  3.438253  0  0  -0.298819  0  3.450432  0  0  -0.228043  -0.268367  0  3.429735  0
N  N71  1  0.88961325  0.58523800  0.78985967  1  0  -0.34319  0  3.143592  0  0  -0.280391  0  3.438354  0  0  -0.298803  0  3.450531  0  0  -0.228017  -0.268348  0  3.429832  0
N  N72  1  0.24647734  0.43185071  0.12333289  1  0  -0.056549  0  2.939664  0  0  -0.058686  0  3.236824  0  0  -0.055507  0  3.246125  0  0  -0.096171  -0.060541  0  3.230438  0
N  N73  1  0.75351683  0.56814662  0.87667448  1  0  -0.0565  0  2.939725  0  0  -0.058632  0  3.236883  0  0  -0.055452  0  3.246181  0  0  -0.096174  -0.060486  0  3.230495  0
N  N74  1  0.23832769  0.55165131  0.12774200  1  0  -0.102363  0  2.963033  0  0  -0.101727  0  3.267199  0  0  -0.100888  0  3.276384  0  0  -0.106076  -0.102301  0  3.260903  0
N  N75  1  0.76166614  0.44834698  0.87226628  1  0  -0.10242  0  2.962953  0  0  -0.101795  0  3.267133  0  0  -0.100955  0  3.27631  0  0  -0.106071  -0.102367  0  3.260838  0
N  N76  1  0.09557270  0.61603840  0.21833789  1  0  -0.383697  0  3.225334  0  0  -0.31152  0  3.538007  0  0  -0.331898  0  3.547965  0  0  -0.253026  -0.298073  0  3.530966  0
N  N77  1  0.90442112  0.38395991  0.78166667  1  0  -0.383599  0  3.225247  0  0  -0.311418  0  3.537918  0  0  -0.331792  0  3.54787  0  0  -0.253024  -0.297973  0  3.530878  0
O  O78  1  0.78287237  0.18496948  0.70360204  1  0  -0.628731  0  1.997044  0  0  -0.557217  0  2.258301  0  0  -0.58581  0  2.243097  0  0  -0.319879  -0.536832  0  2.267635  0
O  O79  1  0.21713184  0.81502980  0.29639954  1  0  -0.628663  0  1.996954  0  0  -0.557169  0  2.258187  0  0  -0.585763  0  2.24298  0  0  -0.319854  -0.536785  0  2.267525  0
O  O80  1  0.83447044  0.88334334  0.39927235  1  0  -0.610977  0  2.026068  0  0  -0.54269  0  2.290874  0  0  -0.571716  0  2.276929  0  0  -0.305456  -0.522233  0  2.299578  0
O  O81  1  0.16553273  0.11665883  0.60073011  1  0  -0.611114  0  2.026061  0  0  -0.542773  0  2.290838  0  0  -0.571798  0  2.27689  0  0  -0.305465  -0.522325  0  2.299563  0
O  O82  1  0.91298287  0.78333283  0.56221480  1  0  -0.633259  0  2.067507  0  0  -0.567025  0  2.341734  0  0  -0.595888  0  2.327558  0  0  -0.305495  -0.54682  0  2.351006  0
O  O83  1  0.08703071  0.21667326  0.43777857  1  0  -0.633394  0  2.067238  0  0  -0.567151  0  2.341507  0  0  -0.596012  0  2.327325  0  0  -0.305638  -0.54695  0  2.350786  0
O  O84  1  0.91456748  0.97447169  0.69630134  1  0  -0.617407  0  2.035429  0  0  -0.552688  0  2.282539  0  0  -0.579387  0  2.271662  0  0  -0.304246  -0.53395  0  2.289321  0
O  O85  1  0.08544100  0.02552767  0.30368995  1  0  -0.617467  0  2.035165  0  0  -0.55272  0  2.282204  0  0  -0.579419  0  2.271325  0  0  -0.304322  -0.533997  0  2.289013  0
O  O86  1  0.26396675  0.17045476  0.06836606  1  0  -0.611703  0  2.100588  0  0  -0.544926  0  2.371314  0  0  -0.573569  0  2.35936  0  0  -0.304026  -0.525513  0  2.378921  0
O  O87  1  0.73603493  0.82954257  0.93163793  1  0  -0.611747  0  2.100681  0  0  -0.544931  0  2.371366  0  0  -0.573575  0  2.359412  0  0  -0.304011  -0.525529  0  2.379003  0
O  O88  1  0.12642684  0.11075437  0.99585566  1  0  -0.683968  0  2.069081  0  0  -0.619683  0  2.298676  0  0  -0.644389  0  2.286499  0  0  -0.325271  -0.602392  0  2.306082  0
O  O89  1  0.87357628  0.88924498  0.00413804  1  0  -0.683941  0  2.069137  0  0  -0.619647  0  2.2987  0  0  -0.644355  0  2.286523  0  0  -0.325277  -0.602357  0  2.306117  0
O  O90  1  0.07034909  0.88497365  0.08739804  1  0  -0.845163  0  1.920101  0  0  -0.77765  0  2.138049  0  0  -0.800009  0  2.101414  0  0  -0.584823  -0.761843  0  2.163009  0
O  O91  1  0.92964948  0.11503241  0.91260486  1  0  -0.845186  0  1.920167  0  0  -0.77769  0  2.138098  0  0  -0.800063  0  2.101485  0  0  -0.584863  -0.761885  0  2.163055  0
