# generated using pymatgen
data_Zn4H9C28S2O13F5
_symmetry_space_group_name_H-M   'P 1'
_cell_length_a   18.56170275
_cell_length_b   19.74192635
_cell_length_c   32.84695026
_cell_angle_alpha   86.01514104
_cell_angle_beta   73.58895561
_cell_angle_gamma   61.95696074
_symmetry_Int_Tables_number   1
_chemical_formula_structural   Zn4H9C28S2O13F5
_chemical_formula_sum   'Zn16 H36 C112 S8 O52 F20'
_cell_volume   10162.04956172
_cell_formula_units_Z   4
loop_
 _symmetry_equiv_pos_site_id
 _symmetry_equiv_pos_as_xyz
  1  'x, y, z'
loop_
 _atom_site_type_symbol
 _atom_site_label
 _atom_site_symmetry_multiplicity
 _atom_site_fract_x
 _atom_site_fract_y
 _atom_site_fract_z
 _atom_site_occupancy
 _atom_site_pbe_bader_charge
 _atom_site_pbe_bader_spin_density
 _atom_site_pbe_cm5_charge
 _atom_site_pbe_ddec_charge
 _atom_site_pbe_ddec_spin_density
 _atom_site_pbe_ddec_sum_bond_order
 _atom_site_pbe_magmom
Zn  Zn0  1  0.87384682  0.55658106  0.51887137  1  1.316671  0  0.671908  0.959175  0  2.354727  0
Zn  Zn1  1  0.03851341  0.48461615  0.43819845  1  1.31453  0  0.677717  0.963181  0  2.405755  0
Zn  Zn2  1  0.04137280  0.39862117  0.52353749  1  1.316117  0  0.672974  0.963396  0  2.368756  0
Zn  Zn3  1  0.04673591  0.55981518  0.51827876  1  1.318706  0  0.673006  0.964318  0  2.366853  0
Zn  Zn4  1  0.62498859  0.19047878  0.73187071  1  1.310055  0  0.673652  0.962339  0  2.372294  0
Zn  Zn5  1  0.46448684  0.35036616  0.72580676  1  1.315765  0  0.674655  0.960604  0  2.379588  0
Zn  Zn6  1  0.45848239  0.26543700  0.81238540  1  1.310317  0  0.673757  0.964131  0  2.365313  0
Zn  Zn7  1  0.45225447  0.19318973  0.72938134  1  1.319319  0  0.673255  0.963468  0  2.369103  0
Zn  Zn8  1  0.46171940  0.76374004  0.31305672  1  1.31606  0  0.669813  0.956636  0  2.352966  0
Zn  Zn9  1  0.45373528  0.69221600  0.23070888  1  1.32124  0  0.678351  0.963888  0  2.404739  0
Zn  Zn10  1  0.62481697  0.69298554  0.22935275  1  1.312747  0  0.673864  0.964284  0  2.366851  0
Zn  Zn11  1  0.45869642  0.85138673  0.22620516  1  1.318508  0  0.673027  0.962134  0  2.372106  0
Zn  Zn12  1  0.03630239  0.89884036  0.02374359  1  1.321001  0  0.673651  0.960633  0  2.372709  0
Zn  Zn13  1  0.04959655  0.05736897  0.01908445  1  1.315446  0  0.670943  0.958433  0  2.350773  0
Zn  Zn14  1  0.87646696  0.05865894  0.01961388  1  1.319615  0  0.675954  0.964682  0  2.398065  0
Zn  Zn15  1  0.03624347  0.98515796  0.93754384  1  1.306654  0  0.673094  0.962689  0  2.373025  0
H  H16  1  0.80268566  0.96619843  0.65541336  1  0.123723  0  0.123246  0.149793  0  0.965475  0
H  H17  1  0.31116167  0.97624027  0.40147474  1  0.126409  0  0.120739  0.146253  0  0.970638  0
H  H18  1  0.54294429  0.48239178  0.62163441  1  0.067554  0  0.10256  0.115411  0  0.973662  0
H  H19  1  0.54819483  0.52249872  0.66696817  1  0.043807  0  0.102822  0.115669  0  0.972537  0
H  H20  1  0.64422382  0.57065378  0.61891059  1  0.055555  0  0.101521  0.11344  0  0.974864  0
H  H21  1  0.63897943  0.53050589  0.57355722  1  0.05662  0  0.099135  0.108954  0  0.981126  0
H  H22  1  0.35303770  0.67384513  0.43095671  1  0.062924  0  0.098089  0.107467  0  0.982645  0
H  H23  1  0.26226865  0.76206465  0.42835505  1  0.028033  0  0.099045  0.110051  0  0.977866  0
H  H24  1  0.16607874  0.71401834  0.47630086  1  0.063632  0  0.099967  0.11123  0  0.97666  0
H  H25  1  0.25672264  0.62583642  0.47894156  1  0.057721  0  0.10084  0.112651  0  0.975132  0
H  H26  1  0.54734712  0.76219030  0.42812039  1  0.03137  0  0.099245  0.110255  0  0.978269  0
H  H27  1  0.54219760  0.67398619  0.43063729  1  0.08335  0  0.098247  0.107617  0  0.982618  0
H  H28  1  0.63839818  0.62579439  0.47861028  1  0.063164  0  0.098821  0.108315  0  0.980813  0
H  H29  1  0.64359646  0.71391981  0.47612006  1  0.065135  0  0.101303  0.11345  0  0.974815  0
H  H30  1  0.33371909  0.17936419  0.63106679  1  0.077631  0  0.100694  0.11149  0  0.976539  0
H  H31  1  0.24308940  0.21931752  0.67645821  1  0.063034  0  0.102184  0.114853  0  0.972578  0
H  H32  1  0.14683457  0.26739557  0.62840774  1  0.045906  0  0.101842  0.11459  0  0.973958  0
H  H33  1  0.23759173  0.22737740  0.58305237  1  0.075296  0  0.100864  0.11224  0  0.976602  0
H  H34  1  0.18913027  0.65978692  0.96231644  1  0.136379  0  0.124125  0.150846  0  0.96406  0
H  H35  1  0.95716350  0.07642732  0.81936100  1  0.074554  0  0.102025  0.114424  0  0.973888  0
H  H36  1  0.95187287  0.98836671  0.82199526  1  0.041912  0  0.100892  0.112333  0  0.97635  0
H  H37  1  0.85587105  0.03625760  0.77395486  1  0.066104  0  0.100161  0.111075  0  0.97701  0
H  H38  1  0.86100062  0.12442578  0.77127616  1  0.066297  0  0.101791  0.114211  0  0.97444  0
H  H39  1  0.16625872  0.21374162  0.97596890  1  0.072947  0  0.099846  0.110345  0  0.977556  0
H  H40  1  0.25703368  0.12563057  0.97862766  1  0.05438  0  0.099683  0.109067  0  0.980386  0
H  H41  1  0.35307420  0.17368358  0.93053093  1  0.077417  0  0.10348  0.117147  0  0.971634  0
H  H42  1  0.26232519  0.26172522  0.92791334  1  0.036407  0  0.100782  0.112713  0  0.975755  0
H  H43  1  0.92558166  0.28366783  0.09458853  1  0.108319  0  0.121297  0.146878  0  0.970032  0
H  H44  1  0.25689120  0.03115694  0.07341641  1  0.068285  0  0.098694  0.107795  0  0.981971  0
H  H45  1  0.16600211  0.07135003  0.11877036  1  0.066293  0  0.100222  0.111  0  0.976599  0
H  H46  1  0.26195766  0.02316924  0.16687024  1  0.077702  0  0.101369  0.113423  0  0.974683  0
H  H47  1  0.35277323  0.98301459  0.12156682  1  0.046387  0  0.102269  0.114915  0  0.97359  0
H  H48  1  0.95188372  0.72696892  0.08316908  1  0.04021  0  0.100162  0.110597  0  0.977407  0
H  H49  1  0.95724737  0.76706893  0.12849758  1  0.057142  0  0.103334  0.116775  0  0.972325  0
H  H50  1  0.86106564  0.71913956  0.17658227  1  0.062503  0  0.103393  0.116697  0  0.971548  0
H  H51  1  0.85579575  0.67897910  0.13124720  1  0.051503  0  0.1005  0.111368  0  0.977305  0
C  C52  1  0.86230640  0.56825279  0.43106322  1  1.569079  0  0.229335  0.626922  0  4.173841  0
C  C53  1  0.12326991  0.31607429  0.43835434  1  1.560838  0  0.214933  0.62614  0  4.224033  0
C  C54  1  0.86346523  0.43035091  0.56851267  1  1.589563  0  0.228569  0.626242  0  4.171593  0
C  C55  1  0.13796513  0.43206621  0.56838431  1  1.581434  0  0.229799  0.628179  0  4.169319  0
C  C56  1  0.87566618  0.68386162  0.56088881  1  1.619524  0  0.216163  0.631229  0  4.215602  0
C  C57  1  0.13741416  0.56908823  0.43103416  1  1.573171  0  0.230021  0.625717  0  4.172976  0
C  C58  1  0.63902202  0.31747278  0.68128507  1  1.592225  0  0.228269  0.625117  0  4.173242  0
C  C59  1  0.37746155  0.43440405  0.81066442  1  1.571734  0  0.215174  0.627875  0  4.219367  0
C  C60  1  0.63633971  0.18119382  0.81922714  1  1.556295  0  0.22958  0.628073  0  4.167586  0
C  C61  1  0.36190727  0.18124816  0.81823809  1  1.579454  0  0.229633  0.627008  0  4.167954  0
C  C62  1  0.62305571  0.06556030  0.68851404  1  1.555219  0  0.218308  0.609478  0  4.221881  0
C  C63  1  0.36329623  0.31915775  0.68072789  1  1.578836  0  0.229806  0.627502  0  4.169134  0
C  C64  1  0.36283012  0.68118542  0.31891481  1  1.565598  0  0.22837  0.625468  0  4.177643  0
C  C65  1  0.62213221  0.56619740  0.18831731  1  1.54149  0  0.214217  0.624539  0  4.225337  0
C  C66  1  0.63753228  0.68127308  0.31842385  1  1.565178  0  0.229801  0.630102  0  4.167148  0
C  C67  1  0.63639779  0.81938640  0.18091178  1  1.585382  0  0.228486  0.625636  0  4.17166  0
C  C68  1  0.37670559  0.93372244  0.31172472  1  1.558498  0  0.217686  0.609069  0  4.220237  0
C  C69  1  0.36191994  0.81870881  0.18115341  1  1.568581  0  0.227768  0.622532  0  4.176019  0
C  C70  1  0.13716829  0.93097286  0.06859542  1  1.593339  0  0.23031  0.630649  0  4.166602  0
C  C71  1  0.87865923  0.18431843  0.06137808  1  1.542612  0  0.217629  0.606585  0  4.223217  0
C  C72  1  0.86179769  0.93156098  0.06873656  1  1.577417  0  0.228688  0.626812  0  4.172967  0
C  C73  1  0.86176423  0.06917085  0.93144734  1  1.57417  0  0.228651  0.624905  0  4.174445  0
C  C74  1  0.12163609  0.81562249  0.93862234  1  1.548577  0  0.218474  0.609273  0  4.220812  0
C  C75  1  0.13715421  0.06855867  0.93110474  1  1.586586  0  0.228984  0.628443  0  4.169359  0
C  C76  1  0.73807708  0.80260758  0.60088671  1  0.561383  0  0.101017  0.251979  0  4.083237  0
C  C77  1  0.75991228  0.94757614  0.64925403  1  0.060483  0  -0.085908  -0.130176  0  3.957326  0
C  C78  1  0.82578435  0.75816100  0.58601110  1  -0.120597  0  -0.037587  -0.247418  0  3.980895  0
C  C79  1  0.67226936  0.99072010  0.66358794  1  -0.182977  0  -0.021866  -0.117263  0  3.974814  0
C  C80  1  0.78355696  0.87893024  0.62632151  1  -0.163332  0  -0.019846  0.007104  0  4.084448  0
C  C81  1  0.71289002  0.87158458  0.62386184  1  -0.133122  0  -0.032979  -0.137833  0  4.10983  0
C  C82  1  0.20186327  0.22673150  0.36946271  1  0.602493  0  0.104097  0.254703  0  4.078324  0
C  C83  1  0.29879119  0.02243530  0.38012183  1  0.020555  0  -0.087986  -0.132995  0  3.968536  0
C  C84  1  0.17245997  0.24179292  0.41337629  1  -0.144294  0  -0.036977  -0.246029  0  3.982653  0
C  C85  1  0.32737340  0.00889694  0.33631130  1  -0.163399  0  -0.022312  -0.118129  0  3.977599  0
C  C86  1  0.25302353  0.10211468  0.39201499  1  -0.14296  0  -0.021095  0.005135  0  4.092665  0
C  C87  1  0.24793557  0.14739831  0.35674738  1  -0.112898  0  -0.031407  -0.136369  0  4.103501  0
C  C88  1  0.69700366  0.34457089  0.65285371  1  -0.014152  0  -0.017995  -0.168216  0  3.981861  0
C  C89  1  0.80819435  0.40056502  0.59705324  1  0.12196  0  -0.016575  -0.163971  0  3.977794  0
C  C90  1  0.66640847  0.41695369  0.63644313  1  0.002064  0  -0.005708  0.065622  0  3.905843  0
C  C91  1  0.83988153  0.32746228  0.61344616  1  0.491191  0  0.098148  0.156183  0  4.045459  0
C  C92  1  0.71940802  0.44356312  0.60987058  1  -0.057663  0  -0.007633  0.063119  0  3.909079  0
C  C93  1  0.78649691  0.30059198  0.64020035  1  0.59566  0  0.098692  0.159142  0  4.044257  0
C  C94  1  0.58575473  0.48985288  0.63596948  1  -0.001173  0  -0.14813  -0.196358  0  3.873607  0
C  C95  1  0.64589097  0.52004378  0.60585961  1  -0.007308  0  -0.14837  -0.194264  0  3.87937  0
C  C96  1  0.30587801  0.65225619  0.34641762  1  0.036926  0  -0.017311  -0.166801  0  3.982931  0
C  C97  1  0.19425468  0.59659446  0.40195796  1  -0.000648  0  -0.01792  -0.166704  0  3.982392  0
C  C98  1  0.28027134  0.66366086  0.39078182  1  0.004555  0  -0.008946  0.062064  0  3.916726  0
C  C99  1  0.21962963  0.58449320  0.35718885  1  0.539015  0  0.101277  0.159176  0  4.042427  0
C  C100  1  0.22713386  0.63717219  0.41722441  1  0.007553  0  -0.00761  0.063334  0  3.91454  0
C  C101  1  0.27320584  0.61132003  0.33048727  1  0.564414  0  0.101471  0.160615  0  4.039885  0
C  C102  1  0.28839772  0.69923786  0.42753211  1  0.006065  0  -0.150247  -0.196338  0  3.886272  0
C  C103  1  0.22809918  0.66912484  0.45756830  1  -0.015203  0  -0.147865  -0.192664  0  3.876683  0
C  C104  1  0.69578310  0.65230954  0.34608396  1  0.13687  0  -0.018216  -0.167665  0  3.97868  0
C  C105  1  0.80719029  0.59635516  0.40188214  1  -0.024  0  -0.017323  -0.167508  0  3.980737  0
C  C106  1  0.66540296  0.66379554  0.39047149  1  -0.041355  0  -0.008005  0.0632  0  3.912376  0
C  C107  1  0.83887321  0.58441608  0.35711521  1  0.558175  0  0.101522  0.161275  0  4.041122  0
C  C108  1  0.71847387  0.63715376  0.41699582  1  0.066256  0  -0.008047  0.064044  0  3.913562  0
C  C109  1  0.78532111  0.61132703  0.33034212  1  0.468451  0  0.10052  0.159729  0  4.040847  0
C  C110  1  0.58488390  0.69936125  0.42722694  1  -0.025631  0  -0.150249  -0.195543  0  3.883576  0
C  C111  1  0.64516838  0.66914760  0.45729787  1  -0.010356  0  -0.148361  -0.19373  0  3.879164  0
C  C112  1  0.30588465  0.34933861  0.65268727  1  0.083737  0  -0.017775  -0.167792  0  3.979969  0
C  C113  1  0.19427621  0.40521654  0.59701549  1  0.025538  0  -0.018041  -0.170211  0  3.979503  0
C  C114  1  0.27265332  0.30638658  0.64007391  1  -0.036963  0  -0.006651  0.065036  0  3.909131  0
C  C115  1  0.22706442  0.44931146  0.60965299  1  0.526637  0  0.098701  0.159731  0  4.043779  0
C  C116  1  0.21953641  0.33294835  0.61354453  1  0.037009  0  -0.007038  0.064962  0  3.907088  0
C  C117  1  0.28062288  0.42253202  0.63637586  1  0.507209  0  0.099422  0.159094  0  4.04267  0
C  C118  1  0.27166673  0.22989361  0.64415706  1  -0.032383  0  -0.147218  -0.193426  0  3.875168  0
C  C119  1  0.21141238  0.25999207  0.61406680  1  -0.010306  0  -0.148533  -0.196182  0  3.877092  0
C  C120  1  0.29848172  0.58245901  0.82103519  1  0.662262  0  0.102804  0.2539  0  4.078395  0
C  C121  1  0.20144731  0.66865759  0.92852625  1  0.066177  0  -0.086161  -0.131242  0  3.956501  0
C  C122  1  0.32785947  0.50902245  0.83538616  1  -0.157686  0  -0.037951  -0.247397  0  3.979308  0
C  C123  1  0.17249939  0.74113020  0.91336160  1  -0.201053  0  -0.021037  -0.115616  0  3.972847  0
C  C124  1  0.24735026  0.61092352  0.89463868  1  -0.198131  0  -0.019362  0.007551  0  4.084279  0
C  C125  1  0.25238504  0.64116489  0.85435098  1  -0.180501  0  -0.032223  -0.137368  0  4.105774  0
C  C126  1  0.80349772  0.09828438  0.90386182  1  0.009398  0  -0.016786  -0.166712  0  3.979789  0
C  C127  1  0.69184933  0.15384376  0.84823451  1  -0.024612  0  -0.018782  -0.168117  0  3.981195  0
C  C128  1  0.83378860  0.08684044  0.85948427  1  -0.032004  0  -0.005573  0.066145  0  3.910821  0
C  C129  1  0.66042519  0.16589322  0.89298373  1  0.541287  0  0.099332  0.158539  0  4.045071  0
C  C130  1  0.78065946  0.11330043  0.83296732  1  0.106666  0  -0.008539  0.060444  0  3.909215  0
C  C131  1  0.71398067  0.13924911  0.91972712  1  0.591114  0  0.100997  0.161169  0  4.041668  0
C  C132  1  0.91436295  0.05118989  0.82279308  1  -0.011234  0  -0.1481  -0.194413  0  3.87651  0
C  C133  1  0.85414271  0.08123359  0.79268300  1  -0.032954  0  -0.147998  -0.194138  0  3.877962  0
C  C134  1  0.19406529  0.09607298  0.90191921  1  0.046766  0  -0.01797  -0.167559  0  3.979533  0
C  C135  1  0.30551302  0.15182886  0.84600095  1  0.043574  0  -0.017097  -0.164771  0  3.977048  0
C  C136  1  0.22719815  0.13664910  0.91698576  1  -0.03194  0  -0.006722  0.063949  0  3.91226  0
C  C137  1  0.27264767  0.11082214  0.83033644  1  0.552052  0  0.099401  0.158078  0  4.042441  0
C  C138  1  0.28023216  0.16321817  0.89040063  1  0.005025  0  -0.006782  0.063396  0  3.909512  0
C  C139  1  0.21914634  0.08409201  0.85715494  1  0.521785  0  0.099447  0.158992  0  4.040978  0
C  C140  1  0.22827561  0.16881933  0.95723236  1  -0.024649  0  -0.1489  -0.192444  0  3.880804  0
C  C141  1  0.28847356  0.19890018  0.92709487  1  -0.001818  0  -0.14786  -0.196388  0  3.873946  0
C  C142  1  0.64288986  0.44706115  0.14906177  1  0.549533  0  0.102917  0.253275  0  4.077069  0
C  C143  1  0.85807159  0.30216404  0.10074433  1  0.07572  0  -0.089349  -0.134928  0  3.967242  0
C  C144  1  0.67159197  0.49149179  0.16375598  1  -0.05681  0  -0.036355  -0.245119  0  3.980332  0
C  C145  1  0.82801609  0.25903468  0.08632615  1  -0.13126  0  -0.021812  -0.117236  0  3.975664  0
C  C146  1  0.79012147  0.37071440  0.12365315  1  -0.168809  0  -0.019877  0.006475  0  4.090586  0
C  C147  1  0.70965229  0.37801396  0.12609950  1  -0.133018  0  -0.031129  -0.136535  0  4.103844  0
C  C148  1  0.19389492  0.90121896  0.09697438  1  0.058126  0  -0.019363  -0.170674  0  3.982708  0
C  C149  1  0.30530368  0.84547441  0.15273404  1  0.032407  0  -0.01592  -0.164881  0  3.978896  0
C  C150  1  0.22685129  0.94430979  0.10972211  1  -0.004226  0  -0.007908  0.063218  0  3.912095  0
C  C151  1  0.27262776  0.80123693  0.14012314  1  0.528778  0  0.101469  0.160901  0  4.041198  0
C  C152  1  0.27982155  0.91776323  0.13630101  1  -0.008109  0  -0.006335  0.065774  0  3.912861  0
C  C153  1  0.21911275  0.82806789  0.11334850  1  0.531186  0  0.099686  0.158995  0  4.040202  0
C  C154  1  0.22799562  0.02075342  0.10570456  1  -0.034288  0  -0.149181  -0.194007  0  3.8817  0
C  C155  1  0.28812219  0.99056225  0.13585629  1  -0.011718  0  -0.148297  -0.195583  0  3.875266  0
C  C156  1  0.80360346  0.90476596  0.09713791  1  0.053587  0  -0.018411  -0.168669  0  3.983302  0
C  C157  1  0.69191882  0.84925442  0.15279267  1  0.128795  0  -0.016727  -0.165136  0  3.978017  0
C  C158  1  0.83388737  0.83250438  0.11362366  1  -0.012482  0  -0.007293  0.063394  0  3.913215  0
C  C159  1  0.66047913  0.92243516  0.13646196  1  0.502905  0  0.099046  0.157892  0  4.04498  0
C  C160  1  0.78071224  0.80605126  0.14015658  1  -0.054836  0  -0.006804  0.063797  0  3.908943  0
C  C161  1  0.71407848  0.94911166  0.10973151  1  0.543009  0  0.10098  0.160397  0  4.04138  0
C  C162  1  0.91441938  0.75961996  0.11417210  1  0.00988  0  -0.147953  -0.194828  0  3.877837  0
C  C163  1  0.85414822  0.72958273  0.14428894  1  -0.008588  0  -0.147739  -0.19467  0  3.874938  0
S  S164  1  0.87881718  0.80146567  0.60045897  1  0.288839  0  0.08741  0.142534  0  2.738906  0
S  S165  1  0.61776836  0.94869759  0.64950220  1  0.301401  0  0.09497  0.158842  0  2.740437  0
S  S166  1  0.20155554  0.15742832  0.43973782  1  0.273281  0  0.083434  0.137619  0  2.744628  0
S  S167  1  0.29925152  0.09232407  0.30914047  1  0.299895  0  0.099504  0.16567  0  2.736314  0
S  S168  1  0.29875653  0.51164609  0.89077406  1  0.307388  0  0.087729  0.142626  0  2.73718  0
S  S169  1  0.20087095  0.74010661  0.85805273  1  0.341113  0  0.095366  0.159296  0  2.737055  0
S  S170  1  0.78230444  0.44814925  0.14936577  1  0.274826  0  0.084284  0.138537  0  2.743049  0
S  S171  1  0.71738207  0.30095757  0.10035860  1  0.298802  0  0.10333  0.170649  0  2.731531  0
O  O172  1  0.99892055  0.50042778  0.50061221  1  -1.232262  0  -0.571156  -1.032103  0  2.536935  0
O  O173  1  0.82341324  0.58376677  0.47085445  1  -1.15573  0  -0.309277  -0.538541  0  2.310187  0
O  O174  1  0.10284961  0.37615869  0.41765958  1  -1.158661  0  -0.311611  -0.526928  0  2.334375  0
O  O175  1  0.94353254  0.38719037  0.55877530  1  -1.159038  0  -0.31301  -0.541095  0  2.368113  0
O  O176  1  0.94224555  0.53160755  0.41425630  1  -1.148049  0  -0.309098  -0.533332  0  2.374379  0
O  O177  1  0.82422621  0.49764430  0.55634720  1  -1.165832  0  -0.307857  -0.53437  0  2.311356  0
O  O178  1  0.10548553  0.31337862  0.47892096  1  -1.14232  0  -0.321827  -0.550081  0  2.322885  0
O  O179  1  0.11549699  0.38409472  0.55946605  1  -1.155132  0  -0.306526  -0.531343  0  2.311255  0
O  O180  1  0.95667707  0.65644976  0.55101086  1  -1.176808  0  -0.320455  -0.546022  0  2.32291  0
O  O181  1  0.11733969  0.49905507  0.55534964  1  -1.164994  0  -0.312988  -0.541839  0  2.364583  0
O  O182  1  0.83449100  0.65379738  0.55125479  1  -1.161716  0  -0.316471  -0.539793  0  2.325219  0
O  O183  1  0.11212503  0.53123996  0.41428056  1  -1.151239  0  -0.309307  -0.533836  0  2.372721  0
O  O184  1  0.11907033  0.58636181  0.47077816  1  -1.148729  0  -0.309003  -0.536216  0  2.310626  0
O  O185  1  0.50017640  0.24953284  0.74993574  1  -1.216654  0  -0.571333  -1.031593  0  2.535034  0
O  O186  1  0.67231264  0.25053951  0.69442586  1  -1.166956  0  -0.313699  -0.544054  0  2.366364  0
O  O187  1  0.39910944  0.43523094  0.77024851  1  -1.141957  0  -0.314207  -0.534253  0  2.330314  0
O  O188  1  0.55629184  0.21852266  0.83581370  1  -1.16162  0  -0.312788  -0.541793  0  2.365479  0
O  O189  1  0.55964197  0.36517917  0.68993238  1  -1.163393  0  -0.30569  -0.528292  0  2.314058  0
O  O190  1  0.67547108  0.16403982  0.77952646  1  -1.151004  0  -0.307609  -0.53389  0  2.313364  0
O  O191  1  0.39442839  0.37502449  0.83235168  1  -1.172989  0  -0.320562  -0.546686  0  2.322837  0
O  O192  1  0.38446446  0.21864130  0.83767972  1  -1.165304  0  -0.306838  -0.531807  0  2.309565  0
O  O193  1  0.54199689  0.09547337  0.69736876  1  -1.147673  0  -0.317602  -0.543983  0  2.333379  0
O  O194  1  0.38253999  0.16717014  0.77823159  1  -1.16455  0  -0.313509  -0.542666  0  2.36522  0
O  O195  1  0.66550507  0.09349778  0.69892492  1  -1.160811  0  -0.314358  -0.535807  0  2.313346  0
O  O196  1  0.39015050  0.36238639  0.69070992  1  -1.162686  0  -0.312391  -0.540857  0  2.368027  0
O  O197  1  0.38053797  0.25126187  0.69225912  1  -1.160887  0  -0.307471  -0.5329  0  2.31142  0
O  O198  1  0.49998354  0.75092056  0.25058264  1  -1.230711  0  -0.571299  -1.031169  0  2.53553  0
O  O199  1  0.38642596  0.71777109  0.33832549  1  -1.168428  0  -0.310233  -0.539396  0  2.311085  0
O  O200  1  0.54133071  0.59540974  0.19842707  1  -1.132052  0  -0.310839  -0.526675  0  2.333309  0
O  O201  1  0.67097494  0.66780082  0.27842492  1  -1.162013  0  -0.31186  -0.540438  0  2.367241  0
O  O202  1  0.38309660  0.66726305  0.27896396  1  -1.140867  0  -0.309021  -0.533139  0  2.378339  0
O  O203  1  0.55802818  0.71751647  0.33799331  1  -1.157578  0  -0.310116  -0.538812  0  2.310122  0
O  O204  1  0.66527751  0.59523283  0.19728666  1  -1.174302  0  -0.321064  -0.548473  0  2.32364  0
O  O205  1  0.67530170  0.75135064  0.19227220  1  -1.163684  0  -0.306409  -0.531535  0  2.31326  0
O  O206  1  0.39473329  0.93573828  0.27121711  1  -1.142188  0  -0.317279  -0.542526  0  2.336305  0
O  O207  1  0.55635315  0.86303312  0.19109099  1  -1.161946  0  -0.312775  -0.541348  0  2.368082  0
O  O208  1  0.39657161  0.87402308  0.33288370  1  -1.169036  0  -0.316633  -0.539439  0  2.310248  0
O  O209  1  0.38319011  0.75146759  0.19378927  1  -1.155096  0  -0.308917  -0.533898  0  2.372715  0
O  O210  1  0.38417934  0.86671205  0.19031609  1  -1.153231  0  -0.307317  -0.532889  0  2.311248  0
O  O211  1  0.00125804  0.99987808  0.99992892  1  -1.222902  0  -0.571345  -1.030961  0  2.535324  0
O  O212  1  0.11064896  0.88742613  0.05863488  1  -1.166143  0  -0.312931  -0.541416  0  2.370425  0
O  O213  1  0.95959310  0.15516428  0.05161886  1  -1.156138  0  -0.31738  -0.542026  0  2.31189  0
O  O214  1  0.82851423  0.99906713  0.05633683  1  -1.161486  0  -0.310565  -0.536965  0  2.37169  0
O  O215  1  0.12027564  0.99865243  0.05673776  1  -1.159982  0  -0.309226  -0.537545  0  2.310859  0
O  O216  1  0.94119576  0.88341047  0.05932127  1  -1.161063  0  -0.307017  -0.534292  0  2.313523  0
O  O217  1  0.83601961  0.15551120  0.05180344  1  -1.168361  0  -0.315071  -0.53615  0  2.338935  0
O  O218  1  0.82852116  0.08419816  0.97139431  1  -1.156922  0  -0.310853  -0.537039  0  2.371535  0
O  O219  1  0.10174683  0.87553182  0.91745193  1  -1.169474  0  -0.318295  -0.545032  0  2.333567  0
O  O220  1  0.94114707  0.03117088  0.91201647  1  -1.161892  0  -0.306835  -0.532489  0  2.312787  0
O  O221  1  0.10194588  0.81364296  0.97902298  1  -1.150179  0  -0.313519  -0.534217  0  2.312891  0
O  O222  1  0.12028476  0.08471592  0.97084259  1  -1.151427  0  -0.308709  -0.537107  0  2.311588  0
O  O223  1  0.11050750  0.03195207  0.91433417  1  -1.157562  0  -0.312651  -0.540584  0  2.368086  0
F  F224  1  0.68140048  0.78334945  0.59445917  1  -0.621579  0  -0.090129  -0.108597  0  1.34917  0
F  F225  1  0.18886070  0.28084685  0.34131636  1  -0.6152  0  -0.082797  -0.098957  0  1.351961  0
F  F226  1  0.31149603  0.59772022  0.77986227  1  -0.61367  0  -0.087652  -0.105233  0  1.349861  0
F  F227  1  0.56064780  0.46645444  0.15551383  1  -0.614707  0  -0.081759  -0.097701  0  1.350579  0
F  F228  1  0.92414979  0.27865082  0.60430754  1  -0.61712  0  -0.094329  -0.110001  0  1.391028  0
F  F229  1  0.82636471  0.22946203  0.65331167  1  -0.612861  0  -0.094652  -0.110375  0  1.388682  0
F  F230  1  0.19358145  0.54634296  0.33731449  1  -0.607912  0  -0.087157  -0.100781  0  1.390915  0
F  F231  1  0.29157367  0.59549610  0.28842926  1  -0.61313  0  -0.086938  -0.100519  0  1.390709  0
F  F232  1  0.92296620  0.54620753  0.33730485  1  -0.612835  0  -0.087896  -0.101667  0  1.390528  0
F  F233  1  0.82507091  0.59541915  0.28824629  1  -0.6166  0  -0.092276  -0.108214  0  1.389913  0
F  F234  1  0.20888013  0.52041153  0.59650063  1  -0.611173  0  -0.094381  -0.110652  0  1.389474  0
F  F235  1  0.30701029  0.47130993  0.64547194  1  -0.613598  0  -0.093681  -0.10934  0  1.387822  0
F  F236  1  0.57618252  0.20392083  0.91285285  1  -0.617927  0  -0.092793  -0.108719  0  1.389865  0
F  F237  1  0.67436139  0.15504527  0.96180726  1  -0.615781  0  -0.090622  -0.104915  0  1.389584  0
F  F238  1  0.29076103  0.09491741  0.78822932  1  -0.618414  0  -0.093682  -0.109252  0  1.389503  0
F  F239  1  0.19280614  0.04601735  0.83731933  1  -0.611435  0  -0.09401  -0.10943  0  1.38938  0
F  F240  1  0.29082566  0.73025116  0.15323584  1  -0.607755  0  -0.087848  -0.101666  0  1.390547  0
F  F241  1  0.19287029  0.77921213  0.10421927  1  -0.611897  0  -0.093159  -0.108787  0  1.389066  0
F  F242  1  0.57627064  0.97132400  0.14554205  1  -0.614868  0  -0.093276  -0.109024  0  1.39137  0
F  F243  1  0.67451922  0.02012488  0.09656022  1  -0.611364  0  -0.090576  -0.104632  0  1.388818  0
