# generated using pymatgen
data_NaPH17C8NO6
_symmetry_space_group_name_H-M   'P 1'
_cell_length_a   5.12255145
_cell_length_b   13.91428976
_cell_length_c   17.33200000
_cell_angle_alpha   100.44137545
_cell_angle_beta   90.00000000
_cell_angle_gamma   90.00000000
_symmetry_Int_Tables_number   1
_chemical_formula_structural   NaPH17C8NO6
_chemical_formula_sum   'Na4 P4 H68 C32 N4 O24'
_cell_volume   1214.91053558
_cell_formula_units_Z   4
loop_
 _symmetry_equiv_pos_site_id
 _symmetry_equiv_pos_as_xyz
  1  'x, y, z'
loop_
 _atom_site_type_symbol
 _atom_site_label
 _atom_site_symmetry_multiplicity
 _atom_site_fract_x
 _atom_site_fract_y
 _atom_site_fract_z
 _atom_site_occupancy
 _atom_site_hle17_bader_spin_density
 _atom_site_hle17_ddec_charge
 _atom_site_hle17_ddec_spin_density
 _atom_site_hle17_ddec_sum_bond_order
 _atom_site_hle17_magmom
 _atom_site_hse06_10hf_bader_spin_density
 _atom_site_hse06_10hf_ddec_charge
 _atom_site_hse06_10hf_ddec_spin_density
 _atom_site_hse06_10hf_ddec_sum_bond_order
 _atom_site_hse06_10hf_magmom
 _atom_site_hse06_bader_spin_density
 _atom_site_hse06_ddec_charge
 _atom_site_hse06_ddec_spin_density
 _atom_site_hse06_ddec_sum_bond_order
 _atom_site_hse06_magmom
 _atom_site_pbe_bader_charge
 _atom_site_pbe_bader_spin_density
 _atom_site_pbe_cm5_charge
 _atom_site_pbe_ddec_charge
 _atom_site_pbe_ddec_spin_density
 _atom_site_pbe_ddec_sum_bond_order
 _atom_site_pbe_magmom
Na  Na0  1  0.95511974  0.63242146  0.00219267  1  0  0.895592  0  0.366088  0  0  0.856273  0  0.507921  0  0  0.865655  0  0.486701  0  0.879194  0  0.650357  0.849318  0  0.523206  0
Na  Na1  1  0.45512281  0.86757843  0.99780888  1  0  0.895577  0  0.366113  0  0  0.856241  0  0.507967  0  0  0.865623  0  0.486746  0  0.879189  0  0.650363  0.849285  0  0.523253  0
Na  Na2  1  0.04487022  0.36757700  0.99780815  1  0  0.895577  0  0.366102  0  0  0.856254  0  0.507939  0  0  0.865636  0  0.486722  0  0.879215  0  0.650367  0.849302  0  0.523222  0
Na  Na3  1  0.54487496  0.13242150  0.00219100  1  0  0.895587  0  0.366093  0  0  0.856254  0  0.507949  0  0  0.865639  0  0.486728  0  0.879184  0  0.650369  0.849299  0  0.523236  0
P  P4  1  0.66946912  0.66957685  0.19895784  1  0  1.581184  0  4.896544  0  0  1.390016  0  5.425268  0  0  1.444862  0  5.380525  0  3.588395  0  0.45946  1.352036  0  5.455274  0
P  P5  1  0.16945071  0.83042303  0.80104371  1  0  1.580912  0  4.896671  0  0  1.389711  0  5.425436  0  0  1.444553  0  5.380696  0  3.588457  0  0.459335  1.351738  0  5.455438  0
P  P6  1  0.33052865  0.33043111  0.80104494  1  0  1.580798  0  4.896839  0  0  1.389673  0  5.425541  0  0  1.444523  0  5.380795  0  3.588258  0  0.459328  1.351697  0  5.455544  0
P  P7  1  0.83052753  0.16957104  0.19895705  1  0  1.58108  0  4.896326  0  0  1.390011  0  5.424993  0  0  1.444865  0  5.380241  0  3.588247  0  0.459502  1.352025  0  5.455003  0
H  H8  1  0.08576585  0.66929623  0.25287558  1  0  0.328828  0  0.918642  0  0  0.307009  0  0.985837  0  0  0.315101  0  0.979206  0  0.507863  0  0.308394  0.301313  0  0.990501  0
H  H9  1  0.58575107  0.83070146  0.74712276  1  0  0.328604  0  0.918723  0  0  0.306855  0  0.985869  0  0  0.314947  0  0.979241  0  0.507964  0  0.308325  0.301157  0  0.990537  0
H  H10  1  0.91423777  0.33070150  0.74712340  1  0  0.328649  0  0.918545  0  0  0.306791  0  0.985833  0  0  0.314882  0  0.979207  0  0.507927  0  0.308254  0.301096  0  0.99049  0
H  H11  1  0.41423108  0.16929992  0.25287848  1  0  0.328765  0  0.918571  0  0  0.306932  0  0.9858  0  0  0.315024  0  0.979171  0  0.507878  0  0.308358  0.301239  0  0.990455  0
H  H12  1  0.24016157  0.53910583  0.86971101  1  0  0.420927  0  0.883299  0  0  0.389782  0  0.947831  0  0  0.399317  0  0.933816  0  0.620936  0  0.292274  0.383082  0  0.957671  0
H  H13  1  0.74016436  0.96089406  0.13028995  1  0  0.420891  0  0.883331  0  0  0.389746  0  0.94787  0  0  0.399286  0  0.933847  0  0.620926  0  0.292256  0.383043  0  0.957715  0
H  H14  1  0.75983229  0.46089337  0.13028991  1  0  0.420919  0  0.883299  0  0  0.389781  0  0.947818  0  0  0.399316  0  0.933804  0  0.620929  0  0.292258  0.383078  0  0.957662  0
H  H15  1  0.25982755  0.03910367  0.86970903  1  0  0.420938  0  0.883269  0  0  0.389792  0  0.947793  0  0  0.399326  0  0.93378  0  0.620889  0  0.292279  0.38309  0  0.957635  0
H  H16  1  0.16760788  0.64939033  0.85621702  1  0  0.430299  0  0.874179  0  0  0.39802  0  0.939759  0  0  0.408197  0  0.92491  0  0.656857  0  0.294512  0.390896  0  0.950136  0
H  H17  1  0.66762043  0.85060883  0.14378269  1  0  0.430331  0  0.874128  0  0  0.398047  0  0.939718  0  0  0.408226  0  0.924867  0  0.656867  0  0.29453  0.390923  0  0.950097  0
H  H18  1  0.83237817  0.35060740  0.14378254  1  0  0.430316  0  0.874155  0  0  0.398045  0  0.939725  0  0  0.408227  0  0.924869  0  0.656806  0  0.294492  0.390919  0  0.950108  0
H  H19  1  0.33238124  0.14938890  0.85621744  1  0  0.430367  0  0.874083  0  0  0.398098  0  0.939647  0  0  0.40828  0  0.924792  0  0.656857  0  0.294535  0.390971  0  0.950031  0
H  H20  1  0.23181612  0.70961301  0.38418045  1  0  0.101248  0  0.969125  0  0  0.110812  0  1.033387  0  0  0.113584  0  1.032941  0  0.051213  0  0.099123  0.108817  0  1.033855  0
H  H21  1  0.73178767  0.79038249  0.61581584  1  0  0.101152  0  0.969151  0  0  0.110751  0  1.033407  0  0  0.113524  0  1.032959  0  0.051533  0  0.099097  0.108754  0  1.033874  0
H  H22  1  0.76820117  0.29038618  0.61581817  1  0  0.101152  0  0.969055  0  0  0.110746  0  1.033331  0  0  0.113521  0  1.032879  0  0.051238  0  0.099079  0.108746  0  1.033796  0
H  H23  1  0.26818667  0.20962401  0.38418499  1  0  0.101165  0  0.968985  0  0  0.110752  0  1.033283  0  0  0.113526  0  1.032834  0  0.051174  0  0.099094  0.108755  0  1.033747  0
H  H24  1  0.20170417  0.81948681  0.51210258  1  0  0.082617  0  0.973781  0  0  0.093409  0  1.036449  0  0  0.095052  0  1.037334  0  0.057121  0  0.095117  0.092151  0  1.036005  0
H  H25  1  0.70166011  0.68050869  0.48789717  1  0  0.082733  0  0.974017  0  0  0.093504  0  1.036671  0  0  0.095159  0  1.03754  0  0.057264  0  0.095133  0.092245  0  1.036228  0
H  H26  1  0.79833264  0.18051385  0.48789798  1  0  0.082744  0  0.974012  0  0  0.093525  0  1.036657  0  0  0.09517  0  1.037535  0  0.057185  0  0.095163  0.092268  0  1.036214  0
H  H27  1  0.29833180  0.31949927  0.51210560  1  0  0.082685  0  0.973985  0  0  0.093457  0  1.036636  0  0  0.095117  0  1.037505  0  0.057283  0  0.095142  0.092199  0  1.036194  0
H  H28  1  0.83772707  0.94131994  0.53908238  1  0  0.077659  0  0.983658  0  0  0.089329  0  1.048268  0  0  0.0919  0  1.047569  0  0.043963  0  0.091861  0.087508  0  1.0488  0
H  H29  1  0.33768719  0.55867630  0.46091632  1  0  0.077625  0  0.983595  0  0  0.089275  0  1.048229  0  0  0.091852  0  1.047516  0  0.043996  0  0.091839  0.087454  0  1.048763  0
H  H30  1  0.16229998  0.05868218  0.46091435  1  0  0.077631  0  0.983588  0  0  0.089326  0  1.048168  0  0  0.091898  0  1.04746  0  0.044043  0  0.091872  0.087502  0  1.048714  0
H  H31  1  0.66231253  0.44132436  0.53907846  1  0  0.07755  0  0.983892  0  0  0.089213  0  1.048497  0  0  0.09179  0  1.047783  0  0.04405  0  0.091836  0.087392  0  1.049032  0
H  H32  1  0.49991884  0.94603936  0.43625240  1  0  0.077187  0  0.973825  0  0  0.090597  0  1.03418  0  0  0.092672  0  1.033588  0  0.046233  0  0.095959  0.089136  0  1.034593  0
H  H33  1  0.99988454  0.55395615  0.56375023  1  0  0.077194  0  0.973807  0  0  0.090602  0  1.034163  0  0  0.092676  0  1.033574  0  0.04604  0  0.095983  0.089147  0  1.03456  0
H  H34  1  0.50010820  0.05395838  0.56374484  1  0  0.077121  0  0.97377  0  0  0.090563  0  1.034096  0  0  0.092629  0  1.033533  0  0.046144  0  0.09595  0.089113  0  1.034481  0
H  H35  1  0.00011322  0.44604451  0.43624686  1  0  0.077177  0  0.973595  0  0  0.090581  0  1.033967  0  0  0.092645  0  1.033408  0  0.046111  0  0.095964  0.089131  0  1.034352  0
H  H36  1  0.53139339  0.83558239  0.30768058  1  0  0.106794  0  0.989993  0  0  0.116087  0  1.05385  0  0  0.11963  0  1.052277  0  0.086087  0  0.101848  0.11354  0  1.055121  0
H  H37  1  0.03137499  0.66441531  0.69232296  1  0  0.106759  0  0.990092  0  0  0.116095  0  1.053885  0  0  0.119635  0  1.052319  0  0.085914  0  0.101873  0.113547  0  1.055156  0
H  H38  1  0.46861999  0.16441461  0.69231887  1  0  0.10673  0  0.990271  0  0  0.116096  0  1.054005  0  0  0.11964  0  1.052434  0  0.08591  0  0.101863  0.113547  0  1.05528  0
H  H39  1  0.96861887  0.33558316  0.30767324  1  0  0.106757  0  0.990008  0  0  0.116091  0  1.053819  0  0  0.119633  0  1.05225  0  0.085925  0  0.101864  0.113543  0  1.055091  0
H  H40  1  0.56986836  0.58027105  0.35014117  1  0  0.043848  0  0.927857  0  0  0.061201  0  0.992522  0  0  0.060901  0  0.992897  0  0.031999  0  0.099152  0.061319  0  0.99237  0
H  H41  1  0.06985581  0.91972811  0.64986084  1  0  0.043838  0  0.927956  0  0  0.061202  0  0.992608  0  0  0.060894  0  0.992991  0  0.032181  0  0.099175  0.061319  0  0.992456  0
H  H42  1  0.43012940  0.41973765  0.64986460  1  0  0.043843  0  0.927999  0  0  0.061243  0  0.992625  0  0  0.060928  0  0.993017  0  0.03226  0  0.099167  0.061361  0  0.992473  0
H  H43  1  0.93013610  0.08027109  0.35013835  1  0  0.043913  0  0.927901  0  0  0.061266  0  0.992544  0  0  0.06096  0  0.992926  0  0.03234  0  0.099194  0.061385  0  0.99239  0
H  H44  1  0.69975481  0.50785373  0.26371299  1  0  0.037698  0  0.95373  0  0  0.053456  0  1.021528  0  0  0.053715  0  1.02116  0  0.043754  0  0.10219  0.053163  0  1.02187  0
H  H45  1  0.19975007  0.99214470  0.73628776  1  0  0.037704  0  0.95363  0  0  0.05342  0  1.021486  0  0  0.05368  0  1.021117  0  0.043814  0  0.102176  0.053122  0  1.021829  0
H  H46  1  0.30025272  0.49214985  0.73629549  1  0  0.0377  0  0.953639  0  0  0.053442  0  1.021467  0  0  0.053702  0  1.021098  0  0.043611  0  0.102161  0.053148  0  1.021804  0
H  H47  1  0.80024965  0.00785304  0.26371237  1  0  0.037719  0  0.953768  0  0  0.053462  0  1.021551  0  0  0.05372  0  1.021181  0  0.043777  0  0.102196  0.053168  0  1.021889  0
H  H48  1  0.34769392  0.41870870  0.32340575  1  0  0.111793  0  0.981865  0  0  0.133441  0  1.042182  0  0  0.132979  0  1.04587  0  0.069416  0  0.093176  0.133699  0  1.03971  0
H  H49  1  0.84769866  0.08129200  0.67659487  1  0  0.111801  0  0.981854  0  0  0.133445  0  1.042175  0  0  0.132984  0  1.045863  0  0.069376  0  0.093165  0.133703  0  1.039702  0
H  H50  1  0.65230189  0.58129781  0.67660316  1  0  0.111791  0  0.981804  0  0  0.133404  0  1.042162  0  0  0.132946  0  1.045851  0  0.069163  0  0.09315  0.133653  0  1.0397  0
H  H51  1  0.15230496  0.91870866  0.32340338  1  0  0.111788  0  0.981873  0  0  0.133428  0  1.042199  0  0  0.132966  0  1.045888  0  0.0693  0  0.09314  0.133689  0  1.039723  0
H  H52  1  0.26470988  0.43468662  0.22703264  1  0  0.115277  0  0.939545  0  0  0.137715  0  0.99727  0  0  0.140035  0  0.995727  0  0.05765  0  0.095092  0.135919  0  0.998606  0
H  H53  1  0.76470681  0.06531627  0.77296657  1  0  0.115328  0  0.939534  0  0  0.137765  0  0.997243  0  0  0.140085  0  0.9957  0  0.057638  0  0.095084  0.135968  0  0.998579  0
H  H54  1  0.73529959  0.56531550  0.77297332  1  0  0.115317  0  0.939654  0  0  0.137806  0  0.997297  0  0  0.140129  0  0.995749  0  0.057454  0  0.0951  0.136006  0  0.998627  0
H  H55  1  0.23529290  0.93468658  0.22703200  1  0  0.115274  0  0.939571  0  0  0.137722  0  0.997279  0  0  0.14004  0  0.995738  0  0.05761  0  0.095093  0.135926  0  0.998613  0
H  H56  1  0.11986605  0.51090403  0.31007071  1  0  0.10006  0  0.958638  0  0  0.120279  0  1.024311  0  0  0.121311  0  1.024514  0  0.021492  0  0.088633  0.119528  0  1.024148  0
H  H57  1  0.61986493  0.98910097  0.68992870  1  0  0.100036  0  0.958681  0  0  0.120289  0  1.024316  0  0  0.121321  0  1.02452  0  0.021517  0  0.088639  0.119539  0  1.024152  0
H  H58  1  0.88013367  0.48910247  0.68993243  1  0  0.100124  0  0.958643  0  0  0.120364  0  1.02427  0  0  0.121394  0  1.024478  0  0.021362  0  0.088657  0.119615  0  1.0241  0
H  H59  1  0.38013479  0.01090188  0.31006987  1  0  0.100087  0  0.95864  0  0  0.12031  0  1.024297  0  0  0.12134  0  1.024502  0  0.02151  0  0.088645  0.119561  0  1.024129  0
H  H60  1  0.86792101  0.45151372  0.89355482  1  0  0.417384  0  0.882355  0  0  0.386796  0  0.947211  0  0  0.396743  0  0.932212  0  0.631375  0  0.2949  0.379728  0  0.957882  0
H  H61  1  0.36792407  0.04848478  0.10644490  1  0  0.417394  0  0.882343  0  0  0.386825  0  0.947164  0  0  0.396772  0  0.932165  0  0.631392  0  0.294924  0.379754  0  0.957838  0
H  H62  1  0.13207481  0.54848328  0.10644578  1  0  0.41761  0  0.882053  0  0  0.386951  0  0.947047  0  0  0.396898  0  0.932045  0  0.631355  0  0.294954  0.379869  0  0.957744  0
H  H63  1  0.63207174  0.95151514  0.89355382  1  0  0.417575  0  0.882097  0  0  0.386906  0  0.94711  0  0  0.396853  0  0.932107  0  0.631341  0  0.294948  0.379827  0  0.957802  0
H  H64  1  0.57517236  0.46011143  0.92117199  1  0  0.430407  0  0.852094  0  0  0.406053  0  0.908785  0  0  0.414968  0  0.895556  0  0.639136  0  0.310497  0.399735  0  0.918157  0
H  H65  1  0.07517543  0.03988415  0.07882789  1  0  0.430404  0  0.852049  0  0  0.406055  0  0.908763  0  0  0.414972  0  0.89553  0  0.639063  0  0.310485  0.399733  0  0.918139  0
H  H66  1  0.42482541  0.53988338  0.07882830  1  0  0.430415  0  0.85197  0  0  0.406067  0  0.908728  0  0  0.414984  0  0.895496  0  0.638587  0  0.310466  0.399746  0  0.918103  0
H  H67  1  0.92482039  0.96011212  0.92117088  1  0  0.430406  0  0.852067  0  0  0.406056  0  0.908768  0  0  0.414973  0  0.895535  0  0.639107  0  0.310488  0.399736  0  0.918142  0
H  H68  1  0.52867014  0.67568842  0.91468663  1  0  0.425682  0  0.880755  0  0  0.396843  0  0.941672  0  0  0.407261  0  0.926212  0  0.636639  0  0.286594  0.389485  0  0.952586  0
H  H69  1  0.02867516  0.82431366  0.08531581  1  0  0.425702  0  0.880714  0  0  0.39686  0  0.941637  0  0  0.407278  0  0.926178  0  0.636628  0  0.28663  0.389501  0  0.952551  0
H  H70  1  0.47132177  0.32431296  0.08531519  1  0  0.425716  0  0.880695  0  0  0.39687  0  0.941625  0  0  0.407288  0  0.926164  0  0.636647  0  0.286632  0.389512  0  0.952538  0
H  H71  1  0.97132455  0.17568627  0.91468349  1  0  0.425724  0  0.880683  0  0  0.396892  0  0.941592  0  0  0.407309  0  0.926133  0  0.636631  0  0.286634  0.389533  0  0.952507  0
H  H72  1  0.77811420  0.73370413  0.89094770  1  0  0.429753  0  0.872116  0  0  0.398453  0  0.936776  0  0  0.408692  0  0.921575  0  0.635251  0  0.289264  0.391238  0  0.94749  0
H  H73  1  0.27812117  0.76629503  0.10905373  1  0  0.429727  0  0.872129  0  0  0.398436  0  0.936777  0  0  0.408679  0  0.92157  0  0.635224  0  0.289253  0.391221  0  0.947491  0
H  H74  1  0.22187576  0.26629434  0.10905254  1  0  0.429719  0  0.872143  0  0  0.398453  0  0.936753  0  0  0.408695  0  0.921548  0  0.635217  0  0.289268  0.391237  0  0.947468  0
H  H75  1  0.72187855  0.23370417  0.89094661  1  0  0.429733  0  0.872137  0  0  0.398469  0  0.936741  0  0  0.408713  0  0.921533  0  0.635212  0  0.289261  0.391252  0  0.947458  0
C  C76  1  0.88336839  0.76496427  0.33686323  1  0  0.295761  0  3.820254  0  0  0.28944  0  4.06248  0  0  0.298915  0  4.082389  0  0.350541  0  0.095114  0.282945  0  4.048969  0
C  C77  1  0.38334803  0.73502978  0.66313573  1  0  0.295567  0  3.820194  0  0  0.289252  0  4.062467  0  0  0.298751  0  4.082344  0  0.350431  0  0.09506  0.282757  0  4.048952  0
C  C78  1  0.11663524  0.23503201  0.66313495  1  0  0.295558  0  3.820288  0  0  0.289295  0  4.062447  0  0  0.29879  0  4.08233  0  0.350547  0  0.095015  0.282798  0  4.048936  0
C  C79  1  0.61663217  0.26496357  0.33686319  1  0  0.295599  0  3.820141  0  0  0.289292  0  4.062399  0  0  0.298799  0  4.082269  0  0.350564  0  0.095093  0.282794  0  4.048884  0
C  C80  1  0.07048636  0.76115102  0.39560338  1  0  -0.190925  0  3.729203  0  0  -0.205879  0  3.977259  0  0  -0.211266  0  3.996786  0  -0.058437  0  -0.105086  -0.202297  0  3.964107  0
C  C81  1  0.57046377  0.73884302  0.60439443  1  0  -0.190491  0  3.728981  0  0  -0.205516  0  3.977088  0  0  -0.210895  0  3.996576  0  -0.05835  0  -0.104979  -0.201943  0  3.963958  0
C  C82  1  0.92954069  0.23884306  0.60439564  1  0  -0.190548  0  3.729293  0  0  -0.205587  0  3.977381  0  0  -0.21097  0  3.996875  0  -0.058153  0  -0.104939  -0.202001  0  3.964229  0
C  C83  1  0.42953790  0.26116348  0.39560756  1  0  -0.190679  0  3.729536  0  0  -0.205691  0  3.97765  0  0  -0.211078  0  3.997147  0  -0.058205  0  -0.105059  -0.202109  0  3.964509  0
C  C84  1  0.05348311  0.82410684  0.46776495  1  0  -0.056192  0  3.807066  0  0  -0.068287  0  4.053825  0  0  -0.067746  0  4.074755  0  -0.027508  0  -0.09549  -0.06848  0  4.039549  0
C  C85  1  0.55346052  0.67588939  0.53223087  1  0  -0.056568  0  3.807638  0  0  -0.068641  0  4.054396  0  0  -0.068107  0  4.075321  0  -0.027981  0  -0.095545  -0.068836  0  4.040122  0
C  C86  1  0.94652246  0.17589454  0.53223052  1  0  -0.056535  0  3.807124  0  0  -0.068626  0  4.053911  0  0  -0.068082  0  4.074842  0  -0.027754  0  -0.095573  -0.068819  0  4.039636  0
C  C87  1  0.44652943  0.32410688  0.46776270  1  0  -0.05633  0  3.807362  0  0  -0.068389  0  4.054113  0  0  -0.067861  0  4.075035  0  -0.027909  0  -0.095466  -0.068587  0  4.039839  0
C  C88  1  0.84948098  0.89144885  0.48300756  1  0  -0.117598  0  3.821388  0  0  -0.133499  0  4.073805  0  0  -0.13743  0  4.095591  0  -0.047161  0  -0.110772  -0.130815  0  4.058998  0
C  C89  1  0.34944891  0.60854592  0.51699440  1  0  -0.117391  0  3.8217  0  0  -0.133264  0  4.074056  0  0  -0.137193  0  4.095846  0  -0.04679  0  -0.110711  -0.13058  0  4.059251  0
C  C90  1  0.15054607  0.10854961  0.51699326  1  0  -0.117491  0  3.821208  0  0  -0.1334  0  4.073605  0  0  -0.137327  0  4.095396  0  -0.047061  0  -0.110787  -0.130719  0  4.058798  0
C  C91  1  0.65056448  0.39146131  0.48300770  1  0  -0.117362  0  3.821291  0  0  -0.133243  0  4.07365  0  0  -0.137172  0  4.095437  0  -0.046684  0  -0.110753  -0.130561  0  4.05885  0
C  C92  1  0.66169760  0.89453350  0.42521148  1  0  -0.056633  0  3.816621  0  0  -0.067599  0  4.06099  0  0  -0.067393  0  4.082762  0  -0.029162  0  -0.096613  -0.067584  0  4.046078  0
C  C93  1  0.16167724  0.60546346  0.57479079  1  0  -0.056603  0  3.816694  0  0  -0.067553  0  4.061044  0  0  -0.067363  0  4.082847  0  -0.028854  0  -0.096593  -0.06754  0  4.046137  0
C  C94  1  0.33831188  0.10546715  0.57478676  1  0  -0.056554  0  3.816488  0  0  -0.067528  0  4.060865  0  0  -0.067335  0  4.082653  0  -0.029315  0  -0.096588  -0.06751  0  4.045955  0
C  C95  1  0.83831662  0.39452988  0.42520467  1  0  -0.056732  0  3.816895  0  0  -0.067674  0  4.061282  0  0  -0.06748  0  4.083068  0  -0.029333  0  -0.096662  -0.067658  0  4.046373  0
C  C96  1  0.67662961  0.83204538  0.35283986  1  0  -0.19929  0  3.738213  0  0  -0.215154  0  3.98281  0  0  -0.220959  0  4.003173  0  -0.073498  0  -0.107786  -0.211319  0  3.969142  0
C  C97  1  0.17660730  0.66795085  0.64716345  1  0  -0.199391  0  3.738358  0  0  -0.215296  0  3.982967  0  0  -0.221109  0  4.003324  0  -0.073901  0  -0.107873  -0.211459  0  3.969299  0
C  C98  1  0.32339939  0.16795162  0.64716362  1  0  -0.199229  0  3.738192  0  0  -0.215166  0  3.98278  0  0  -0.220977  0  4.003136  0  -0.073416  0  -0.107788  -0.211334  0  3.969118  0
C  C99  1  0.82339632  0.33205126  0.35284078  1  0  -0.199272  0  3.738211  0  0  -0.21518  0  3.982826  0  0  -0.220993  0  4.003181  0  -0.073655  0  -0.107772  -0.211343  0  3.969156  0
C  C100  1  0.52227099  0.54458892  0.28978294  1  0  0.186596  0  3.622874  0  0  0.124024  0  3.89914  0  0  0.132977  0  3.904901  0  0.414205  0  -0.064196  0.118025  0  3.895078  0
C  C101  1  0.02226039  0.95541097  0.71021629  1  0  0.186624  0  3.622878  0  0  0.12409  0  3.899129  0  0  0.133047  0  3.904892  0  0.413682  0  -0.064186  0.118097  0  3.89506  0
C  C102  1  0.47773068  0.45541685  0.71022182  1  0  0.186577  0  3.622857  0  0  0.123992  0  3.899111  0  0  0.13295  0  3.904879  0  0.413797  0  -0.064166  0.117998  0  3.89504  0
C  C103  1  0.97773152  0.04458604  0.28978258  1  0  0.18644  0  3.622999  0  0  0.123929  0  3.899188  0  0  0.132887  0  3.904948  0  0.413729  0  -0.064248  0.117934  0  3.895118  0
C  C104  1  0.29974711  0.47326120  0.28720761  1  0  -0.326231  0  3.686602  0  0  -0.404338  0  3.934679  0  0  -0.40687  0  3.94306  0  -0.087526  0  -0.251939  -0.402374  0  3.928873  0
C  C105  1  0.79974599  0.02674168  0.71279217  1  0  -0.326304  0  3.68663  0  0  -0.404434  0  3.934698  0  0  -0.406962  0  3.943066  0  -0.087263  0  -0.251942  -0.402468  0  3.928891  0
C  C106  1  0.70025456  0.52674384  0.71279877  1  0  -0.32636  0  3.686638  0  0  -0.404494  0  3.934706  0  0  -0.407027  0  3.943069  0  -0.086696  0  -0.251961  -0.402513  0  3.928902  0
C  C107  1  0.20025568  0.97326044  0.28720571  1  0  -0.326224  0  3.686707  0  0  -0.404344  0  3.934778  0  0  -0.406878  0  3.943163  0  -0.087328  0  -0.251909  -0.402379  0  3.928967  0
N  N108  1  0.90845549  0.70309074  0.26365211  1  0  -0.722694  0  3.24714  0  0  -0.647044  0  3.505753  0  0  -0.670202  0  3.503888  0  -1.589286  0  -0.454826  -0.630752  0  3.50646  0
N  N109  1  0.40844099  0.79690915  0.73634827  1  0  -0.722339  0  3.246866  0  0  -0.646776  0  3.505451  0  0  -0.669943  0  3.503587  0  -1.589203  0  -0.454726  -0.630479  0  3.506148  0
N  N110  1  0.09156179  0.29690480  0.73635001  1  0  -0.72238  0  3.24677  0  0  -0.646725  0  3.505406  0  0  -0.66989  0  3.503538  0  -1.589097  0  -0.454604  -0.630424  0  3.506099  0
N  N111  1  0.59154896  0.20309297  0.26365480  1  0  -0.722575  0  3.247115  0  0  -0.646968  0  3.505841  0  0  -0.67014  0  3.503973  0  -1.589097  0  -0.45482  -0.630672  0  3.506541  0
O  O112  1  0.78286573  0.59148717  0.13482115  1  0  -0.919398  0  1.937608  0  0  -0.830769  0  2.180143  0  0  -0.855938  0  2.157206  0  -1.484395  0  -0.384025  -0.813025  0  2.195605  0
O  O113  1  0.28286490  0.90851126  0.86517672  1  0  -0.919299  0  1.937745  0  0  -0.830609  0  2.180189  0  0  -0.855776  0  2.157252  0  -1.484353  0  -0.38397  -0.812883  0  2.195659  0
O  O114  1  0.21713008  0.40850691  0.86517614  1  0  -0.919151  0  1.937987  0  0  -0.830482  0  2.180385  0  0  -0.855642  0  2.157439  0  -1.484494  0  -0.383906  -0.812775  0  2.195866  0
O  O115  1  0.71711530  0.09148574  0.13482446  1  0  -0.919275  0  1.937735  0  0  -0.830672  0  2.180181  0  0  -0.855847  0  2.157242  0  -1.48447  0  -0.383992  -0.812933  0  2.195642  0
O  O116  1  0.52994099  0.75519876  0.17561378  1  0  -0.857067  0  1.959979  0  0  -0.769307  0  2.199062  0  0  -0.796198  0  2.178947  0  -1.471433  0  -0.352351  -0.750419  0  2.212491  0
O  O117  1  0.02992845  0.74480113  0.82438660  1  0  -0.857012  0  1.959988  0  0  -0.769212  0  2.199041  0  0  -0.796094  0  2.178925  0  -1.471535  0  -0.35232  -0.750325  0  2.212466  0
O  O118  1  0.47007434  0.24479605  0.82438765  1  0  -0.85699  0  1.959645  0  0  -0.76936  0  2.198789  0  0  -0.796258  0  2.178683  0  -1.471383  0  -0.352383  -0.750451  0  2.212199  0
O  O119  1  0.97005761  0.25519807  0.17560912  1  0  -0.857  0  1.959768  0  0  -0.769354  0  2.19888  0  0  -0.796249  0  2.178765  0  -1.471318  0  -0.352353  -0.750456  0  2.212305  0
O  O120  1  0.44670318  0.62071937  0.24655864  1  0  -0.554672  0  2.2436  0  0  -0.458359  0  2.496177  0  0  -0.480612  0  2.488606  0  -1.302446  0  -0.224123  -0.442843  0  2.501001  0
O  O121  1  0.94669035  0.87928198  0.75344138  1  0  -0.55465  0  2.24369  0  0  -0.458355  0  2.496248  0  0  -0.48061  0  2.488678  0  -1.302491  0  -0.224156  -0.442833  0  2.501058  0
O  O122  1  0.55330240  0.37928202  0.75344260  1  0  -0.554609  0  2.243576  0  0  -0.458328  0  2.496194  0  0  -0.480578  0  2.488611  0  -1.302425  0  -0.224169  -0.442821  0  2.501039  0
O  O123  1  0.05329766  0.12071795  0.24655618  1  0  -0.55466  0  2.243583  0  0  -0.458384  0  2.496137  0  0  -0.480633  0  2.488552  0  -1.302393  0  -0.224165  -0.442878  0  2.500989  0
O  O124  1  0.24969198  0.60949448  0.89193912  1  0  -0.883713  0  1.829148  0  0  -0.826331  0  1.998445  0  0  -0.845587  0  1.967691  0  -1.298068  0  -0.627834  -0.812702  0  2.019749  0
O  O125  1  0.74969867  0.89050540  0.10806127  1  0  -0.883712  0  1.829111  0  0  -0.826299  0  1.998385  0  0  -0.845558  0  1.967626  0  -1.298057  0  -0.627854  -0.812672  0  2.019693  0
O  O126  1  0.75029798  0.39050617  0.10806144  1  0  -0.883734  0  1.82909  0  0  -0.8263  0  1.998331  0  0  -0.845565  0  1.967586  0  -1.298005  0  -0.627829  -0.812673  0  2.019641  0
O  O127  1  0.25030105  0.10949379  0.89193792  1  0  -0.883794  0  1.829016  0  0  -0.826372  0  1.998306  0  0  -0.84563  0  1.96755  0  -1.29802  0  -0.627878  -0.812743  0  2.019617  0
O  O128  1  0.75418667  0.47715045  0.93830659  1  0  -0.876085  0  1.760746  0  0  -0.832381  0  1.922986  0  0  -0.847767  0  1.892581  0  -1.291082  0  -0.658132  -0.821525  0  1.944432  0
O  O129  1  0.25419169  0.02284951  0.06169335  1  0  -0.876071  0  1.760714  0  0  -0.832374  0  1.922997  0  0  -0.847764  0  1.892585  0  -1.291035  0  -0.658157  -0.821519  0  1.944455  0
O  O130  1  0.24580524  0.52284801  0.06169423  1  0  -0.876321  0  1.760326  0  0  -0.832598  0  1.922694  0  0  -0.847983  0  1.892286  0  -1.29054  0  -0.658174  -0.821738  0  1.944158  0
O  O131  1  0.74580608  0.97714895  0.93830516  1  0  -0.876274  0  1.760456  0  0  -0.832541  0  1.922757  0  0  -0.847927  0  1.892347  0  -1.291016  0  -0.65819  -0.82168  0  1.944216  0
O  O132  1  0.66678881  0.72384508  0.93559337  1  0  -0.936081  0  1.73301  0  0  -0.890065  0  1.90241  0  0  -0.906489  0  1.869248  0  -1.309295  0  -0.710287  -0.87841  0  1.925545  0
O  O133  1  0.16679579  0.77615627  0.06440666  1  0  -0.936105  0  1.73295  0  0  -0.890106  0  1.90237  0  0  -0.906521  0  1.869186  0  -1.309288  0  -0.710345  -0.878452  0  1.925507  0
O  O134  1  0.33320114  0.27615484  0.06440651  1  0  -0.9361  0  1.732927  0  0  -0.890097  0  1.902318  0  0  -0.906511  0  1.869137  0  -1.309312  0  -0.710356  -0.878445  0  1.925458  0
O  O135  1  0.83320198  0.22384439  0.93559217  1  0  -0.936145  0  1.732951  0  0  -0.890149  0  1.902314  0  0  -0.906575  0  1.869153  0  -1.309303  0  -0.710369  -0.878495  0  1.925454  0
