# generated using pymatgen
data_Na2H20C16SO12
_symmetry_space_group_name_H-M   'P 1'
_cell_length_a   7.97280339
_cell_length_b   8.32722303
_cell_length_c   15.22608614
_cell_angle_alpha   75.61336929
_cell_angle_beta   87.51673069
_cell_angle_gamma   86.75323454
_symmetry_Int_Tables_number   1
_chemical_formula_structural   Na2H20C16SO12
_chemical_formula_sum   'Na4 H40 C32 S2 O24'
_cell_volume   977.16068408
_cell_formula_units_Z   2
loop_
 _symmetry_equiv_pos_site_id
 _symmetry_equiv_pos_as_xyz
  1  'x, y, z'
loop_
 _atom_site_type_symbol
 _atom_site_label
 _atom_site_symmetry_multiplicity
 _atom_site_fract_x
 _atom_site_fract_y
 _atom_site_fract_z
 _atom_site_occupancy
 _atom_site_hle17_bader_spin_density
 _atom_site_hle17_ddec_charge
 _atom_site_hle17_ddec_spin_density
 _atom_site_hle17_ddec_sum_bond_order
 _atom_site_hle17_magmom
 _atom_site_hse06_10hf_bader_spin_density
 _atom_site_hse06_10hf_ddec_charge
 _atom_site_hse06_10hf_ddec_spin_density
 _atom_site_hse06_10hf_ddec_sum_bond_order
 _atom_site_hse06_10hf_magmom
 _atom_site_hse06_bader_spin_density
 _atom_site_hse06_ddec_charge
 _atom_site_hse06_ddec_spin_density
 _atom_site_hse06_ddec_sum_bond_order
 _atom_site_hse06_magmom
 _atom_site_pbe_bader_spin_density
 _atom_site_pbe_cm5_charge
 _atom_site_pbe_ddec_charge
 _atom_site_pbe_ddec_spin_density
 _atom_site_pbe_ddec_sum_bond_order
 _atom_site_pbe_magmom
Na  Na0  1  0.31399785  0.10839844  0.96861200  1  0  0.89924  0  0.36741  0  0  0.85432  0  0.518416  0  0  0.865076  0  0.495765  0  0  0.649221  0.846361  0  0.534707  0
Na  Na1  1  0.66728187  0.79440475  0.97121427  1  0  0.889545  0  0.397457  0  0  0.842709  0  0.554112  0  0  0.853425  0  0.531438  0  0  0.666608  0.834784  0  0.570434  0
Na  Na2  1  0.97110958  0.67499335  0.13232550  1  0  0.8966  0  0.40094  0  0  0.853129  0  0.556111  0  0  0.862496  0  0.535543  0  0  0.692968  0.84631  0  0.57076  0
Na  Na3  1  0.27408446  0.38529634  0.09670179  1  0  0.905678  0  0.365371  0  0  0.869488  0  0.506094  0  0  0.87891  0  0.484701  0  0  0.662904  0.862399  0  0.521694  0
H  H4  1  0.34203697  0.75695167  0.04216761  1  0  0.410072  0  0.901161  0  0  0.380278  0  0.965065  0  0  0.391867  0  0.947657  0  0  0.28791  0.372046  0  0.97743  0
H  H5  1  0.31544626  0.74776929  0.94198694  1  0  0.413077  0  0.901045  0  0  0.381311  0  0.967689  0  0  0.392979  0  0.95039  0  0  0.284815  0.373062  0  0.979905  0
H  H6  1  0.66784900  0.17529700  0.94442782  1  0  0.414295  0  0.894077  0  0  0.383836  0  0.958645  0  0  0.393975  0  0.943678  0  0  0.292601  0.37669  0  0.969187  0
H  H7  1  0.65771346  0.08935110  0.04695413  1  0  0.419361  0  0.872571  0  0  0.394411  0  0.927952  0  0  0.403403  0  0.914679  0  0  0.303552  0.388053  0  0.937355  0
H  H8  1  0.95142899  0.11862579  0.03663916  1  0  0.40092  0  0.898246  0  0  0.369224  0  0.974937  0  0  0.380035  0  0.95876  0  0  0.297514  0.361512  0  0.986481  0
H  H9  1  0.93842078  0.20298174  0.93366574  1  0  0.420907  0  0.880624  0  0  0.389155  0  0.945899  0  0  0.399591  0  0.930642  0  0  0.296089  0.381787  0  0.956663  0
H  H10  1  0.15495351  0.03217179  0.15060228  1  0  0.416575  0  0.88845  0  0  0.388775  0  0.948385  0  0  0.398903  0  0.933538  0  0  0.291215  0.381606  0  0.958887  0
H  H11  1  0.34525860  0.00536166  0.16430450  1  0  0.428255  0  0.864881  0  0  0.401546  0  0.921681  0  0  0.410724  0  0.908279  0  0  0.300301  0.39506  0  0.931149  0
H  H12  1  0.64328167  0.56244290  0.13576501  1  0  0.413946  0  0.894784  0  0  0.388093  0  0.952269  0  0  0.398131  0  0.937403  0  0  0.285572  0.380991  0  0.962774  0
H  H13  1  0.58935948  0.72781064  0.16248884  1  0  0.419666  0  0.892579  0  0  0.389696  0  0.955093  0  0  0.400254  0  0.939827  0  0  0.285476  0.382287  0  0.965784  0
H  H14  1  0.03762156  0.75748810  0.93445683  1  0  0.434202  0  0.86096  0  0  0.405508  0  0.921357  0  0  0.414964  0  0.907478  0  0  0.299457  0.398848  0  0.931122  0
H  H15  1  0.98984135  0.92305086  0.96705124  1  0  0.417071  0  0.893115  0  0  0.388414  0  0.954703  0  0  0.398838  0  0.939173  0  0  0.28653  0.381039  0  0.965693  0
H  H16  1  0.92693622  0.31332573  0.11648266  1  0  0.41692  0  0.887265  0  0  0.389574  0  0.945342  0  0  0.398717  0  0.931896  0  0  0.29636  0.383145  0  0.954802  0
H  H17  1  0.90813514  0.45842701  0.03241431  1  0  0.42657  0  0.87262  0  0  0.4005  0  0.928707  0  0  0.410234  0  0.914485  0  0  0.299178  0.393609  0  0.938784  0
H  H18  1  0.61299362  0.41345785  0.05240852  1  0  0.41582  0  0.888055  0  0  0.387445  0  0.94966  0  0  0.397587  0  0.934647  0  0  0.300183  0.380253  0  0.960313  0
H  H19  1  0.63021268  0.27742539  0.14292225  1  0  0.42089  0  0.883989  0  0  0.382974  0  0.960408  0  0  0.394021  0  0.944016  0  0  0.29243  0.375153  0  0.971991  0
H  H20  1  0.06043853  0.48644977  0.78436597  1  0  0.0878  0  0.938294  0  0  0.09725  0  1.007294  0  0  0.098548  0  1.00601  0  0  0.110307  0.096358  0  1.00826  0
H  H21  1  0.26821311  0.51549672  0.73676501  1  0  0.098487  0  0.924287  0  0  0.109038  0  0.990018  0  0  0.110784  0  0.987785  0  0  0.111741  0.107832  0  0.991666  0
H  H22  1  0.07174299  0.42671914  0.64822669  1  0  0.120714  0  0.956695  0  0  0.130558  0  1.018663  0  0  0.133778  0  1.017397  0  0  0.107301  0.128232  0  1.019739  0
H  H23  1  0.98096249  0.27315553  0.54109807  1  0  0.092139  0  0.978074  0  0  0.102353  0  1.040622  0  0  0.103714  0  1.041431  0  0  0.1013  0.101347  0  1.040087  0
H  H24  1  0.14772426  0.80976522  0.72059595  1  0  0.10481  0  0.9667  0  0  0.110312  0  1.03491  0  0  0.113974  0  1.031754  0  0  0.104037  0.107643  0  1.037135  0
H  H25  1  0.23892457  0.96163927  0.82826073  1  0  0.110904  0  0.968967  0  0  0.121906  0  1.030108  0  0  0.125844  0  1.02789  0  0  0.113194  0.119046  0  1.031941  0
H  H26  1  0.32030942  0.73150644  0.52746908  1  0  0.112901  0  0.972359  0  0  0.118862  0  1.037257  0  0  0.122668  0  1.034194  0  0  0.105696  0.1161  0  1.039464  0
H  H27  1  0.56608809  0.78495354  0.42271305  1  0  0.10781  0  0.978608  0  0  0.116228  0  1.044623  0  0  0.118741  0  1.044868  0  0  0.103782  0.114455  0  1.04457  0
H  H28  1  0.33229712  0.25480597  0.28409200  1  0  0.108398  0  0.944571  0  0  0.120407  0  1.002878  0  0  0.124748  0  1.000007  0  0  0.114338  0.11719  0  1.005252  0
H  H29  1  0.08186430  0.19852565  0.38900494  1  0  0.099164  0  0.968103  0  0  0.107512  0  1.032399  0  0  0.110036  0  1.031147  0  0  0.104715  0.105686  0  1.033311  0
H  H30  1  0.68928556  0.82345607  0.28875152  1  0  0.102383  0  0.936732  0  0  0.111842  0  1.003974  0  0  0.11346  0  1.003071  0  0  0.117825  0.110717  0  1.004718  0
H  H31  1  0.80470444  0.94105021  0.34744029  1  0  0.10567  0  0.929479  0  0  0.114413  0  0.996374  0  0  0.11574  0  0.995574  0  0  0.112702  0.113483  0  0.997035  0
H  H32  1  0.78193314  0.59944274  0.73751373  1  0  0.096551  0  0.915165  0  0  0.107906  0  0.97984  0  0  0.109473  0  0.977819  0  0  0.114185  0.106788  0  0.981364  0
H  H33  1  0.56735992  0.58324743  0.77558969  1  0  0.097186  0  0.916597  0  0  0.110965  0  0.976732  0  0  0.111978  0  0.975983  0  0  0.117605  0.110213  0  0.977389  0
H  H34  1  0.75403424  0.05668784  0.82528109  1  0  0.113493  0  0.957814  0  0  0.123283  0  1.019852  0  0  0.12753  0  1.017222  0  0  0.11415  0.120207  0  1.021936  0
H  H35  1  0.66443420  0.32200824  0.72167059  1  0  0.101819  0  0.968752  0  0  0.10691  0  1.039466  0  0  0.110343  0  1.036635  0  0  0.104322  0.10441  0  1.041484  0
H  H36  1  0.46375136  0.05485019  0.54347998  1  0  0.095292  0  0.974967  0  0  0.104315  0  1.03901  0  0  0.105671  0  1.039914  0  0  0.102827  0.103311  0  1.038414  0
H  H37  1  0.54913640  0.78782860  0.64841255  1  0  0.121231  0  0.958455  0  0  0.130592  0  1.02091  0  0  0.133751  0  1.019946  0  0  0.107333  0.128344  0  1.021693  0
H  H38  1  0.78734846  0.59088046  0.55081777  1  0  0.112616  0  0.947776  0  0  0.12026  0  1.010764  0  0  0.123847  0  1.007957  0  0  0.109585  0.117671  0  1.012769  0
H  H39  1  0.03248180  0.64450283  0.44723925  1  0  0.116909  0  0.976518  0  0  0.123545  0  1.043513  0  0  0.12686  0  1.042343  0  0  0.106945  0.121208  0  1.044416  0
H  H40  1  0.82500101  0.36307889  0.27740326  1  0  0.114583  0  0.939258  0  0  0.125836  0  0.99706  0  0  0.130148  0  0.99441  0  0  0.11388  0.122686  0  0.999241  0
H  H41  1  0.58023976  0.30121280  0.38597301  1  0  0.103074  0  0.962194  0  0  0.111888  0  1.02557  0  0  0.114606  0  1.02407  0  0  0.107406  0.109925  0  1.026644  0
H  H42  1  0.28703751  0.55951337  0.35963542  1  0  0.110447  0  0.93022  0  0  0.120252  0  0.993527  0  0  0.121507  0  0.99285  0  0  0.113289  0.119381  0  0.994049  0
H  H43  1  0.15741292  0.74545067  0.32406143  1  0  0.096868  0  0.946061  0  0  0.105565  0  1.014244  0  0  0.106819  0  1.013911  0  0  0.112725  0.104675  0  1.014579  0
C  C44  1  0.24448825  0.50303508  0.88046622  1  0  0.689454  0  3.90556  0  0  0.639236  0  4.215751  0  0  0.671263  0  4.207291  0  0  0.206938  0.617501  0  4.220892  0
C  C45  1  0.19386573  0.45017192  0.79643977  1  0  -0.072909  0  3.611126  0  0  -0.132833  0  3.878917  0  0  -0.128654  0  3.878568  0  0  -0.068419  -0.135847  0  3.879253  0
C  C46  1  0.16106934  0.20306549  0.74599894  1  0  0.292041  0  3.784208  0  0  0.283078  0  4.041945  0  0  0.296221  0  4.057069  0  0  0.093662  0.274168  0  4.031655  0
C  C47  1  0.08630525  0.29187576  0.66550467  1  0  -0.192993  0  3.709077  0  0  -0.213858  0  3.963455  0  0  -0.221477  0  3.982612  0  0  -0.103304  -0.208909  0  3.950658  0
C  C48  1  0.03602359  0.20536746  0.60448451  1  0  -0.012522  0  3.748188  0  0  -0.036279  0  3.9966  0  0  -0.032095  0  4.016577  0  0  -0.078001  -0.038733  0  3.982841  0
C  C49  1  0.05862589  0.03298917  0.62376052  1  0  -0.150596  0  3.781219  0  0  -0.12801  0  4.033145  0  0  -0.138305  0  4.058059  0  0  -0.035784  -0.121252  0  4.016331  0
C  C50  1  0.13075223  0.94417969  0.70474353  1  0  -0.0328  0  3.76589  0  0  -0.057498  0  4.018405  0  0  -0.05379  0  4.036805  0  0  -0.082008  -0.059649  0  4.005801  0
C  C51  1  0.18080184  0.02948763  0.76568590  1  0  -0.177071  0  3.728744  0  0  -0.198781  0  3.982674  0  0  -0.205778  0  4.001796  0  0  -0.098148  -0.194281  0  3.969986  0
C  C52  1  0.18518287  0.96041796  0.46377639  1  0  -0.155024  0  3.780966  0  0  -0.133592  0  4.03616  0  0  -0.142708  0  4.059211  0  0  -0.038463  -0.12769  0  4.020761  0
C  C53  1  0.32150864  0.84522510  0.47352748  1  0  -0.049481  0  3.758588  0  0  -0.070705  0  4.007462  0  0  -0.06782  0  4.025847  0  0  -0.083984  -0.072289  0  3.994869  0
C  C54  1  0.46081059  0.87577103  0.41426470  1  0  -0.175406  0  3.705104  0  0  -0.194792  0  3.956894  0  0  -0.201262  0  3.975381  0  0  -0.100388  -0.190673  0  3.944617  0
C  C55  1  0.46314891  0.02281260  0.34519946  1  0  0.287792  0  3.780609  0  0  0.275676  0  4.04253  0  0  0.289885  0  4.05556  0  0  0.094731  0.265987  0  4.033703  0
C  C56  1  0.32673038  0.13971851  0.33692682  1  0  -0.174886  0  3.730489  0  0  -0.198261  0  3.991368  0  0  -0.203851  0  4.006433  0  0  -0.09467  -0.194688  0  3.981489  0
C  C57  1  0.18794726  0.10862101  0.39561014  1  0  -0.028073  0  3.747946  0  0  -0.051637  0  3.998154  0  0  -0.047058  0  4.015311  0  0  -0.080447  -0.054411  0  3.986403  0
C  C58  1  0.73208815  0.94787676  0.28651203  1  0  -0.081214  0  3.606044  0  0  -0.140439  0  3.869071  0  0  -0.137369  0  3.870302  0  0  -0.065315  -0.142705  0  3.868281  0
C  C59  1  0.84581725  0.00033548  0.20255880  1  0  0.694197  0  3.853899  0  0  0.64084  0  4.157911  0  0  0.673314  0  4.149894  0  0  0.22136  0.618828  0  4.162591  0
C  C60  1  0.74204684  0.47605147  0.87973265  1  0  0.694136  0  3.863291  0  0  0.638586  0  4.174342  0  0  0.67083  0  4.166532  0  0  0.222518  0.616673  0  4.179029  0
C  C61  1  0.69390900  0.60813105  0.79410382  1  0  -0.060299  0  3.604651  0  0  -0.120152  0  3.872044  0  0  -0.116284  0  3.872252  0  0  -0.059013  -0.12294  0  3.871903  0
C  C62  1  0.65112478  0.90640087  0.74559461  1  0  0.285954  0  3.792486  0  0  0.277651  0  4.050316  0  0  0.290501  0  4.065427  0  0  0.093841  0.268895  0  4.039999  0
C  C63  1  0.68580873  0.05728859  0.76481844  1  0  -0.176656  0  3.729949  0  0  -0.197909  0  3.985036  0  0  -0.204782  0  4.003767  0  0  -0.093752  -0.193489  0  3.972596  0
C  C64  1  0.63766615  0.20601677  0.70582388  1  0  -0.02823  0  3.763098  0  0  -0.054996  0  4.017637  0  0  -0.051081  0  4.03591  0  0  -0.078907  -0.057304  0  4.005164  0
C  C65  1  0.55526397  0.20389383  0.62675642  1  0  -0.152033  0  3.771087  0  0  -0.129276  0  4.024073  0  0  -0.139399  0  4.048139  0  0  -0.034926  -0.122679  0  4.007883  0
C  C66  1  0.52550191  0.05439567  0.60580785  1  0  -0.003484  0  3.73332  0  0  -0.027513  0  3.981093  0  0  -0.022906  0  4.000756  0  0  -0.072957  -0.030246  0  3.967571  0
C  C67  1  0.57315395  0.90394910  0.66530156  1  0  -0.192542  0  3.706145  0  0  -0.21209  0  3.958335  0  0  -0.220286  0  3.978177  0  0  -0.100797  -0.206786  0  3.945066  0
C  C68  1  0.66899395  0.44284337  0.47461329  1  0  -0.150046  0  3.779401  0  0  -0.127604  0  4.033267  0  0  -0.136796  0  4.056317  0  0  -0.034127  -0.121589  0  4.01775  0
C  C69  1  0.79493733  0.54010355  0.49134785  1  0  -0.038815  0  3.757288  0  0  -0.061334  0  4.006288  0  0  -0.057755  0  4.023993  0  0  -0.078937  -0.063424  0  3.994151  0
C  C70  1  0.93330039  0.57273320  0.43156951  1  0  -0.187688  0  3.711788  0  0  -0.205873  0  3.961813  0  0  -0.212969  0  3.980838  0  0  -0.100568  -0.201306  0  3.949163  0
C  C71  1  0.94290660  0.50886866  0.35451598  1  0  0.2786  0  3.798185  0  0  0.270073  0  4.057866  0  0  0.283312  0  4.071897  0  0  0.092951  0.261042  0  4.048417  0
C  C72  1  0.81509506  0.41157446  0.33774896  1  0  -0.174322  0  3.71785  0  0  -0.196218  0  3.976421  0  0  -0.201825  0  3.991571  0  0  -0.093657  -0.192696  0  3.966489  0
C  C73  1  0.67886044  0.37772696  0.39796291  1  0  -0.020162  0  3.735667  0  0  -0.045513  0  3.98569  0  0  -0.040811  0  4.002616  0  0  -0.076681  -0.048405  0  3.974145  0
C  C74  1  0.20707387  0.63244060  0.30525578  1  0  -0.086829  0  3.613716  0  0  -0.146382  0  3.879143  0  0  -0.14291  0  3.879288  0  0  -0.072642  -0.148846  0  3.879021  0
C  C75  1  0.30891183  0.68766452  0.21717964  1  0  0.693739  0  3.868698  0  0  0.643517  0  4.170306  0  0  0.675911  0  4.161718  0  0  0.214569  0.621539  0  4.17547  0
S  S76  1  0.01125886  0.92647325  0.54180527  1  0  1.06595  0  5.26752  0  0  0.995946  0  5.75661  0  0  1.03608  0  5.743873  0  0  0.465994  0.967713  0  5.765867  0
S  S77  1  0.49646915  0.39524608  0.55200400  1  0  1.072058  0  5.251526  0  0  0.999564  0  5.739089  0  0  1.039514  0  5.726818  0  0  0.470624  0.971484  0  5.747979  0
O  O78  1  0.22048854  0.27415755  0.80967471  1  0  -0.300917  0  2.379501  0  0  -0.227475  0  2.614851  0  0  -0.245024  0  2.616404  0  0  -0.202719  -0.215112  0  2.613424  0
O  O79  1  0.31827303  0.39962888  0.94340813  1  0  -0.736096  0  1.951868  0  0  -0.695965  0  2.201013  0  0  -0.716697  0  2.186959  0  0  -0.453398  -0.681422  0  2.210235  0
O  O80  1  0.20671047  0.65502472  0.87787946  1  0  -0.665442  0  1.983098  0  0  -0.597057  0  2.199964  0  0  -0.624119  0  2.190528  0  0  -0.317063  -0.578043  0  2.205876  0
O  O81  1  0.86432474  0.00650563  0.49265305  1  0  -0.584972  0  1.944242  0  0  -0.541532  0  2.18921  0  0  -0.562075  0  2.181901  0  0  -0.318601  -0.527001  0  2.193835  0
O  O82  1  0.01211139  0.75003766  0.58686235  1  0  -0.59706  0  1.938849  0  0  -0.549764  0  2.184379  0  0  -0.56945  0  2.173241  0  0  -0.320215  -0.535824  0  2.191636  0
O  O83  1  0.59132667  0.06395945  0.28260090  1  0  -0.262211  0  2.345869  0  0  -0.18732  0  2.575038  0  0  -0.205353  0  2.577195  0  0  -0.1715  -0.17451  0  2.573066  0
O  O84  1  0.80408856  0.12926562  0.14015474  1  0  -0.6924  0  2.050838  0  0  -0.611841  0  2.258771  0  0  -0.638598  0  2.247083  0  0  -0.309457  -0.593161  0  2.266444  0
O  O85  1  0.97765895  0.91083719  0.19882229  1  0  -0.670335  0  1.959647  0  0  -0.616359  0  2.191733  0  0  -0.641436  0  2.182558  0  0  -0.357631  -0.598827  0  2.197489  0
O  O86  1  0.69692915  0.76855135  0.81182813  1  0  -0.303131  0  2.396238  0  0  -0.233486  0  2.635736  0  0  -0.249874  0  2.635907  0  0  -0.212962  -0.221711  0  2.635073  0
O  O87  1  0.73754190  0.51635795  0.95496027  1  0  -0.689979  0  2.018612  0  0  -0.627261  0  2.246023  0  0  -0.651234  0  2.233908  0  0  -0.358272  -0.610529  0  2.254051  0
O  O88  1  0.78091024  0.33263818  0.86808745  1  0  -0.651691  0  1.985999  0  0  -0.584971  0  2.204286  0  0  -0.611793  0  2.196099  0  0  -0.310638  -0.566219  0  2.209455  0
O  O89  1  0.48287705  0.51920618  0.60531838  1  0  -0.600799  0  1.94585  0  0  -0.553068  0  2.19295  0  0  -0.572879  0  2.181837  0  0  -0.318184  -0.539025  0  2.200165  0
O  O90  1  0.35489589  0.37306322  0.49988366  1  0  -0.581939  0  1.955983  0  0  -0.535092  0  2.201389  0  0  -0.555937  0  2.19448  0  0  -0.311986  -0.520389  0  2.205787  0
O  O91  1  0.07169820  0.53509631  0.29114851  1  0  -0.304288  0  2.387921  0  0  -0.236317  0  2.629077  0  0  -0.253135  0  2.629332  0  0  -0.204759  -0.224412  0  2.628457  0
O  O92  1  0.27036861  0.63890792  0.14808486  1  0  -0.733833  0  1.988783  0  0  -0.680213  0  2.227259  0  0  -0.703041  0  2.212649  0  0  -0.415052  -0.664251  0  2.236965  0
O  O93  1  0.42532612  0.78412579  0.21956938  1  0  -0.648911  0  1.986109  0  0  -0.584887  0  2.199341  0  0  -0.611115  0  2.191412  0  0  -0.314011  -0.566551  0  2.204284  0
O  O94  1  0.37091906  0.81426765  0.97818419  1  0  -0.938777  0  1.771889  0  0  -0.89428  0  1.950202  0  0  -0.910673  0  1.91331  0  0  -0.705132  -0.882616  0  1.976144  0
O  O95  1  0.61425553  0.08257426  0.98874311  1  0  -0.892251  0  1.772789  0  0  -0.846806  0  1.939565  0  0  -0.863138  0  1.908504  0  0  -0.67079  -0.835259  0  1.96133  0
O  O96  1  0.00895205  0.12141045  0.97759248  1  0  -0.859597  0  1.883722  0  0  -0.808767  0  2.068452  0  0  -0.826756  0  2.035284  0  0  -0.619084  -0.796008  0  2.09173  0
O  O97  1  0.26214760  0.08747782  0.13088054  1  0  -0.91258  0  1.77164  0  0  -0.87189  0  1.939561  0  0  -0.888247  0  1.908054  0  0  -0.681477  -0.86028  0  1.961698  0
O  O98  1  0.68282993  0.67516467  0.13179730  1  0  -0.94424  0  1.77954  0  0  -0.900653  0  1.957587  0  0  -0.917766  0  1.925474  0  0  -0.727752  -0.888542  0  1.980081  0
O  O99  1  0.96111746  0.80533250  0.97488366  1  0  -0.9368  0  1.780641  0  0  -0.894868  0  1.961248  0  0  -0.910689  0  1.928358  0  0  -0.712836  -0.883703  0  1.984322  0
O  O100  1  0.97660943  0.41998162  0.08727226  1  0  -0.90993  0  1.76937  0  0  -0.870168  0  1.942506  0  0  -0.88552  0  1.910448  0  0  -0.697689  -0.859362  0  1.965026  0
O  O101  1  0.56419841  0.38042654  0.11494243  1  0  -0.872527  0  1.8351  0  0  -0.824963  0  2.009679  0  0  -0.84301  0  1.976827  0  0  -0.642159  -0.812138  0  2.032712  0
