# generated using pymatgen
data_CuH16C24(N2O3)2
_symmetry_space_group_name_H-M   'P 1'
_cell_length_a   7.37206568
_cell_length_b   11.85648330
_cell_length_c   13.11154574
_cell_angle_alpha   108.42791353
_cell_angle_beta   106.33013586
_cell_angle_gamma   90.00823624
_symmetry_Int_Tables_number   1
_chemical_formula_structural   CuH16C24(N2O3)2
_chemical_formula_sum   'Cu2 H32 C48 N8 O12'
_cell_volume   1038.40817122
_cell_formula_units_Z   2
loop_
 _symmetry_equiv_pos_site_id
 _symmetry_equiv_pos_as_xyz
  1  'x, y, z'
loop_
 _atom_site_type_symbol
 _atom_site_label
 _atom_site_symmetry_multiplicity
 _atom_site_fract_x
 _atom_site_fract_y
 _atom_site_fract_z
 _atom_site_occupancy
 _atom_site_hle17_ddec_charge
 _atom_site_hle17_ddec_spin_density
 _atom_site_hle17_ddec_sum_bond_order
 _atom_site_hle17_magmom
 _atom_site_hse06_10hf_ddec_charge
 _atom_site_hse06_10hf_ddec_spin_density
 _atom_site_hse06_10hf_ddec_sum_bond_order
 _atom_site_hse06_10hf_magmom
 _atom_site_hse06_ddec_charge
 _atom_site_hse06_ddec_spin_density
 _atom_site_hse06_ddec_sum_bond_order
 _atom_site_hse06_magmom
 _atom_site_pbe_cm5_charge
 _atom_site_pbe_ddec_charge
 _atom_site_pbe_ddec_spin_density
 _atom_site_pbe_ddec_sum_bond_order
 _atom_site_pbe_magmom
Cu  Cu0  1  0.40356431  0.74992010  0.00003238  1  0.770111  -0.670112  1.789318  -0.468  0.747841  -0.791437  2.178823  -0.603  0.85367  -0.879236  2.102106  -0.702  0.73084  0.679969  -0.725106  2.236037  -0.536
Cu  Cu1  1  0.59643811  0.25007807  0.99996559  1  0.770316  0.670249  1.78933  0.468  0.747839  0.791427  2.178815  0.603  0.853724  0.879254  2.102188  0.702  0.730871  0.680005  0.725107  2.236059  0.536
H  H2  1  0.53212612  0.02519326  0.80926761  1  0.091756  0.000701  0.974917  0.001  0.09539  0.000788  1.044975  0.002  0.097969  0.000577  1.042865  0.001  0.116163  0.093087  0.000903  1.046888  0.002
H  H3  1  0.72278390  0.47512451  0.19081040  1  0.09075  0.000736  0.975404  0.001  0.094304  0.000797  1.045614  0.002  0.097049  0.000582  1.043269  0.001  0.115663  0.091927  0.000917  1.047585  0.002
H  H4  1  0.46786795  0.97480580  0.19073082  1  0.09174  -0.000703  0.974975  -0.001  0.09536  -0.000788  1.045027  -0.002  0.097937  -0.000577  1.042923  -0.001  0.116158  0.093055  -0.000903  1.04694  -0.002
H  H5  1  0.27720593  0.52487454  0.80919042  1  0.090764  -0.000743  0.975439  -0.001  0.094332  -0.000797  1.045624  -0.002  0.097078  -0.000582  1.043276  -0.001  0.115681  0.091959  -0.000917  1.047595  -0.002
H  H6  1  0.64893405  0.94419095  0.64210858  1  0.110255  0.000443  0.951521  0.001  0.120729  0.000454  1.011685  0.001  0.123252  0.000331  1.01285  0.0  0.108056  0.118767  0.000533  1.011208  0.001
H  H7  1  0.00682041  0.55591377  0.35807737  1  0.110223  0.000449  0.950619  0.001  0.120587  0.000466  1.010992  0.001  0.123093  0.000339  1.012225  0.0  0.108042  0.118628  0.000549  1.01051  0.001
H  H8  1  0.35105847  0.05580722  0.35788783  1  0.110297  -0.000442  0.951531  -0.001  0.120756  -0.000454  1.011698  -0.001  0.123281  -0.000331  1.012857  0.0  0.108056  0.118793  -0.000533  1.011219  -0.001
H  H9  1  0.99317126  0.44408797  0.64192374  1  0.110255  -0.000448  0.95057  -0.001  0.12063  -0.000466  1.010925  -0.001  0.123136  -0.000339  1.012157  0.0  0.108041  0.118673  -0.000549  1.010442  -0.001
H  H10  1  0.04121496  0.26320930  0.77226735  1  0.121305  0.000429  0.933154  0.0  0.133464  0.000512  0.98811  0.001  0.136876  0.000364  0.986938  0.0  0.112632  0.130765  0.000611  0.989423  0.001
H  H11  1  0.26845834  0.23681825  0.22765143  1  0.121942  0.000473  0.933714  0.0  0.134232  0.00052  0.988262  0.001  0.137605  0.000368  0.987117  0.0  0.113243  0.131549  0.000619  0.989556  0.001
H  H12  1  0.95878987  0.73678617  0.22773403  1  0.121244  -0.00043  0.933146  0.0  0.133423  -0.000513  0.98808  -0.001  0.136833  -0.000364  0.986909  0.0  0.112608  0.130718  -0.000611  0.989397  -0.001
H  H13  1  0.73154336  0.76318438  0.77234847  1  0.12198  -0.000468  0.933758  0.0  0.134242  -0.00052  0.98832  -0.001  0.13763  -0.000368  0.987157  0.0  0.113254  0.131561  -0.000619  0.989615  -0.001
H  H14  1  0.90564522  0.33291934  0.93183476  1  0.094726  0.000979  0.959235  0.002  0.096513  0.000924  1.032315  0.001  0.098754  0.000679  1.030199  0.001  0.119164  0.094304  0.001069  1.03439  0.002
H  H15  1  0.97312750  0.16721109  0.06820895  1  0.094805  0.000944  0.959982  0.002  0.096544  0.000922  1.03286  0.001  0.098808  0.000679  1.030735  0.001  0.119501  0.094311  0.001064  1.034963  0.002
H  H16  1  0.09435564  0.66707793  0.06816499  1  0.094725  -0.000976  0.959217  -0.002  0.096503  -0.000924  1.032304  -0.001  0.098744  -0.000679  1.030188  -0.001  0.119159  0.094293  -0.001069  1.034382  -0.002
H  H17  1  0.02686969  0.83278976  0.93179049  1  0.094816  -0.000943  0.959963  -0.002  0.096552  -0.000922  1.032838  -0.001  0.098814  -0.000679  1.030714  -0.001  0.119493  0.09432  -0.001064  1.03494  -0.002
H  H18  1  0.68962923  0.21829636  0.56952415  1  0.083821  9e-06  1.005229  0.0  0.090893  -2e-05  1.075063  0.0  0.092428  -1.8e-05  1.077353  0.0  0.092499  0.089828  -2.2e-05  1.073486  0.0
H  H19  1  0.12016507  0.28166163  0.43056310  1  0.084049  3.5e-05  1.00514  0.0  0.09094  -1.4e-05  1.075249  0.0  0.092464  -1.4e-05  1.077541  0.0  0.092423  0.089885  -1.5e-05  1.073666  0.0
H  H20  1  0.31037036  0.78170180  0.43047566  1  0.083808  -1.5e-05  1.005212  0.0  0.090878  2e-05  1.075058  0.0  0.092413  1.8e-05  1.077348  0.0  0.092501  0.089812  2.2e-05  1.07348  0.0
H  H21  1  0.87983126  0.71834278  0.56944104  1  0.084081  -3.4e-05  1.005112  0.0  0.090994  1.4e-05  1.075196  0.0  0.092518  1.4e-05  1.077486  0.0  0.092437  0.089938  1.4e-05  1.073612  0.0
H  H22  1  0.59817880  0.29131493  0.40769545  1  0.081392  4.9e-05  0.995031  0.0  0.088982  1.5e-05  1.061813  0.0  0.090834  1e-05  1.062721  0.0  0.093887  0.087635  1.7e-05  1.061253  0.0
H  H23  1  0.19056728  0.20872670  0.59243949  1  0.081063  3e-06  0.994781  0.0  0.088155  1.2e-05  1.062225  0.0  0.090008  9e-06  1.063154  0.0  0.09353  0.086818  1.6e-05  1.061636  0.0
H  H24  1  0.40182517  0.70868412  0.59230683  1  0.081387  -4.6e-05  0.995015  0.0  0.088917  -1.5e-05  1.061856  0.0  0.090769  -1e-05  1.062765  0.0  0.093866  0.087572  -1.7e-05  1.061297  0.0
H  H25  1  0.80943598  0.79127682  0.40756168  1  0.080997  -6e-06  0.994767  0.0  0.088147  -1.2e-05  1.062154  0.0  0.090001  -8e-06  1.063085  0.0  0.093515  0.086806  -1.6e-05  1.061562  0.0
H  H26  1  0.71394503  0.20192064  0.24144433  1  0.09982  -2.9e-05  0.967806  0.0  0.107447  -2.4e-05  1.030458  0.0  0.109507  -1.1e-05  1.030198  0.0  0.099793  0.105803  -3e-05  1.030926  0.0
H  H27  1  0.47269243  0.29822340  0.75866647  1  0.099997  -2.5e-05  0.967879  0.0  0.107576  -2.5e-05  1.030634  0.0  0.109564  -1.1e-05  1.030446  0.0  0.099659  0.105971  -3e-05  1.031091  0.0
H  H28  1  0.28605908  0.79807930  0.75855747  1  0.099826  3e-05  0.967722  0.0  0.107442  2.4e-05  1.030393  0.0  0.109503  1.1e-05  1.030134  0.0  0.099831  0.105803  3e-05  1.030861  0.0
H  H29  1  0.52731083  0.70178013  0.24133317  1  0.099996  3.3e-05  0.967884  0.0  0.107579  2.5e-05  1.030633  0.0  0.109568  1.1e-05  1.030444  0.0  0.099669  0.105971  3e-05  1.031082  0.0
H  H30  1  0.07303901  0.95736695  0.76237484  1  0.098792  -6.4e-05  0.990477  0.0  0.101638  3.9e-05  1.062898  0.0  0.105135  1.2e-05  1.061416  0.0  0.097413  0.099023  7.6e-05  1.06412  0.0
H  H31  1  0.31049614  0.54248830  0.23759191  1  0.098998  -8.6e-05  0.989652  0.0  0.101746  3.1e-05  1.062173  0.0  0.105279  7e-06  1.060572  0.0  0.097342  0.09913  6.6e-05  1.063403  0.0
H  H32  1  0.92696214  0.04263210  0.23762623  1  0.098804  6.7e-05  0.990465  0.0  0.101641  -3.8e-05  1.062906  0.0  0.105139  -1.3e-05  1.061423  0.0  0.097418  0.099024  -7.6e-05  1.064127  0.0
H  H33  1  0.68950443  0.45751613  0.76240604  1  0.099033  9e-05  0.98968  0.0  0.101774  -3e-05  1.062208  0.0  0.10531  -8e-06  1.060601  0.0  0.097349  0.09916  -6.6e-05  1.063437  0.0
C  C34  1  0.64355157  0.07509358  0.79715695  1  0.141378  -0.005095  3.670766  -0.005  0.113922  -0.000649  3.92155  -0.001  0.125359  -0.001688  3.937636  -0.002  0.049135  0.106542  0.000124  3.911595  0.0
C  C35  1  0.84621675  0.42515654  0.20295115  1  0.142265  -0.005047  3.671246  -0.005  0.114903  -0.000628  3.9214  -0.001  0.126238  -0.001673  3.937459  -0.002  0.049168  0.107582  0.000145  3.911462  0.0
C  C36  1  0.35644675  0.92490547  0.20284215  1  0.141421  0.005072  3.670808  0.005  0.113996  0.00065  3.921589  0.001  0.125429  0.001688  3.937675  0.002  0.049155  0.106612  -0.000123  3.91163  0.0
C  C37  1  0.15377633  0.57484519  0.79705019  1  0.142261  0.005101  3.671361  0.005  0.114921  0.00063  3.921512  0.001  0.126252  0.001671  3.93757  0.002  0.049202  0.107602  -0.000145  3.911583  0.0
C  C38  1  0.71056278  0.03069982  0.70453890  1  -0.154013  0.007657  3.677892  0.008  -0.165539  0.004058  3.906877  0.005  -0.173832  0.003727  3.925539  0.004  -0.07595  -0.160346  0.004108  3.894785  0.005
C  C39  1  0.00586873  0.46943263  0.29558888  1  -0.153113  0.007622  3.677694  0.008  -0.164575  0.004071  3.906537  0.005  -0.172897  0.003738  3.925267  0.004  -0.075498  -0.15939  0.004123  3.894432  0.005
C  C40  1  0.28943398  0.96929834  0.29545894  1  -0.154053  -0.007632  3.677902  -0.008  -0.165582  -0.004059  3.906853  -0.005  -0.173877  -0.003726  3.925522  -0.004  -0.075949  -0.160389  -0.004108  3.894762  -0.005
C  C41  1  0.99412718  0.53056911  0.70441214  1  -0.153212  -0.007664  3.677865  -0.008  -0.164686  -0.004072  3.906724  -0.005  -0.173008  -0.003735  3.925456  -0.004  -0.075541  -0.159499  -0.004123  3.894623  -0.005
C  C42  1  0.85527419  0.09711337  0.69210403  1  0.123027  -0.006393  3.753886  -0.006  0.141483  -0.002697  3.978291  -0.003  0.148795  -0.002907  3.996487  -0.003  0.024693  0.136495  -0.002447  3.966133  -0.002
C  C43  1  0.16289547  0.40291422  0.30797212  1  0.12272  -0.006421  3.752223  -0.006  0.14099  -0.002706  3.977156  -0.003  0.148305  -0.002914  3.995287  -0.003  0.024681  0.135995  -0.00246  3.96503  -0.002
C  C44  1  0.14472498  0.90288211  0.30789494  1  0.122958  0.006362  3.753959  0.006  0.141442  0.002698  3.978318  0.003  0.148753  0.002905  3.996518  0.003  0.024704  0.136453  0.002447  3.966161  0.002
C  C45  1  0.83710073  0.59708929  0.69203022  1  0.122852  0.00645  3.752204  0.006  0.141084  0.002708  3.977151  0.003  0.148397  0.002912  3.995288  0.003  0.024729  0.136088  0.00246  3.965029  0.002
C  C46  1  0.92687375  0.20761255  0.77570323  1  -0.136523  0.008148  3.653326  0.008  -0.155278  0.004114  3.896256  0.005  -0.161761  0.003765  3.912409  0.004  -0.073287  -0.15156  0.0042  3.886262  0.005
C  C47  1  0.15074593  0.29246229  0.22431395  1  -0.137161  0.008071  3.654507  0.008  -0.156137  0.004101  3.897621  0.005  -0.162575  0.003759  3.913801  0.004  -0.073451  -0.152429  0.004181  3.887611  0.005
C  C48  1  0.07312980  0.79238382  0.22429745  1  -0.136449  -0.008109  3.653253  -0.008  -0.155217  -0.004114  3.896139  -0.005  -0.161698  -0.003763  3.912294  -0.004  -0.073312  -0.151496  -0.0042  3.886143  -0.005
C  C49  1  0.84925323  0.70754212  0.77568836  1  -0.137346  -0.008105  3.654683  -0.008  -0.156265  -0.004102  3.897761  -0.005  -0.162716  -0.003758  3.913938  -0.004  -0.073529  -0.152556  -0.004181  3.887757  -0.005
C  C50  1  0.85333902  0.24687359  0.86627303  1  0.135421  -0.004875  3.660781  -0.005  0.103544  -0.000376  3.926097  -0.001  0.113826  -0.001494  3.944034  -0.002  0.050412  0.097009  0.000447  3.915112  0.0
C  C51  1  0.98652832  0.25327704  0.13377261  1  0.134635  -0.004775  3.663081  -0.005  0.10291  -0.000396  3.927691  -0.001  0.113264  -0.001511  3.9454  -0.002  0.049478  0.096315  0.000426  3.916847  0.0
C  C52  1  0.14666594  0.75312278  0.13372788  1  0.13541  0.004825  3.660683  0.005  0.103551  0.000376  3.926006  0.001  0.113829  0.001492  3.943944  0.002  0.050438  0.097015  -0.000447  3.915017  0.0
C  C53  1  0.01346900  0.74672469  0.86622863  1  0.134617  0.004786  3.663178  0.005  0.102913  0.000397  3.927772  0.001  0.113259  0.001509  3.945494  0.002  0.049521  0.096325  -0.000426  3.916924  0.0
C  C54  1  0.93017945  0.04887329  0.59413170  1  -0.034781  -0.001408  3.697983  -0.001  -0.040374  0.000231  3.944485  0.0  -0.041857  0.000195  3.965058  0.0  -0.002639  -0.039279  0.000241  3.930471  0.0
C  C55  1  0.33595636  0.45108590  0.40586544  1  -0.033129  -0.000357  3.696612  0.0  -0.039674  0.000228  3.943278  0.0  -0.041176  0.000196  3.963889  0.0  -0.002909  -0.038549  0.000233  3.929231  0.0
C  C56  1  0.06981986  0.95112308  0.40586755  1  -0.0347  0.001495  3.697996  0.001  -0.040308  -0.000232  3.944494  0.0  -0.041791  -0.000195  3.965068  0.0  -0.002594  -0.039211  -0.000241  3.930477  0.0
C  C57  1  0.66403842  0.54891762  0.59413439  1  -0.033122  0.000189  3.696518  0.0  -0.039669  -0.000234  3.94313  0.0  -0.04117  -0.00019  3.963738  0.0  -0.002926  -0.038549  -0.000233  3.92909  0.0
C  C58  1  0.05817615  0.96040897  0.59494780  1  0.023023  -0.000162  3.760789  0.0  0.034305  -0.000136  3.995684  0.0  0.034032  -0.000147  4.019093  0.0  -0.004493  0.03448  -0.000109  3.979801  0.0
C  C59  1  0.46316108  0.53954315  0.40505538  1  0.021774  -0.000394  3.762249  0.0  0.034308  -0.000112  3.99562  0.0  0.033975  -0.000137  4.01907  0.0  -0.00387  0.034518  -8.7e-05  3.979704  0.0
C  C60  1  0.94182486  0.03958919  0.40505147  1  0.022992  0.000157  3.760809  0.0  0.034279  0.000137  3.995686  0.0  0.034008  0.000147  4.019096  0.0  -0.004501  0.034453  0.000109  3.979803  0.0
C  C61  1  0.53683228  0.46046038  0.59494271  1  0.021693  0.000422  3.762268  0.0  0.034265  0.000115  3.995639  0.0  0.033933  0.000133  4.019089  0.0  -0.003934  0.034476  8.7e-05  3.979734  0.0
C  C62  1  0.87075282  0.08938920  0.50075640  1  0.016251  0.000708  3.78218  0.001  0.027512  -8.3e-05  4.017143  0.0  0.027423  -0.000109  4.040393  0.0  -0.006817  0.027602  -4.4e-05  4.001269  0.0
C  C63  1  0.37000721  0.41061054  0.49926730  1  0.016127  0.000546  3.78262  0.001  0.027427  -6.6e-05  4.017188  0.0  0.027424  -0.000106  4.040316  0.0  -0.007003  0.027454  -2.1e-05  4.001396  0.0
C  C64  1  0.12924805  0.91060807  0.49924335  1  0.016194  -0.000733  3.782153  -0.001  0.02746  8.3e-05  4.017128  0.0  0.027371  0.000109  4.040377  0.0  -0.006826  0.027548  4.4e-05  4.001251  0.0
C  C65  1  0.62998884  0.58939209  0.50073172  1  0.016183  -0.000515  3.782561  -0.001  0.027561  7e-05  4.017009  0.0  0.027559  0.000103  4.040135  0.0  -0.007031  0.027591  2.1e-05  4.001215  0.0
C  C66  1  0.74407638  0.18025209  0.49806854  1  -0.11808  -0.003371  3.747549  -0.003  -0.140631  -0.000134  4.000998  0.0  -0.14383  -6e-05  4.022595  0.0  -0.097355  -0.138281  -0.000226  3.986098  0.0
C  C67  1  0.24610309  0.31971941  0.50201124  1  -0.118212  -0.002563  3.748191  -0.002  -0.140973  -0.000169  4.001709  0.0  -0.144229  -7.9e-05  4.023339  0.0  -0.097284  -0.138574  -0.000287  3.986775  0.0
C  C68  1  0.25592434  0.81974428  0.50193170  1  -0.118161  0.003474  3.747552  0.003  -0.140725  0.000135  4.00101  0.0  -0.143925  6e-05  4.022606  0.0  -0.097445  -0.138371  0.000226  3.986105  0.0
C  C69  1  0.75389565  0.68028233  0.49798718  1  -0.118439  0.00244  3.748114  0.002  -0.141223  0.00017  4.001611  0.0  -0.144482  7.9e-05  4.023241  0.0  -0.097323  -0.138831  0.000287  3.986677  0.0
C  C70  1  0.69267562  0.22082755  0.40769519  1  -0.064422  0.000586  3.769381  0.001  -0.079054  -3.8e-05  4.023241  0.0  -0.079785  -3.3e-05  4.043147  0.0  -0.0952  -0.078402  -5e-05  4.009521  0.0
C  C71  1  0.28507247  0.27922271  0.59242930  1  -0.063723  0.000441  3.767709  0.0  -0.078245  -4.7e-05  4.021928  0.0  -0.079024  -3.5e-05  4.041915  0.0  -0.095257  -0.077563  -5.2e-05  4.008136  0.0
C  C72  1  0.30732539  0.77917060  0.59230560  1  -0.064313  -0.000621  3.76929  -0.001  -0.07889  3.8e-05  4.023143  0.0  -0.079619  3.3e-05  4.043049  0.0  -0.095125  -0.07824  5e-05  4.009426  0.0
C  C73  1  0.71492372  0.72078082  0.40756923  1  -0.063598  -0.000428  3.767478  0.0  -0.078168  4.6e-05  4.021676  0.0  -0.07895  3.6e-05  4.041668  0.0  -0.095235  -0.077481  5.2e-05  4.007873  0.0
C  C74  1  0.76004930  0.17083806  0.31341904  1  -0.057922  -0.001423  3.743258  -0.001  -0.073884  -1.4e-05  3.997722  0.0  -0.075102  1.8e-05  4.017361  0.0  -0.095476  -0.073008  -5.6e-05  3.984462  0.0
C  C75  1  0.44678399  0.32927586  0.68667126  1  -0.057258  -0.001076  3.742511  -0.001  -0.073216  6e-06  3.997135  0.0  -0.074403  2.9e-05  4.016869  0.0  -0.094102  -0.072354  -3.8e-05  3.983803  0.0
C  C76  1  0.23995029  0.82916010  0.68658153  1  -0.057942  0.001465  3.743113  0.001  -0.0739  1.4e-05  3.997586  0.0  -0.07512  -1.8e-05  4.017224  0.0  -0.095516  -0.073027  5.6e-05  3.984334  0.0
C  C77  1  0.55321588  0.67072410  0.31332530  1  -0.057229  0.000994  3.74239  0.001  -0.0732  -5e-06  3.997042  0.0  -0.074387  -3.1e-05  4.016774  0.0  -0.094092  -0.072338  3.8e-05  3.983697  0.0
C  C78  1  0.12012879  0.91785192  0.68834176  1  -0.102427  -6.1e-05  3.720234  0.0  -0.126826  3.2e-05  3.97901  0.0  -0.128827  1.7e-05  3.998136  0.0  -0.092709  -0.125399  6.8e-05  3.966202  0.0
C  C79  1  0.43165803  0.58204836  0.31161713  1  -0.102489  0.000644  3.721157  0.001  -0.127441  5.1e-05  3.979868  0.0  -0.129448  2.5e-05  3.999046  0.0  -0.09303  -0.12599  9.3e-05  3.96701  0.0
C  C80  1  0.87986953  0.08214714  0.31165810  1  -0.102457  7.2e-05  3.720364  0.0  -0.126852  -3.2e-05  3.979131  0.0  -0.128856  -1.7e-05  3.998261  0.0  -0.092735  -0.125424  -6.8e-05  3.966319  0.0
C  C81  1  0.56834212  0.41795338  0.68838151  1  -0.102509  -0.000711  3.721203  -0.001  -0.127468  -5.2e-05  3.979894  0.0  -0.12948  -2.2e-05  3.99908  0.0  -0.09301  -0.126015  -9.3e-05  3.967046  0.0
N  N82  1  0.67799465  0.90769781  0.01136704  1  0.684614  0.003807  4.131469  0.006  0.731858  0.000961  4.411174  0.003  0.751099  0.000503  4.437988  0.002  0.096755  0.708286  0.001394  4.406533  0.003
N  N83  1  0.66677615  0.59235137  0.98865961  1  0.683495  0.003691  4.130816  0.006  0.730858  0.000968  4.410301  0.003  0.751298  0.000518  4.435666  0.002  0.095548  0.707295  0.001401  4.405678  0.003
N  N84  1  0.32201032  0.09229856  0.98863463  1  0.684695  -0.003697  4.131284  -0.006  0.731769  -0.000962  4.41124  -0.003  0.751171  -0.000502  4.437804  -0.002  0.096733  0.708199  -0.001394  4.406595  -0.003
N  N85  1  0.33322924  0.40764769  0.01133833  1  0.683613  -0.003656  4.130801  -0.006  0.730872  -0.000969  4.41041  -0.003  0.751391  -0.000513  4.435652  -0.002  0.095597  0.70731  -0.001401  4.405788  -0.003
N  N86  1  0.71345486  0.18184982  0.87685744  1  -0.312702  0.069489  3.348246  0.084  -0.264562  0.055991  3.655477  0.072  -0.298618  0.047866  3.675886  0.065  -0.35294  -0.245188  0.058292  3.645371  0.071
N  N87  1  0.83626163  0.31840640  0.12320821  1  -0.313366  0.06924  3.350896  0.084  -0.26469  0.055987  3.657273  0.072  -0.298747  0.047872  3.677758  0.065  -0.352974  -0.245319  0.058288  3.647124  0.071
N  N88  1  0.28654331  0.81814834  0.12314063  1  -0.312705  -0.069448  3.348223  -0.084  -0.264591  -0.055988  3.655493  -0.072  -0.298625  -0.047869  3.675854  -0.065  -0.352943  -0.245201  -0.058292  3.64536  -0.071
N  N89  1  0.16373569  0.68159533  0.87679303  1  -0.313313  -0.069262  3.350987  -0.084  -0.264692  -0.055987  3.657429  -0.072  -0.298725  -0.047872  3.677865  -0.065  -0.353005  -0.245319  -0.058286  3.647267  -0.071
O  O90  1  0.83072548  0.96895230  0.03708339  1  -0.395319  -0.014292  1.762579  -0.018  -0.391711  -0.010515  1.964112  -0.014  -0.403757  -0.004825  1.965281  -0.007  -0.148195  -0.377506  -0.017116  1.9666  -0.022
O  O91  1  0.79374584  0.53107558  0.96294924  1  -0.394954  -0.014297  1.759198  -0.018  -0.391188  -0.010531  1.960711  -0.014  -0.403649  -0.004835  1.961449  -0.007  -0.148012  -0.377011  -0.017143  1.963222  -0.022
O  O92  1  0.16927935  0.03104317  0.96291876  1  -0.395379  0.014274  1.762448  0.018  -0.391693  0.010512  1.964026  0.014  -0.403793  0.00483  1.965124  0.007  -0.14817  -0.37749  0.017115  1.966513  0.022
O  O93  1  0.20626463  0.46892885  0.03704875  1  -0.394959  0.01429  1.759261  0.018  -0.391168  0.010529  1.960845  0.014  -0.403663  0.00484  1.961566  0.007  -0.147989  -0.376986  0.017142  1.963347  0.022
O  O94  1  0.54996720  0.88803443  0.91936138  1  -0.454711  -0.004731  1.795068  -0.007  -0.463062  -0.003571  2.025877  -0.006  -0.480097  -0.000436  2.026105  -0.002  -0.175757  -0.446294  -0.007736  2.029537  -0.011
O  O95  1  0.63071389  0.61197540  0.08064054  1  -0.453918  -0.004618  1.797248  -0.007  -0.462234  -0.003589  2.028185  -0.006  -0.47971  -0.000442  2.027985  -0.002  -0.174757  -0.445455  -0.007759  2.031823  -0.011
O  O96  1  0.45003972  0.11197444  0.08064419  1  -0.454734  0.004712  1.79505  0.007  -0.463056  0.00357  2.025942  0.006  -0.480151  0.000446  2.026106  0.002  -0.175778  -0.446291  0.007739  2.029603  0.011
O  O97  1  0.36928910  0.38801742  0.91935293  1  -0.454038  0.004614  1.797195  0.007  -0.462361  0.00359  2.028237  0.006  -0.479871  0.000441  2.028006  0.002  -0.174857  -0.445589  0.00776  2.031887  0.011
O  O98  1  0.64753931  0.85993735  0.08320900  1  -0.459982  -0.078212  1.857822  -0.1  -0.460692  -0.057482  2.113139  -0.08  -0.494648  -0.041872  2.115986  -0.062  -0.205399  -0.434389  -0.067095  2.115338  -0.089
O  O99  1  0.56453041  0.64012327  0.91683198  1  -0.460358  -0.078081  1.857963  -0.1  -0.460914  -0.057632  2.113224  -0.08  -0.495279  -0.041968  2.115595  -0.062  -0.205292  -0.434604  -0.067248  2.115393  -0.09
O  O100  1  0.35246637  0.14005456  0.91678997  1  -0.459926  0.078174  1.857772  0.1  -0.46063  0.05749  2.113194  0.08  -0.494651  0.041849  2.116005  0.062  -0.205412  -0.434338  0.067094  2.115405  0.089
O  O101  1  0.43547115  0.35987847  0.08316764  1  -0.46035  0.078069  1.857994  0.1  -0.460878  0.057632  2.113277  0.08  -0.495276  0.041954  2.11564  0.062  -0.205271  -0.434576  0.067245  2.115456  0.09
