# generated using pymatgen
data_CuH14C16N2O5
_symmetry_space_group_name_H-M   'P 1'
_cell_length_a   8.53987749
_cell_length_b   8.55535932
_cell_length_c   52.73855307
_cell_angle_alpha   90.00016656
_cell_angle_beta   90.00040875
_cell_angle_gamma   89.99988422
_symmetry_Int_Tables_number   1
_chemical_formula_structural   CuH14C16N2O5
_chemical_formula_sum   'Cu8 H112 C128 N16 O40'
_cell_volume   3853.16942076
_cell_formula_units_Z   8
loop_
 _symmetry_equiv_pos_site_id
 _symmetry_equiv_pos_as_xyz
  1  'x, y, z'
loop_
 _atom_site_type_symbol
 _atom_site_label
 _atom_site_symmetry_multiplicity
 _atom_site_fract_x
 _atom_site_fract_y
 _atom_site_fract_z
 _atom_site_occupancy
 _atom_site_pbe_bader_charge
 _atom_site_pbe_bader_spin_density
 _atom_site_pbe_cm5_charge
 _atom_site_pbe_ddec_charge
 _atom_site_pbe_ddec_spin_density
 _atom_site_pbe_ddec_sum_bond_order
 _atom_site_pbe_magmom
Cu  Cu0  1  0.10579719  0.58741653  0.26673050  1  1.081777  0.565675  0.752705  0.79128  0.726004  2.234377  0.564
Cu  Cu1  1  0.83749439  0.81452944  0.51398975  1  1.076173  0.569282  0.753147  0.796902  0.731739  2.238328  0.568
Cu  Cu2  1  0.89420442  0.91258130  0.76673034  1  1.081768  0.565678  0.752729  0.791278  0.726007  2.234438  0.564
Cu  Cu3  1  0.16250546  0.68548490  0.01399059  1  1.076057  0.569281  0.753074  0.796787  0.731748  2.238376  0.568
Cu  Cu4  1  0.60579912  0.41258146  0.23326965  1  1.081738  0.565671  0.752727  0.791243  0.725998  2.23435  0.564
Cu  Cu5  1  0.33749356  0.18549337  0.98600928  1  1.076061  0.569281  0.753125  0.796792  0.731758  2.23856  0.568
Cu  Cu6  1  0.39420203  0.08741686  0.73326970  1  1.081752  0.565672  0.752701  0.791237  0.726001  2.234441  0.564
Cu  Cu7  1  0.66250466  0.31449193  0.48600734  1  1.07609  0.569277  0.753157  0.796755  0.731759  2.238513  0.568
H  H8  1  0.18458275  0.10009641  0.29254930  1  0.063357  2.7e-05  0.1001  0.124371  -6.1e-05  0.980626  0.0
H  H9  1  0.38830918  0.08342004  0.28511576  1  0.06217  0.0024  0.097123  0.122817  0.001142  0.980496  0.001
H  H10  1  0.11454798  0.08071875  0.24710925  1  0.061953  0.000203  0.112585  0.079901  9e-05  0.96662  0.0
H  H11  1  0.44110625  0.10351338  0.23528413  1  0.66008  -1.3e-05  0.289498  0.336311  0.000116  1.004935  0.0
H  H12  1  0.34664844  0.74642784  0.54123233  1  0.049691  1.3e-05  0.099719  0.122492  -8.2e-05  0.979335  0.0
H  H13  1  0.33740248  0.54098347  0.53500097  1  0.054066  0.002342  0.097832  0.123051  0.001108  0.980349  0.001
H  H14  1  0.32973729  0.80513334  0.49531791  1  0.119909  0.000127  0.112899  0.080856  7.4e-05  0.967146  0.0
H  H15  1  0.35511953  0.47541242  0.48632424  1  0.63962  -4.9e-05  0.290558  0.336112  6.8e-05  1.003951  0.0
H  H16  1  0.22191360  0.40788373  0.31117657  1  0.096956  0.002065  0.120385  0.088987  0.000886  1.008143  0.001
H  H17  1  0.19548215  0.42678812  0.35835855  1  0.068162  0.001225  0.105583  0.111837  0.000633  0.997734  0.001
H  H18  1  0.83728698  0.77672941  0.34587990  1  0.061789  0.001148  0.109723  0.116005  0.000581  0.993987  0.001
H  H19  1  0.88266956  0.74575656  0.29971824  1  0.165247  0.001891  0.124007  0.10194  0.000861  1.019978  0.001
H  H20  1  0.08017674  0.54341137  0.39496494  1  0.049905  0.000152  0.102232  0.097901  0.000109  1.007888  0.0
H  H21  1  0.82831465  0.79471733  0.38584971  1  0.059208  0.000163  0.10205  0.094428  0.000124  1.005482  0.0
H  H22  1  0.06816339  0.56210646  0.43563006  1  0.05083  0.001206  0.108648  0.114377  0.000605  0.997735  0.001
H  H23  1  0.02840499  0.60422086  0.48104597  1  0.16691  0.002366  0.122817  0.102349  0.001166  1.025444  0.002
H  H24  1  0.68345593  0.93969518  0.46838036  1  0.159033  0.002117  0.120223  0.103885  0.000831  1.038375  0.002
H  H25  1  0.70771758  0.90988769  0.42188516  1  0.048939  0.001295  0.106767  0.114092  0.000668  0.998039  0.001
H  H26  1  0.97540369  0.43131544  0.22214081  1  0.183856  0.002022  0.118996  0.097583  0.000738  1.043159  0.002
H  H27  1  0.00234889  0.44376552  0.17607870  1  0.081396  0.001197  0.107613  0.116952  0.00062  1.006119  0.001
H  H28  1  0.35020270  0.80836596  0.18687393  1  0.075346  0.001294  0.109478  0.115975  0.000666  0.988935  0.001
H  H29  1  0.31085306  0.77908301  0.23288882  1  0.150248  0.002478  0.123322  0.101607  0.001174  1.024932  0.002
H  H30  1  0.29138952  0.73625763  0.14461921  1  0.048417  0.00016  0.101319  0.093142  0.000118  1.007762  0.0
H  H31  1  0.03156384  0.49194429  0.13629758  1  0.069294  0.000152  0.102205  0.098807  0.00011  1.010241  0.0
H  H32  1  0.32983882  0.77462149  0.10521145  1  0.046654  0.001237  0.105603  0.110656  0.00063  1.001316  0.001
H  H33  1  0.34533447  0.79944760  0.05839581  1  0.109599  0.002088  0.120273  0.088701  0.000894  1.005197  0.001
H  H34  1  0.99707810  0.46970383  0.04734651  1  0.17159  0.001976  0.12241  0.098272  0.00089  1.031111  0.002
H  H35  1  0.96799093  0.42692407  0.09389876  1  0.068909  0.001252  0.108583  0.115719  0.000644  0.987083  0.001
H  H36  1  0.81542803  0.39990296  0.79254999  1  0.063448  2.7e-05  0.100121  0.124432  -6.1e-05  0.980577  0.0
H  H37  1  0.61169893  0.41657569  0.78511585  1  0.062293  0.0024  0.097127  0.122841  0.001142  0.980439  0.001
H  H38  1  0.88545729  0.41927865  0.74710966  1  0.061902  0.000203  0.112555  0.0799  9e-05  0.966591  0.0
H  H39  1  0.55889616  0.39648146  0.73528509  1  0.660042  -1.3e-05  0.289469  0.336288  0.000116  1.004948  0.0
H  H40  1  0.65335261  0.75358232  0.04123301  1  0.049796  1.3e-05  0.099718  0.122507  -8.2e-05  0.979343  0.0
H  H41  1  0.66259244  0.95902424  0.03500157  1  0.053978  0.002342  0.097869  0.123163  0.001107  0.980387  0.001
H  H42  1  0.67026383  0.69487441  0.99531948  1  0.12002  0.000127  0.112926  0.08086  7.4e-05  0.967149  0.0
H  H43  1  0.64487987  0.02459392  0.98632361  1  0.639674  -5e-05  0.290591  0.336258  6.8e-05  1.003842  0.0
H  H44  1  0.77808044  0.09211481  0.81117631  1  0.096897  0.002064  0.120472  0.089089  0.000886  1.008196  0.001
H  H45  1  0.80451396  0.07321594  0.85835850  1  0.068045  0.001224  0.105665  0.111996  0.000633  0.997872  0.001
H  H46  1  0.16271693  0.72327684  0.84588051  1  0.061602  0.001148  0.10973  0.116  0.000581  0.993996  0.001
H  H47  1  0.11733467  0.75424303  0.79971824  1  0.165303  0.001892  0.123994  0.101944  0.000862  1.019872  0.001
H  H48  1  0.91982231  0.95658992  0.89496483  1  0.04991  0.000152  0.102259  0.097999  0.000109  1.007948  0.0
H  H49  1  0.17168166  0.70528379  0.88584975  1  0.059252  0.000163  0.102043  0.094382  0.000124  1.005456  0.0
H  H50  1  0.93183511  0.93788971  0.93562996  1  0.050739  0.001206  0.108618  0.114382  0.000605  0.997794  0.001
H  H51  1  0.97159082  0.89577612  0.98104589  1  0.166922  0.002366  0.122822  0.102406  0.001166  1.025382  0.002
H  H52  1  0.31654401  0.56030040  0.96838069  1  0.15901  0.002118  0.120273  0.103945  0.000831  1.038245  0.002
H  H53  1  0.29227563  0.59011174  0.92188548  1  0.048927  0.001295  0.10679  0.114143  0.000668  0.998014  0.001
H  H54  1  0.02460516  0.06867917  0.72214138  1  0.183578  0.002023  0.118979  0.097479  0.000739  1.043204  0.002
H  H55  1  0.99765325  0.05623295  0.67607868  1  0.081396  0.001197  0.107621  0.116967  0.00062  1.006128  0.001
H  H56  1  0.64979540  0.69163394  0.68687319  1  0.075312  0.001294  0.109471  0.115973  0.000666  0.988917  0.001
H  H57  1  0.68914940  0.72091537  0.73288833  1  0.150275  0.002479  0.123325  0.101574  0.001174  1.024951  0.002
H  H58  1  0.70861374  0.76373802  0.64461896  1  0.04821  0.00016  0.101306  0.093121  0.000118  1.007771  0.0
H  H59  1  0.96843421  0.00805931  0.63629807  1  0.069306  0.000152  0.102208  0.098803  0.00011  1.010251  0.0
H  H60  1  0.67015685  0.72537929  0.60520962  1  0.046684  0.001238  0.105624  0.110701  0.00063  1.00131  0.001
H  H61  1  0.65465914  0.70055936  0.55839395  1  0.109564  0.002089  0.120253  0.088733  0.000895  1.005278  0.001
H  H62  1  0.00291486  0.03029701  0.54734722  1  0.171609  0.001975  0.12237  0.098225  0.00089  1.031208  0.002
H  H63  1  0.03200994  0.07307643  0.59389877  1  0.068915  0.001252  0.108589  0.115724  0.000644  0.987055  0.001
H  H64  1  0.68457671  0.89989908  0.20745169  1  0.063572  2.7e-05  0.100132  0.1245  -6.1e-05  0.980514  0.0
H  H65  1  0.88830226  0.91656802  0.21488566  1  0.062275  0.002399  0.097153  0.122951  0.001142  0.980372  0.001
H  H66  1  0.61454389  0.91927337  0.25289166  1  0.061933  0.000203  0.112598  0.079896  9e-05  0.966706  0.0
H  H67  1  0.94110741  0.89647808  0.26471640  1  0.659905  -1.3e-05  0.289484  0.336279  0.000116  1.004947  0.0
H  H68  1  0.84665008  0.25357509  0.95876690  1  0.04986  1.3e-05  0.099715  0.122521  -8.2e-05  0.979292  0.0
H  H69  1  0.83740514  0.45901246  0.96499863  1  0.054192  0.002342  0.09782  0.123029  0.001108  0.98041  0.001
H  H70  1  0.82973898  0.19486770  0.00468078  1  0.119915  0.000127  0.112938  0.080908  7.4e-05  0.967136  0.0
H  H71  1  0.85512679  0.52458623  0.01367562  1  0.639717  -5e-05  0.290496  0.335994  6.8e-05  1.004097  0.0
H  H72  1  0.72191906  0.59211051  0.18882371  1  0.096968  0.002064  0.120419  0.089017  0.000886  1.008136  0.001
H  H73  1  0.69548324  0.57321553  0.14164170  1  0.068113  0.001224  0.105577  0.111898  0.000633  0.997787  0.001
H  H74  1  0.33728318  0.22327863  0.15412014  1  0.061613  0.001148  0.10972  0.115994  0.000581  0.99401  0.001
H  H75  1  0.38266772  0.25423620  0.20028242  1  0.165139  0.001892  0.124006  0.101966  0.000861  1.019869  0.001
H  H76  1  0.58017645  0.45659251  0.10503537  1  0.049934  0.000152  0.102242  0.097942  0.000109  1.007885  0.0
H  H77  1  0.32832083  0.20528254  0.11414937  1  0.059311  0.000163  0.102048  0.094402  0.000124  1.005394  0.0
H  H78  1  0.56816603  0.43789044  0.06436947  1  0.050817  0.001206  0.108616  0.114369  0.000605  0.997792  0.001
H  H79  1  0.52840455  0.39577845  0.01895333  1  0.166899  0.002366  0.122837  0.102407  0.001166  1.025384  0.002
H  H80  1  0.18345526  0.06029914  0.03161949  1  0.159009  0.002118  0.120282  0.103945  0.000831  1.038265  0.002
H  H81  1  0.20773060  0.09011126  0.07811415  1  0.04898  0.001295  0.106729  0.114081  0.000668  0.998068  0.001
H  H82  1  0.47539995  0.56867712  0.27785900  1  0.183631  0.002024  0.118996  0.097539  0.000739  1.043169  0.002
H  H83  1  0.50234749  0.55623151  0.32392114  1  0.081414  0.001197  0.107631  0.116975  0.00062  1.006127  0.001
H  H84  1  0.85020976  0.19163270  0.31312744  1  0.075263  0.001294  0.10944  0.115947  0.000666  0.988908  0.001
H  H85  1  0.81085335  0.22091690  0.26711232  1  0.150215  0.002479  0.123337  0.101578  0.001174  1.024892  0.002
H  H86  1  0.79139127  0.26373882  0.35538115  1  0.048184  0.00016  0.101279  0.093079  0.000118  1.007776  0.0
H  H87  1  0.53156898  0.50805268  0.36370191  1  0.069317  0.000152  0.102238  0.098882  0.00011  1.010295  0.0
H  H88  1  0.82983535  0.22537370  0.39478971  1  0.046591  0.001236  0.105637  0.110658  0.000629  1.001551  0.001
H  H89  1  0.84533663  0.20054639  0.44160613  1  0.109554  0.00209  0.120224  0.088671  0.000896  1.005159  0.001
H  H90  1  0.49707510  0.53030272  0.45265314  1  0.171602  0.001976  0.122353  0.098241  0.000891  1.030979  0.002
H  H91  1  0.46799399  0.57307435  0.40610085  1  0.068884  0.001252  0.108594  0.115771  0.000644  0.987138  0.001
H  H92  1  0.31542346  0.60009886  0.70745204  1  0.063408  2.7e-05  0.100108  0.124411  -6.1e-05  0.980518  0.0
H  H93  1  0.11169824  0.58343005  0.71488576  1  0.062293  0.0024  0.09711  0.122872  0.001142  0.980409  0.001
H  H94  1  0.38545944  0.58072771  0.75289208  1  0.06188  0.000203  0.112591  0.07988  9e-05  0.966681  0.0
H  H95  1  0.05889762  0.60351971  0.76471626  1  0.659969  -1.3e-05  0.289445  0.336196  0.000116  1.005091  0.0
H  H96  1  0.15334342  0.24642375  0.45876719  1  0.049688  1.3e-05  0.099696  0.122458  -8.2e-05  0.979345  0.0
H  H97  1  0.16259215  0.04098181  0.46499883  1  0.05407  0.002342  0.09784  0.123066  0.001107  0.980405  0.001
H  H98  1  0.17026382  0.30513237  0.50468106  1  0.11989  0.000127  0.112922  0.080843  7.4e-05  0.967161  0.0
H  H99  1  0.14487773  0.97541643  0.51367614  1  0.639679  -5e-05  0.290514  0.336023  6.8e-05  1.004042  0.0
H  H100  1  0.27808263  0.90789059  0.68882265  1  0.096796  0.002065  0.120392  0.089009  0.000886  1.008197  0.001
H  H101  1  0.30451638  0.92677772  0.64164049  1  0.068189  0.001224  0.105683  0.112043  0.000633  0.997731  0.001
H  H102  1  0.66271683  0.27671594  0.65411927  1  0.061617  0.001148  0.10975  0.116023  0.000581  0.994045  0.001
H  H103  1  0.61733432  0.24576153  0.70028091  1  0.165752  0.001891  0.124006  0.102002  0.000861  1.019921  0.001
H  H104  1  0.41982140  0.04340117  0.60503430  1  0.049866  0.000152  0.102218  0.097895  0.000109  1.007885  0.0
H  H105  1  0.67168093  0.29471014  0.61414814  1  0.059333  0.000163  0.102097  0.094492  0.000124  1.005359  0.0
H  H106  1  0.43184290  0.06211188  0.56436747  1  0.050769  0.001206  0.108635  0.114372  0.000605  0.997966  0.001
H  H107  1  0.47159185  0.10422071  0.51895215  1  0.16679  0.002367  0.122829  0.102371  0.001166  1.025313  0.002
H  H108  1  0.81654170  0.43970141  0.53161793  1  0.15911  0.002119  0.120238  0.103914  0.000832  1.038215  0.002
H  H109  1  0.79226957  0.40988312  0.57811293  1  0.048691  0.001295  0.106784  0.114159  0.000667  0.998142  0.001
H  H110  1  0.52460215  0.93132090  0.77785937  1  0.183629  0.002023  0.119002  0.097544  0.000739  1.043152  0.002
H  H111  1  0.49764726  0.94376734  0.82392186  1  0.081414  0.001197  0.107628  0.116994  0.00062  1.0061  0.001
H  H112  1  0.14979256  0.30836821  0.81312675  1  0.075275  0.001294  0.109461  0.11595  0.000666  0.988905  0.001
H  H113  1  0.18914577  0.27908787  0.76711110  1  0.150204  0.002479  0.123292  0.101512  0.001174  1.024976  0.002
H  H114  1  0.20861056  0.23626168  0.85538087  1  0.048156  0.00016  0.10131  0.093136  0.000118  1.007738  0.0
H  H115  1  0.46843221  0.99194805  0.86370243  1  0.069413  0.000152  0.102167  0.098739  0.00011  1.010313  0.0
H  H116  1  0.17016236  0.27462516  0.89479035  1  0.046561  0.001237  0.105646  0.110721  0.00063  1.001309  0.001
H  H117  1  0.15466549  0.29944629  0.94160639  1  0.109531  0.002089  0.120221  0.088691  0.000895  1.005301  0.001
H  H118  1  0.50292063  0.96969843  0.95265332  1  0.171541  0.001975  0.122391  0.098228  0.00089  1.031138  0.002
H  H119  1  0.53200438  0.92692362  0.90610142  1  0.068926  0.001252  0.1086  0.115715  0.000644  0.987133  0.001
C  C120  1  0.25556164  0.87254888  0.27997903  1  1.550199  0.000395  0.198651  0.629706  -7e-06  4.167742  -0.001
C  C121  1  0.26964228  0.05014623  0.27908500  1  -0.060112  0.009253  -0.169482  -0.352565  0.006632  3.904932  0.007
C  C122  1  0.23380739  0.11575753  0.25251695  1  0.484101  0.011436  -0.005877  0.124257  0.007953  3.886748  0.009
C  C123  1  0.23659415  0.29526724  0.25355343  1  1.614708  0.000594  0.202121  0.554194  0.000252  4.162177  -0.002
C  C124  1  0.12243309  0.66547869  0.52855379  1  1.536589  0.000462  0.199276  0.631179  5.7e-05  4.166569  -0.001
C  C125  1  0.30070496  0.65677519  0.52818471  1  -0.038069  0.009387  -0.169398  -0.353513  0.006739  3.906912  0.007
C  C126  1  0.36699335  0.68837964  0.50152324  1  0.448076  0.010535  -0.006411  0.122414  0.007444  3.891094  0.008
C  C127  1  0.54635428  0.68871260  0.50313506  1  1.583307  0.000208  0.199863  0.551832  -0.000434  4.172302  -0.002
C  C128  1  0.14006710  0.48932758  0.31993351  1  0.486722  -0.000458  0.051002  0.098302  -0.001092  3.964655  0.0
C  C129  1  0.12374542  0.50043548  0.34608287  1  -0.011228  0.004071  -0.088784  -0.191916  0.002766  3.946841  0.003
C  C130  1  0.01622058  0.60693735  0.35666125  1  -0.026438  -0.00196  0.004207  0.146686  -0.002251  4.041524  -0.001
C  C131  1  0.92646502  0.69498401  0.33938620  1  -0.067778  0.004774  -0.08244  -0.172739  0.003144  3.921629  0.004
C  C132  1  0.94981258  0.67843390  0.31352486  1  0.520294  -8.3e-05  0.052608  0.10794  -0.000467  3.90713  0.0
C  C133  1  0.00304885  0.62050571  0.38410492  1  -0.020527  -0.001582  -0.087  -0.134341  -0.001821  3.97817  -0.001
C  C134  1  0.90597299  0.71829157  0.39673039  1  -0.035401  0.000231  -0.077293  -0.105595  4e-06  3.971401  0.0
C  C135  1  0.89177665  0.73377219  0.42414202  1  0.023928  -0.003574  -0.001387  0.125133  -0.004052  4.056332  -0.002
C  C136  1  0.98095405  0.64733988  0.44162546  1  -0.047359  0.006008  -0.078415  -0.15882  0.004018  3.901564  0.005
C  C137  1  0.95985710  0.67032222  0.46742139  1  0.514433  -0.001297  0.058088  0.121487  -0.001749  3.893998  -0.001
C  C138  1  0.76835518  0.85827004  0.46033410  1  0.484061  -0.001103  0.048896  0.100177  -0.00145  3.90212  -0.001
C  C139  1  0.78279511  0.84042133  0.43426001  1  -0.045174  0.006313  -0.084642  -0.17912  0.004214  3.930498  0.005
C  C140  1  0.05614316  0.51498782  0.21365808  1  0.500577  -0.000481  0.047556  0.100241  -0.000734  3.911394  0.0
C  C141  1  0.07225171  0.52334607  0.18756504  1  -0.056423  0.006421  -0.083117  -0.171576  0.004239  3.916274  0.005
C  C142  1  0.17798004  0.63125017  0.17686157  1  -0.059518  -0.003408  -0.000772  0.125139  -0.00386  4.061076  -0.002
C  C143  1  0.26517712  0.72340065  0.19377242  1  0.016521  0.005925  -0.077833  -0.161368  0.004036  3.910051  0.005
C  C144  1  0.24391862  0.70781769  0.21974562  1  0.482722  -0.001428  0.059876  0.124247  -0.002072  3.898007  -0.001
C  C145  1  0.20090013  0.65146179  0.14973437  1  -0.005427  -0.000227  -0.077836  -0.104295  -0.000405  3.982794  0.0
C  C146  1  0.12173121  0.57696220  0.13112155  1  -0.050545  -0.001269  -0.089086  -0.139775  -0.001481  3.98706  -0.001
C  C147  1  0.14381171  0.59932687  0.10402337  1  0.005468  -0.002459  0.004056  0.146698  -0.002804  4.048984  -0.002
C  C148  1  0.25277312  0.70420361  0.09334645  1  0.001614  0.004338  -0.08751  -0.182489  0.002975  3.941797  0.003
C  C149  1  0.26231950  0.71960424  0.06725093  1  0.465682  -0.000436  0.050037  0.093335  -0.000991  3.966753  0.0
C  C150  1  0.06791629  0.53477638  0.06095045  1  0.435968  -0.000618  0.054225  0.115458  -0.0012  3.904661  -0.001
C  C151  1  0.05232767  0.51251105  0.08691475  1  -0.014852  0.004984  -0.084049  -0.181863  0.003367  3.929696  0.004
C  C152  1  0.74444172  0.62744567  0.77997856  1  1.550271  0.000394  0.198578  0.629576  -7e-06  4.168053  -0.001
C  C153  1  0.73036557  0.44985174  0.77908504  1  -0.060425  0.009253  -0.169442  -0.35258  0.006632  3.904943  0.007
C  C154  1  0.76620046  0.38423762  0.75251758  1  0.48409  0.011436  -0.005863  0.1242  0.007953  3.886813  0.009
C  C155  1  0.76341257  0.20472793  0.75355302  1  1.614638  0.000596  0.20208  0.554089  0.000253  4.162157  -0.002
C  C156  1  0.87756975  0.83453241  0.02855515  1  1.536802  0.00046  0.199443  0.631595  5.7e-05  4.166533  -0.001
C  C157  1  0.69929200  0.84323590  0.02818549  1  -0.038146  0.00939  -0.169491  -0.353709  0.006741  3.906976  0.007
C  C158  1  0.63300244  0.81162630  0.00152373  1  0.447975  0.010532  -0.006496  0.122294  0.007443  3.891279  0.008
C  C159  1  0.45364276  0.81128753  0.00313497  1  1.583428  0.000207  0.199927  0.552046  -0.000435  4.172263  -0.002
C  C160  1  0.85992732  0.01067696  0.81993331  1  0.486799  -0.000459  0.050955  0.098367  -0.001094  3.964527  0.0
C  C161  1  0.87624680  0.99957311  0.84608406  1  -0.011323  0.004072  -0.088963  -0.19227  0.002766  3.946953  0.003
C  C162  1  0.98377796  0.89306676  0.85666118  1  -0.026321  -0.001962  0.004186  0.146661  -0.002252  4.041499  -0.001
C  C163  1  0.07353276  0.80502095  0.83938636  1  -0.06751  0.004775  -0.082466  -0.172714  0.003145  3.921773  0.004
C  C164  1  0.05018406  0.82157294  0.81352577  1  0.520336  -8.4e-05  0.052577  0.107909  -0.000468  3.907281  0.0
C  C165  1  0.99694972  0.87949772  0.88410562  1  -0.020263  -0.001582  -0.087053  -0.134555  -0.00182  3.978313  -0.001
C  C166  1  0.09403082  0.78171442  0.89673057  1  -0.035725  0.00023  -0.077265  -0.105446  3e-06  3.971348  0.0
C  C167  1  0.10822368  0.76623079  0.92414221  1  0.023837  -0.003574  -0.001336  0.12528  -0.004052  4.056283  -0.002
C  C168  1  0.01904120  0.85265873  0.94162597  1  -0.047284  0.006008  -0.078504  -0.159044  0.004018  3.901642  0.005
C  C169  1  0.04013929  0.82966984  0.96742153  1  0.514363  -0.001297  0.058175  0.121542  -0.001749  3.894095  -0.001
C  C170  1  0.23164207  0.64172774  0.96033456  1  0.484091  -0.001102  0.048884  0.100199  -0.001449  3.90193  -0.001
C  C171  1  0.21720333  0.65957949  0.93426027  1  -0.044988  0.006313  -0.084684  -0.179289  0.004214  3.930479  0.005
C  C172  1  0.94385611  0.98500789  0.71365858  1  0.50044  -0.000479  0.047642  0.100439  -0.000735  3.911318  0.0
C  C173  1  0.92775110  0.97665034  0.68756438  1  -0.05636  0.006421  -0.083169  -0.171661  0.00424  3.916097  0.005
C  C174  1  0.82201761  0.86874605  0.67686112  1  -0.059545  -0.003407  -0.000743  0.125208  -0.003859  4.060946  -0.002
C  C175  1  0.73482478  0.77659470  0.69377201  1  0.015837  0.005922  -0.077879  -0.161433  0.004036  3.90991  0.005
C  C176  1  0.75608443  0.79218397  0.71974506  1  0.483421  -0.001423  0.059975  0.12442  -0.002071  3.897919  -0.001
C  C177  1  0.79910452  0.84853745  0.64973426  1  -0.005222  -0.000227  -0.07782  -0.104276  -0.000405  3.982919  0.0
C  C178  1  0.87826677  0.92303203  0.63112176  1  -0.050681  -0.001269  -0.089  -0.139713  -0.001481  3.987063  -0.001
C  C179  1  0.85618274  0.90067389  0.60402297  1  0.005707  -0.00246  0.004011  0.146686  -0.002805  4.048914  -0.002
C  C180  1  0.74722086  0.79579696  0.59334511  1  0.001859  0.004339  -0.087571  -0.182544  0.002976  3.941673  0.003
C  C181  1  0.73767684  0.78039703  0.56724996  1  0.465901  -0.000436  0.050059  0.093224  -0.000991  3.966845  0.0
C  C182  1  0.93208328  0.96522128  0.56095055  1  0.436005  -0.00062  0.054223  0.115387  -0.001202  3.90468  -0.001
C  C183  1  0.94767188  0.98748590  0.58691487  1  -0.015139  0.004983  -0.084016  -0.181779  0.003366  3.929651  0.004
C  C184  1  0.75556005  0.12743945  0.22002243  1  1.550231  0.000394  0.198592  0.629668  -8e-06  4.167986  -0.001
C  C185  1  0.76963789  0.94984675  0.22091648  1  -0.060546  0.009253  -0.169515  -0.35289  0.006632  3.904929  0.007
C  C186  1  0.73380313  0.88423552  0.24748410  1  0.484163  0.011434  -0.005891  0.12422  0.007952  3.887006  0.009
C  C187  1  0.73659022  0.70472814  0.24644744  1  1.61469  0.000594  0.202074  0.554221  0.000252  4.162044  -0.002
C  C188  1  0.62242809  0.33451767  0.97144480  1  1.536069  0.000461  0.19944  0.631542  5.6e-05  4.166154  -0.001
C  C189  1  0.80070231  0.34322432  0.97181446  1  -0.038405  0.009386  -0.169391  -0.353579  0.006739  3.906796  0.007
C  C190  1  0.86699896  0.31161740  0.99847564  1  0.448415  0.010532  -0.006517  0.122234  0.007443  3.891129  0.008
C  C191  1  0.04635952  0.31128860  0.99686420  1  1.583426  0.000207  0.19999  0.552121  -0.000435  4.172226  -0.002
C  C192  1  0.64006883  0.51067501  0.18006724  1  0.486759  -0.000459  0.050963  0.098312  -0.001094  3.96463  0.0
C  C193  1  0.62375070  0.49956948  0.15391691  1  -0.011229  0.004072  -0.088837  -0.192062  0.002766  3.94691  0.003
C  C194  1  0.51621976  0.39306549  0.14333936  1  -0.026616  -0.001962  0.004228  0.146656  -0.002252  4.041438  -0.001
C  C195  1  0.42646485  0.30502034  0.16061470  1  -0.067292  0.004775  -0.082461  -0.172724  0.003145  3.921773  0.004
C  C196  1  0.44981234  0.32156690  0.18647549  1  0.520279  -8.4e-05  0.052613  0.107897  -0.000468  3.907215  0.0
C  C197  1  0.50305037  0.37949715  0.11589529  1  -0.020284  -0.001581  -0.086977  -0.134379  -0.001819  3.978339  -0.001
C  C198  1  0.40597385  0.28171516  0.10326897  1  -0.035684  0.00023  -0.077284  -0.105492  3e-06  3.971286  0.0
C  C199  1  0.39178337  0.26622873  0.07585713  1  0.023936  -0.003574  -0.001402  0.125134  -0.004051  4.056455  -0.002
C  C200  1  0.48096216  0.35265618  0.05837360  1  -0.047388  0.006008  -0.078471  -0.158885  0.004017  3.901776  0.005
C  C201  1  0.45985944  0.32966921  0.03257803  1  0.514346  -0.001298  0.058118  0.12142  -0.001749  3.894143  -0.001
C  C202  1  0.26835821  0.14172645  0.03966491  1  0.484069  -0.001101  0.048906  0.100292  -0.001448  3.901812  -0.001
C  C203  1  0.28280159  0.15957864  0.06573940  1  -0.045046  0.006313  -0.084626  -0.179208  0.004214  3.930536  0.005
C  C204  1  0.55614493  0.48500559  0.28634087  1  0.50041  -0.00048  0.047594  0.100325  -0.000735  3.911439  0.0
C  C205  1  0.57224879  0.47664847  0.31243526  1  -0.056299  0.006422  -0.083118  -0.171603  0.00424  3.915942  0.005
C  C206  1  0.67798719  0.36874417  0.32313885  1  -0.059387  -0.003407  -0.000765  0.125201  -0.003859  4.060601  -0.002
C  C207  1  0.76518020  0.27659584  0.30622715  1  0.016464  0.005925  -0.077876  -0.161533  0.004035  3.91006  0.005
C  C208  1  0.74391935  0.29218118  0.28025544  1  0.482689  -0.001426  0.059993  0.124513  -0.00207  3.898156  -0.001
C  C209  1  0.70089680  0.34854301  0.35026740  1  -0.005308  -0.000226  -0.077751  -0.104193  -0.000404  3.982718  0.0
C  C210  1  0.62172504  0.42303458  0.36887937  1  -0.050524  -0.001268  -0.08915  -0.139858  -0.00148  3.987375  -0.001
C  C211  1  0.64381262  0.40066870  0.39597549  1  0.00554  -0.002458  0.004115  0.146824  -0.002802  4.048534  -0.002
C  C212  1  0.75278174  0.29578355  0.40665311  1  0.001485  0.004338  -0.087483  -0.182425  0.002975  3.941497  0.003
C  C213  1  0.76231408  0.28040511  0.43274939  1  0.466037  -0.000436  0.050038  0.093277  -0.000991  3.966895  0.0
C  C214  1  0.56792483  0.46521934  0.43904870  1  0.436151  -0.000617  0.054331  0.11553  -0.001199  3.904431  -0.001
C  C215  1  0.55232682  0.48749172  0.41308325  1  -0.014819  0.004984  -0.084184  -0.182131  0.003367  3.929608  0.004
C  C216  1  0.24444169  0.37255863  0.72002245  1  1.550281  0.000394  0.19853  0.629597  -7e-06  4.16789  -0.001
C  C217  1  0.23036287  0.55015026  0.72091689  1  -0.060325  0.009252  -0.169478  -0.352704  0.006631  3.904819  0.007
C  C218  1  0.26619880  0.61576313  0.74748459  1  0.48419  0.011434  -0.005858  0.124253  0.007952  3.886986  0.009
C  C219  1  0.26341167  0.79527049  0.74644782  1  1.614778  0.000594  0.202142  0.55424  0.000252  4.161823  -0.002
C  C220  1  0.37756948  0.16548256  0.47144379  1  1.536514  0.000461  0.199487  0.631532  5.5e-05  4.166048  -0.001
C  C221  1  0.19928943  0.15677242  0.47181439  1  -0.038157  0.009388  -0.169389  -0.353536  0.00674  3.906688  0.007
C  C222  1  0.13300449  0.18838215  0.49847606  1  0.448082  0.010532  -0.006558  0.122353  0.007443  3.891092  0.008
C  C223  1  0.95364503  0.18871560  0.49686519  1  1.583356  0.000206  0.199975  0.552059  -0.000436  4.172293  -0.002
C  C224  1  0.35993013  0.98932944  0.68006612  1  0.48677  -0.000458  0.051003  0.098352  -0.001093  3.96462  0.0
C  C225  1  0.37624109  0.00043093  0.65391634  1  -0.011762  0.004071  -0.088928  -0.192315  0.002766  3.946782  0.003
C  C226  1  0.48377860  0.10693473  0.64333877  1  -0.025892  -0.00196  0.004302  0.146939  -0.00225  4.04129  -0.001
C  C227  1  0.57353662  0.19498019  0.66061350  1  -0.067548  0.004775  -0.082456  -0.17278  0.003145  3.921772  0.004
C  C228  1  0.55018909  0.17843409  0.68647483  1  0.523734  -8.1e-05  0.052564  0.107814  -0.000467  3.907344  0.0
C  C229  1  0.49694913  0.12050374  0.61589454  1  -0.020205  -0.001581  -0.087007  -0.134431  -0.00182  3.978201  -0.001
C  C230  1  0.59402977  0.21828200  0.60326875  1  -0.035774  0.000231  -0.077356  -0.105671  4e-06  3.97122  0.0
C  C231  1  0.60821671  0.23376678  0.57585712  1  0.023998  -0.003573  -0.001336  0.125267  -0.004051  4.05633  -0.002
C  C232  1  0.51903480  0.14734135  0.55837345  1  -0.047352  0.006008  -0.078536  -0.159011  0.004018  3.901944  0.005
C  C233  1  0.54013990  0.17033487  0.53257697  1  0.51456  -0.001298  0.058196  0.121602  -0.00175  3.893837  -0.001
C  C234  1  0.73163208  0.35826840  0.53966416  1  0.484117  -0.0011  0.048892  0.100153  -0.001447  3.901902  -0.001
C  C235  1  0.71720155  0.34042019  0.56573881  1  -0.044694  0.006314  -0.08471  -0.179276  0.004215  3.930511  0.005
C  C236  1  0.44385738  0.01499601  0.78634189  1  0.500286  -0.000479  0.047627  0.10039  -0.000735  3.911341  0.0
C  C237  1  0.42774881  0.02335126  0.81243570  1  -0.056413  0.006421  -0.083174  -0.171677  0.00424  3.916228  0.005
C  C238  1  0.32201674  0.13125225  0.82313884  1  -0.059571  -0.003407  -0.000727  0.125202  -0.003859  4.060999  -0.002
C  C239  1  0.23481947  0.22340378  0.80622784  1  0.016502  0.005926  -0.077882  -0.161412  0.004036  3.909965  0.005
C  C240  1  0.25608269  0.20782148  0.78025482  1  0.482718  -0.001427  0.059986  0.124482  -0.00207  3.898107  -0.001
C  C241  1  0.29909778  0.15146440  0.85026605  1  -0.005192  -0.000226  -0.077813  -0.104267  -0.000404  3.982843  0.0
C  C242  1  0.37826217  0.07696616  0.86887827  1  -0.050714  -0.001269  -0.089006  -0.13967  -0.00148  3.987167  -0.001
C  C243  1  0.35618397  0.09933018  0.89597665  1  0.005269  -0.002458  0.003992  0.14664  -0.002803  4.048734  -0.002
C  C244  1  0.24722352  0.20420851  0.90665533  1  0.002059  0.004337  -0.087502  -0.182432  0.002975  3.941538  0.003
C  C245  1  0.23768179  0.21960378  0.93275047  1  0.465646  -0.000436  0.050126  0.09329  -0.000991  3.966871  0.0
C  C246  1  0.43208186  0.03477447  0.93904991  1  0.436058  -0.000617  0.054267  0.115598  -0.0012  3.904511  -0.001
C  C247  1  0.44767170  0.01251215  0.91308466  1  -0.014725  0.004984  -0.084072  -0.181914  0.003367  3.92963  0.004
N  N248  1  0.05651745  0.57829748  0.30389759  1  -1.195159  0.080163  -0.340107  -0.212073  0.053544  3.586894  0.069
N  N249  1  0.85662855  0.77494104  0.47660401  1  -1.187445  0.091471  -0.337629  -0.203926  0.060902  3.579058  0.079
N  N250  1  0.13992447  0.60664855  0.22945077  1  -1.207514  0.093856  -0.341691  -0.206209  0.062452  3.601593  0.081
N  N251  1  0.17026990  0.63818739  0.05125668  1  -1.199946  0.083402  -0.341404  -0.214684  0.055689  3.587979  0.072
N  N252  1  0.94347759  0.92170218  0.80389806  1  -1.195225  0.080161  -0.34001  -0.212056  0.053542  3.587026  0.069
N  N253  1  0.14336941  0.72505586  0.97660441  1  -1.187466  0.091476  -0.337637  -0.203863  0.060904  3.579125  0.079
N  N254  1  0.86007900  0.89334744  0.72945132  1  -1.207121  0.09385  -0.341807  -0.206413  0.06245  3.601705  0.081
N  N255  1  0.82972573  0.86181009  0.55125623  1  -1.200353  0.083403  -0.341439  -0.214645  0.055689  3.587921  0.072
N  N256  1  0.55651890  0.42169943  0.19610250  1  -1.195237  0.080162  -0.340116  -0.212052  0.053543  3.586871  0.069
N  N257  1  0.35663070  0.22505527  0.02339548  1  -1.187508  0.091472  -0.337641  -0.203946  0.060902  3.579183  0.079
N  N258  1  0.63992340  0.39334235  0.27054998  1  -1.207025  0.093855  -0.341787  -0.206345  0.062453  3.601938  0.081
N  N259  1  0.67027322  0.36181046  0.44874392  1  -1.200462  0.083388  -0.341499  -0.214696  0.05568  3.588261  0.072
N  N260  1  0.44348530  0.07829939  0.69610128  1  -1.199058  0.080156  -0.340078  -0.212027  0.05354  3.586918  0.069
N  N261  1  0.64336590  0.27494748  0.52339402  1  -1.187857  0.091468  -0.337603  -0.203861  0.060899  3.579118  0.079
N  N262  1  0.36007939  0.10665780  0.77054887  1  -1.206802  0.093855  -0.34179  -0.206435  0.062452  3.601875  0.081
N  N263  1  0.32972570  0.13818586  0.94874430  1  -1.200113  0.083405  -0.341491  -0.21477  0.055691  3.588044  0.072
O  O264  1  0.12796361  0.81845300  0.26948908  1  -1.143529  0.091713  -0.331325  -0.582581  0.058601  2.42509  0.083
O  O265  1  0.35864421  0.78985333  0.28984813  1  -1.180793  0.001285  -0.338109  -0.571679  -9e-06  2.103408  0.001
O  O266  1  0.33587993  0.05462599  0.23377530  1  -1.19139  0.009791  -0.411283  -0.505503  0.006032  2.260422  0.008
O  O267  1  0.12258220  0.35642563  0.26631558  1  -1.122994  0.102914  -0.333935  -0.559417  0.065561  2.34748  0.093
O  O268  1  0.34324525  0.36965783  0.24275666  1  -1.201464  0.00408  -0.319826  -0.578355  0.001789  2.368685  0.005
O  O269  1  0.06707360  0.78850562  0.51689647  1  -1.139271  0.090625  -0.332987  -0.585775  0.057946  2.440155  0.082
O  O270  1  0.04160439  0.56343640  0.53900053  1  -1.176644  0.00116  -0.336082  -0.566468  -9.3e-05  2.097838  0.001
O  O271  1  0.30913626  0.58070083  0.48333876  1  -1.16842  0.009728  -0.409404  -0.501917  0.006028  2.261262  0.008
O  O272  1  0.60567958  0.81280560  0.51324671  1  -1.11205  0.104913  -0.330025  -0.549488  0.066895  2.344595  0.095
O  O273  1  0.62380030  0.57399138  0.49550764  1  -1.190494  0.002461  -0.323717  -0.587613  0.000538  2.37428  0.004
O  O274  1  0.87203695  0.68154487  0.76948897  1  -1.143573  0.091713  -0.331301  -0.58252  0.058601  2.425142  0.083
O  O275  1  0.64135490  0.71013906  0.78984701  1  -1.180781  0.001285  -0.338095  -0.571602  -9e-06  2.103538  0.001
O  O276  1  0.66412358  0.44536883  0.73377527  1  -1.191296  0.009792  -0.41128  -0.505478  0.006033  2.260313  0.008
O  O277  1  0.87742509  0.14356860  0.76631451  1  -1.122961  0.102915  -0.33393  -0.559313  0.065562  2.34749  0.093
O  O278  1  0.65675865  0.13033948  0.74275666  1  -1.201394  0.00408  -0.319811  -0.57832  0.001788  2.368555  0.005
O  O279  1  0.93292755  0.71151111  0.01689651  1  -1.139652  0.090627  -0.332957  -0.585908  0.057946  2.440293  0.082
O  O280  1  0.95839422  0.93657606  0.03900336  1  -1.176464  0.00116  -0.336209  -0.566671  -9.3e-05  2.097961  0.001
O  O281  1  0.69086668  0.91930554  0.98333969  1  -1.168412  0.009727  -0.409433  -0.502083  0.006027  2.261274  0.008
O  O282  1  0.39431907  0.68719938  0.01324744  1  -1.112088  0.104904  -0.330042  -0.549561  0.066889  2.344643  0.095
O  O283  1  0.37619147  0.92600820  0.99550689  1  -1.190586  0.00246  -0.323705  -0.587618  0.000538  2.374302  0.004
O  O284  1  0.62796237  0.18154027  0.23051185  1  -1.143551  0.091717  -0.331264  -0.582503  0.058603  2.425063  0.083
O  O285  1  0.85864553  0.21013245  0.21015383  1  -1.180676  0.001285  -0.338066  -0.571614  -9e-06  2.103607  0.001
O  O286  1  0.83587872  0.94536335  0.26622663  1  -1.191295  0.009792  -0.411296  -0.505478  0.006033  2.260503  0.008
O  O287  1  0.62257197  0.64357233  0.23368648  1  -1.12301  0.102914  -0.333963  -0.5594  0.065562  2.347461  0.093
O  O288  1  0.84324546  0.63033500  0.25724319  1  -1.201437  0.00408  -0.319767  -0.578343  0.001789  2.368451  0.005
O  O289  1  0.56707170  0.21149553  0.98310338  1  -1.139243  0.090625  -0.332995  -0.585863  0.057945  2.440107  0.082
O  O290  1  0.54159756  0.43655429  0.96099663  1  -1.176148  0.001159  -0.336194  -0.566667  -9.4e-05  2.097775  0.001
O  O291  1  0.80913801  0.41930025  0.01665935  1  -1.168741  0.009726  -0.409339  -0.501815  0.006026  2.261445  0.008
O  O292  1  0.10568580  0.18719781  0.98675319  1  -1.112051  0.104907  -0.330043  -0.549561  0.066892  2.344745  0.095
O  O293  1  0.12380355  0.42601358  0.00449100  1  -1.190616  0.002458  -0.323746  -0.587686  0.000537  2.374383  0.004
O  O294  1  0.37204099  0.31845800  0.73051180  1  -1.143573  0.091718  -0.331248  -0.582496  0.058604  2.425143  0.083
O  O295  1  0.14135459  0.28986545  0.71015407  1  -1.180707  0.001285  -0.338059  -0.571596  -9e-06  2.103535  0.001
O  O296  1  0.16412638  0.55463914  0.76622735  1  -1.19137  0.009792  -0.41124  -0.505397  0.006032  2.260537  0.008
O  O297  1  0.37743052  0.85642491  0.73368646  1  -1.123142  0.102918  -0.333987  -0.559407  0.065565  2.347403  0.093
O  O298  1  0.15675690  0.86966500  0.75724348  1  -1.201419  0.004079  -0.319797  -0.578333  0.001788  2.368303  0.005
O  O299  1  0.43292638  0.28850842  0.48310212  1  -1.139224  0.090639  -0.33302  -0.585857  0.057955  2.440179  0.082
O  O300  1  0.45839839  0.06344459  0.46099548  1  -1.1765  0.00116  -0.336191  -0.566656  -9.4e-05  2.097806  0.001
O  O301  1  0.19087468  0.08070004  0.51665973  1  -1.16839  0.009726  -0.40933  -0.50187  0.006026  2.26116  0.008
O  O302  1  0.89431713  0.31280387  0.48675380  1  -1.112109  0.104909  -0.330044  -0.549486  0.066893  2.344657  0.095
O  O303  1  0.87619924  0.07399584  0.50449332  1  -1.190572  0.002457  -0.323722  -0.587694  0.000537  2.374411  0.004
