# generated using pymatgen
data_MnH7C6N9O
_symmetry_space_group_name_H-M   'P 1'
_cell_length_a   10.00892814
_cell_length_b   9.97632373
_cell_length_c   11.20994313
_cell_angle_alpha   109.51315065
_cell_angle_beta   90.07850072
_cell_angle_gamma   89.86404522
_symmetry_Int_Tables_number   1
_chemical_formula_structural   MnH7C6N9O
_chemical_formula_sum   'Mn4 H28 C24 N36 O4'
_cell_volume   1055.04613319
_cell_formula_units_Z   4
loop_
 _symmetry_equiv_pos_site_id
 _symmetry_equiv_pos_as_xyz
  1  'x, y, z'
loop_
 _atom_site_type_symbol
 _atom_site_label
 _atom_site_symmetry_multiplicity
 _atom_site_fract_x
 _atom_site_fract_y
 _atom_site_fract_z
 _atom_site_occupancy
 _atom_site_hle17_ddec_charge
 _atom_site_hle17_ddec_spin_density
 _atom_site_hle17_ddec_sum_bond_order
 _atom_site_hle17_magmom
 _atom_site_hse06_10hf_ddec_charge
 _atom_site_hse06_10hf_ddec_spin_density
 _atom_site_hse06_10hf_ddec_sum_bond_order
 _atom_site_hse06_10hf_magmom
 _atom_site_hse06_ddec_charge
 _atom_site_hse06_ddec_spin_density
 _atom_site_hse06_ddec_sum_bond_order
 _atom_site_hse06_magmom
 _atom_site_pbe_cm5_charge
 _atom_site_pbe_ddec_charge
 _atom_site_pbe_ddec_spin_density
 _atom_site_pbe_ddec_sum_bond_order
 _atom_site_pbe_magmom
Mn  Mn0  1  0.11019274  0.38406065  0.52527561  1  0.983574  -4.74374  2.169086  -4.571  0.837786  -4.597301  2.710499  -4.386  0.889379  -4.707883  2.646441  -4.493  0.656883  0.795541  -4.476473  2.759632  -4.267
Mn  Mn1  1  0.38844613  0.88275642  0.52533201  1  0.983382  4.709362  2.166169  4.569  0.836559  4.584143  2.707445  4.387  0.888331  4.673884  2.644036  4.492  0.655278  0.794748  4.486496  2.755236  4.275
Mn  Mn2  1  0.89259042  0.61501296  0.47379035  1  0.98819  4.733873  2.140041  4.588  0.843056  4.623057  2.673264  4.417  0.892533  4.702402  2.61343  4.512  0.654435  0.803053  4.535332  2.719341  4.314
Mn  Mn3  1  0.60880397  0.11632459  0.47375502  1  0.987395  4.728309  2.137025  4.585  0.841125  4.621027  2.670809  4.419  0.890913  4.697107  2.611366  4.511  0.651835  0.801346  4.540377  2.715765  4.322
H  H4  1  0.88457271  0.26602907  0.62492212  1  0.308312  -0.000683  0.935718  -0.001  0.294419  -0.000868  1.005348  -0.002  0.301124  -0.00081  1.00084  -0.001  0.292275  0.289582  -0.001128  1.008557  -0.002
H  H5  1  0.61511504  0.76529956  0.62502079  1  0.309034  0.000432  0.935768  0.001  0.295014  0.001192  1.005457  0.002  0.301746  0.00069  1.000899  0.002  0.292475  0.290192  0.00146  1.00868  0.002
H  H6  1  0.11631115  0.73531733  0.37505098  1  0.308  -0.000984  0.937149  0.001  0.294525  -0.000899  1.006672  0.002  0.301166  -0.001093  1.002205  0.001  0.292454  0.289736  -0.000514  1.009972  0.002
H  H7  1  0.38412127  0.23605379  0.37494146  1  0.308616  0.00216  0.936465  0.001  0.294761  0.003059  1.006486  0.002  0.301431  0.002675  1.001964  0.002  0.292386  0.289989  0.003218  1.00978  0.002
H  H8  1  0.78544283  0.24188478  0.92436657  1  0.104763  0.000176  0.950823  0.0  0.118479  0.000279  1.020427  0.0  0.118853  0.00023  1.020356  0.0  0.106705  0.118173  0.000296  1.020582  0.0
H  H9  1  0.71559943  0.74183994  0.92464386  1  0.104671  0.000169  0.951376  0.0  0.118267  0.000377  1.020813  0.0  0.118629  0.0003  1.020734  0.0  0.106844  0.117998  0.000379  1.020922  0.0
H  H10  1  0.21525338  0.75798900  0.07488774  1  0.104941  0.000205  0.951123  0.0  0.118259  0.000416  1.021182  0.0  0.11871  0.000338  1.020985  0.0  0.106998  0.117887  0.000367  1.021379  0.0
H  H11  1  0.28377908  0.25788646  0.07453867  1  0.104718  -8.5e-05  0.951854  0.0  0.118495  -5.7e-05  1.021417  0.0  0.118915  -3.9e-05  1.021319  0.0  0.106986  0.118124  2.7e-05  1.021601  0.0
H  H12  1  0.81113563  0.14985302  0.75834006  1  0.088622  -0.000165  0.961159  0.0  0.106041  -0.000135  1.025027  0.0  0.105704  -0.000164  1.02598  0.0  0.102774  0.106012  -0.000164  1.024592  0.0
H  H13  1  0.68922079  0.64979743  0.75873991  1  0.088181  -4e-05  0.962194  0.0  0.105639  0.000186  1.026064  0.0  0.10527  6.3e-05  1.027016  0.0  0.102854  0.105678  0.000247  1.025532  0.0
H  H14  1  0.18936726  0.85110757  0.24063630  1  0.088295  -0.000355  0.959902  0.0  0.105495  -0.000373  1.024178  0.0  0.1051  -0.000409  1.025138  0.0  0.102796  0.105535  -0.000304  1.023698  0.0
H  H15  1  0.31024704  0.35111715  0.24018211  1  0.08865  0.000424  0.960182  0.0  0.105927  0.000623  1.024435  0.0  0.105506  0.000564  1.025431  0.0  0.102994  0.106008  0.000655  1.023888  0.0
H  H16  1  0.75492946  0.33119946  0.81194984  1  0.094828  -0.000191  0.955014  0.0  0.107013  -9.6e-05  1.028719  0.0  0.107588  -0.000154  1.028178  0.0  0.102337  0.106669  -5.3e-05  1.028748  0.0
H  H17  1  0.74539542  0.83088915  0.81203232  1  0.094982  -0.000183  0.955124  0.0  0.107074  3.9e-05  1.028756  0.0  0.107646  -9.9e-05  1.028169  0.0  0.102402  0.106712  0.000195  1.028818  0.0
H  H18  1  0.24601277  0.66985207  0.18811205  1  0.094403  -0.000357  0.955045  0.0  0.106912  -0.000316  1.028247  0.0  0.107443  -0.000413  1.027714  0.0  0.102468  0.106537  -0.000183  1.028311  0.0
H  H19  1  0.25376149  0.17006926  0.18800792  1  0.094466  0.000454  0.95464  0.0  0.107048  0.000645  1.027813  0.0  0.107597  0.000624  1.027266  0.0  0.102752  0.106661  0.000676  1.027876  0.0
H  H20  1  0.14111657  0.39211214  0.99561820  1  0.100618  -0.000257  0.959227  0.0  0.099019  -0.000381  1.037874  0.0  0.103287  -0.000296  1.033584  0.0  0.118949  0.095924  -0.00029  1.040904  0.0
H  H21  1  0.35890340  0.89131406  0.99579364  1  0.101417  0.000421  0.95918  0.0  0.099185  0.000772  1.038427  0.0  0.10343  0.000617  1.034185  0.0  0.119047  0.09609  0.000773  1.041428  0.0
H  H22  1  0.85930817  0.60797539  0.00434568  1  0.101486  0.00023  0.958019  0.0  0.099309  0.00037  1.037301  0.0  0.10362  0.000284  1.033017  0.0  0.119074  0.096216  0.000321  1.040303  0.0
H  H23  1  0.64057416  0.10873332  0.00405640  1  0.101815  0.000425  0.95924  0.0  0.099911  0.000765  1.038213  0.0  0.104233  0.000611  1.033875  0.0  0.119283  0.09679  0.000803  1.041232  0.0
H  H24  1  0.50419747  0.51868677  0.88898224  1  0.092415  -0.000175  0.960443  0.0  0.090908  -0.000183  1.037504  0.0  0.09516  -0.000155  1.033426  0.0  0.116854  0.087929  -0.000217  1.040274  0.0
H  H25  1  0.99541394  0.01910205  0.88921273  1  0.092615  0.000185  0.960486  0.0  0.091121  0.000262  1.037506  0.0  0.095347  0.000203  1.033488  0.0  0.11711  0.088209  0.000331  1.04016  0.0
H  H26  1  0.49670567  0.48137251  0.11200817  1  0.092386  0.000173  0.96002  0.0  0.09087  0.000284  1.037191  0.0  0.095122  0.000231  1.033168  0.0  0.116775  0.087825  0.000422  1.040054  0.0
H  H27  1  0.00363766  0.98094065  0.11150580  1  0.092236  0.000216  0.960964  0.0  0.090798  0.000281  1.03793  0.0  0.09501  0.000237  1.033935  0.0  0.117113  0.087824  0.000371  1.040687  0.0
H  H28  1  0.41338390  0.47082659  0.66533621  1  0.094277  0.000372  0.940601  0.0  0.098006  0.000271  1.008407  0.0  0.100905  0.000334  1.007082  0.0  0.120636  0.095643  0.000226  1.009985  0.0
H  H29  1  0.08626069  0.97198701  0.66575048  1  0.094712  -0.000591  0.9401  0.0  0.098324  -0.000448  1.007957  0.0  0.101186  -0.000569  1.006683  0.0  0.120633  0.095935  -0.000362  1.009601  0.0
H  H30  1  0.58844467  0.52883045  0.33536762  1  0.09502  -0.000235  0.941424  0.0  0.098539  5.4e-05  1.009652  0.0  0.101414  -0.000123  1.008358  0.0  0.120545  0.096145  0.00034  1.011171  0.0
H  H31  1  0.91204683  0.02765183  0.33467720  1  0.095574  7.1e-05  0.941206  0.0  0.09902  0.000581  1.009196  0.0  0.10194  0.000372  1.00786  0.0  0.120714  0.096612  0.00085  1.010777  0.0
C  C32  1  0.81696577  0.25248949  0.83497436  1  -0.079743  0.000361  3.599525  0.0  -0.182499  0.000603  3.867521  0.0  -0.174318  0.000493  3.870941  0.0  -0.143342  -0.18796  0.00063  3.865195  0.0
C  C33  1  0.68360802  0.75249259  0.83532282  1  -0.07999  0.000217  3.601315  0.0  -0.18234  0.000878  3.869563  0.0  -0.174063  0.000583  3.872974  0.0  -0.143624  -0.187815  0.001031  3.86722  0.0
C  C34  1  0.18377081  0.74805512  0.16452899  1  -0.078836  0.000116  3.598272  0.0  -0.18101  0.000513  3.866892  0.0  -0.172749  0.00028  3.870273  0.0  -0.142971  -0.186437  0.000786  3.8646  0.0
C  C35  1  0.31570489  0.24798073  0.16414867  1  -0.079497  1.5e-05  3.601343  0.0  -0.182579  0.000426  3.870094  0.0  -0.174266  0.000361  3.873335  0.0  -0.143874  -0.188052  0.000465  3.86779  0.0
C  C36  1  0.01900761  0.32440868  0.76052335  1  0.471616  -0.005461  3.829939  -0.005  0.426028  -0.009427  4.108885  -0.008  0.451609  -0.008202  4.114366  -0.007  0.24319  0.408138  -0.010466  4.105469  -0.009
C  C37  1  0.48103195  0.82428226  0.76093688  1  0.471646  0.005256  3.827409  0.005  0.425927  0.009566  4.106663  0.008  0.451559  0.008139  4.112108  0.007  0.243006  0.408023  0.0114  4.103304  0.01
C  C38  1  0.98197815  0.67594698  0.23922234  1  0.471453  0.006056  3.826628  0.006  0.427033  0.010319  4.104866  0.009  0.452712  0.00883  4.109975  0.008  0.243473  0.409197  0.01174  4.101638  0.01
C  C39  1  0.51803754  0.17604019  0.23878072  1  0.472243  0.005707  3.826836  0.005  0.427495  0.010308  4.105167  0.009  0.453224  0.008715  4.110288  0.008  0.24339  0.409544  0.012455  4.102023  0.011
C  C40  1  0.15512475  0.38038918  0.79937198  1  0.074927  -0.000907  3.753691  -0.001  0.077423  -0.003062  3.998129  -0.002  0.075969  -0.00226  4.017741  -0.002  0.124602  0.077293  -0.003865  3.986188  -0.003
C  C41  1  0.34483769  0.88052008  0.79976446  1  0.075383  0.001482  3.752649  0.001  0.077602  0.004105  3.99698  0.003  0.076219  0.003012  4.01656  0.002  0.124906  0.07745  0.005563  3.984983  0.004
C  C42  1  0.84593754  0.61960965  0.20060879  1  0.076335  0.00047  3.752968  0.001  0.078478  0.003033  3.997492  0.002  0.077068  0.002076  4.016856  0.002  0.12486  0.078206  0.004414  3.985888  0.003
C  C43  1  0.65411147  0.11941486  0.20008881  1  0.075773  0.001386  3.751888  0.001  0.077346  0.0038  3.997393  0.003  0.075858  0.002732  4.016936  0.002  0.125049  0.077203  0.005614  3.985522  0.004
C  C44  1  0.20383610  0.40954443  0.92254087  1  0.065979  0.000468  3.658423  0.0  0.031165  0.000201  3.920456  0.0  0.03487  0.00041  3.934635  0.001  0.059957  0.028455  0.000289  3.912042  0.001
C  C45  1  0.29611339  0.90920069  0.92277339  1  0.065872  -0.000734  3.657072  -0.001  0.03166  -4.4e-05  3.918852  -0.001  0.035298  -0.000489  3.933089  -0.001  0.06025  0.029098  0.000136  3.910142  -0.001
C  C46  1  0.79687562  0.59045144  0.07757117  1  0.065094  -1.9e-05  3.657409  0.0  0.030301  0.000265  3.920193  0.0  0.03397  -9.7e-05  3.934264  0.0  0.059537  0.027405  0.000869  3.912356  0.0
C  C47  1  0.70310661  0.09073524  0.07718866  1  0.06556  -0.000907  3.657006  -0.001  0.030845  -6.5e-05  3.919581  -0.001  0.034496  -0.000477  3.933799  -0.001  0.059861  0.028088  0.000841  3.911316  0.0
C  C48  1  0.40249744  0.48048131  0.86295711  1  0.087884  -0.000544  3.652567  0.0  0.059707  -0.001034  3.918925  -0.001  0.063124  -0.000493  3.932949  0.0  0.059549  0.056952  -0.001148  3.910674  -0.001
C  C49  1  0.09716575  0.98071827  0.86321110  1  0.087056  0.000228  3.65424  0.0  0.058785  0.001251  3.920491  0.001  0.062151  0.000369  3.934647  0.0  0.059188  0.056135  0.002415  3.912001  0.001
C  C50  1  0.59846948  0.51950209  0.13770506  1  0.088108  0.000984  3.653235  0.001  0.059917  0.001687  3.919369  0.001  0.063297  0.000938  3.933426  0.001  0.059368  0.057066  0.002615  3.911289  0.002
C  C51  1  0.90180588  0.01917339  0.13721387  1  0.08789  0.000209  3.653349  0.0  0.059681  0.001468  3.919427  0.001  0.063053  0.000576  3.933621  0.0  0.059703  0.056917  0.003219  3.911107  0.002
C  C52  1  0.35365903  0.45339706  0.74014699  1  0.092033  -0.001304  3.648022  -0.001  0.062242  -0.002875  3.90688  -0.003  0.064877  -0.002325  3.923267  -0.002  0.06101  0.059415  -0.003037  3.897377  -0.003
C  C53  1  0.14599282  0.95404984  0.74052204  1  0.09226  0.001593  3.648946  0.002  0.062717  0.003511  3.907017  0.003  0.065309  0.002653  3.923592  0.003  0.061535  0.059992  0.004303  3.897321  0.004
C  C54  1  0.64769557  0.54646579  0.26036460  1  0.09139  0.001328  3.648844  0.002  0.061394  0.003622  3.907663  0.003  0.064002  0.002667  3.924073  0.003  0.060766  0.058705  0.004597  3.898249  0.004
C  C55  1  0.85265516  0.04569127  0.25975297  1  0.091036  0.002739  3.649012  0.003  0.061721  0.005196  3.906886  0.004  0.064203  0.004032  3.923449  0.003  0.060694  0.05913  0.006383  3.897297  0.005
N  N56  1  0.97982123  0.30499138  0.64653862  1  -0.662174  -0.027859  2.973682  -0.013  -0.620529  -0.030482  3.24835  -0.011  -0.646371  -0.027524  3.248352  -0.008  -0.495597  -0.601724  -0.033592  3.248787  -0.014
N  N57  1  0.51966011  0.80396111  0.64673012  1  -0.662302  0.027649  2.973959  0.014  -0.620172  0.030791  3.248427  0.012  -0.646127  0.027319  3.248603  0.009  -0.495172  -0.601523  0.034139  3.248852  0.015
N  N58  1  0.02129493  0.69581309  0.35326349  1  -0.663749  0.027085  2.975367  0.012  -0.622928  0.030207  3.249136  0.011  -0.648426  0.026547  3.249124  0.008  -0.49703  -0.604554  0.034218  3.249724  0.014
N  N59  1  0.47930603  0.19677166  0.35304747  1  -0.664059  0.028464  2.975439  0.014  -0.622565  0.032089  3.249614  0.013  -0.648143  0.028394  3.249681  0.01  -0.496731  -0.604326  0.03578  3.250227  0.016
N  N60  1  0.22995240  0.40332214  0.70855328  1  -0.275266  -0.026173  3.214666  -0.017  -0.219786  -0.031681  3.475274  -0.02  -0.232165  -0.028663  3.491914  -0.017  -0.285389  -0.210346  -0.033953  3.464786  -0.022
N  N61  1  0.26989425  0.90413465  0.70910515  1  -0.275757  0.026012  3.216573  0.016  -0.219236  0.032254  3.476406  0.02  -0.231832  0.028537  3.493224  0.017  -0.285309  -0.209651  0.036002  3.46561  0.023
N  N62  1  0.77143684  0.59659890  0.29160502  1  -0.276331  0.02604  3.214706  0.017  -0.220361  0.031773  3.47467  0.02  -0.232449  0.028436  3.491325  0.017  -0.285697  -0.211505  0.035443  3.464508  0.023
N  N63  1  0.72877335  0.09573635  0.29089621  1  -0.275578  0.025834  3.215668  0.016  -0.219322  0.032569  3.47567  0.02  -0.231594  0.028673  3.492575  0.016  -0.285481  -0.210343  0.03723  3.465167  0.024
N  N64  1  0.32748512  0.45950120  0.95438841  1  -0.244729  -0.000541  3.047489  -0.001  -0.208284  -0.00152  3.316802  -0.002  -0.215783  -0.001257  3.330687  -0.002  -0.290276  -0.203662  -0.001878  3.308225  -0.002
N  N65  1  0.17232696  0.95925661  0.95454525  1  -0.244544  0.001623  3.048687  0.002  -0.2078  0.003566  3.31751  0.004  -0.21542  0.002673  3.331534  0.003  -0.289886  -0.202983  0.004746  3.308688  0.005
N  N66  1  0.67313987  0.54056437  0.04609720  1  -0.243549  0.000591  3.047422  0.0  -0.20707  0.002226  3.316701  0.002  -0.214456  0.001748  3.330494  0.002  -0.289461  -0.202602  0.002889  3.308318  0.002
N  N67  1  0.82695916  0.04073192  0.04574215  1  -0.243793  0.001697  3.048655  0.002  -0.207158  0.00361  3.317797  0.004  -0.214705  0.002634  3.331745  0.003  -0.289447  -0.202474  0.004869  3.309163  0.005
N  N68  1  0.02466422  0.60015072  0.62143944  1  -0.605034  0.001994  2.807013  -0.002  -0.568689  0.003682  3.138017  -0.002  -0.601191  0.002344  3.144382  -0.003  -0.312038  -0.543048  0.004859  3.133359  -0.001
N  N69  1  0.47635188  0.09896164  0.62041636  1  -0.602008  0.018062  2.800831  -0.012  -0.565958  0.034762  3.130788  -0.004  -0.598229  0.021717  3.137563  -0.016  -0.30886  -0.540612  0.046045  3.125439  0.005
N  N70  1  0.97623757  0.39957755  0.37857342  1  -0.604801  -0.002353  2.809654  0.002  -0.568832  -0.003436  3.141294  0.001  -0.601115  -0.002822  3.147192  0.002  -0.312923  -0.543002  -0.003747  3.136597  0.001
N  N71  1  0.52275157  0.90069580  0.37956737  1  -0.601615  0.017489  2.802576  -0.012  -0.565535  0.03419  3.132804  -0.005  -0.597649  0.021039  3.139281  -0.016  -0.309365  -0.539963  0.045251  3.127312  0.005
N  N72  1  0.00128589  0.63653057  0.73358352  1  0.398992  0.000139  4.201081  0.0  0.434002  0.000793  4.480798  0.001  0.450065  0.000437  4.515445  0.001  0.093665  0.422451  0.000711  4.456104  0.001
N  N73  1  0.49932562  0.13595117  0.73273127  1  0.396447  0.001145  4.200349  0.001  0.431944  0.01715  4.479745  0.017  0.447798  0.009853  4.514637  0.01  0.092578  0.420575  0.023125  4.454632  0.022
N  N74  1  0.99909257  0.36293818  0.26630920  1  0.398287  -6e-05  4.200895  0.0  0.433707  0.000102  4.48052  0.0  0.449724  7.5e-05  4.515005  0.0  0.093958  0.422228  0.000587  4.455522  0.0
N  N75  1  0.50023952  0.86354204  0.26713294  1  0.395442  0.00124  4.198206  0.001  0.431161  0.017395  4.477525  0.017  0.446935  0.009963  4.51226  0.01  0.091986  0.419888  0.023533  4.452131  0.023
N  N76  1  0.98150120  0.66897387  0.84212506  1  -0.365747  0.005609  2.385709  0.005  -0.365933  0.005013  2.611187  0.004  -0.375143  0.004442  2.624338  0.004  -0.176652  -0.357741  0.005617  2.601537  0.005
N  N77  1  0.51890443  0.16885554  0.84140428  1  -0.367514  0.090486  2.385163  0.088  -0.367723  0.088159  2.610729  0.079  -0.377166  0.085356  2.623917  0.078  -0.178157  -0.359008  0.09321  2.600724  0.083
N  N78  1  0.01851886  0.33021457  0.15769190  1  -0.365235  -0.002992  2.386901  -0.003  -0.366055  -0.002206  2.612751  -0.002  -0.374974  -0.002215  2.625781  -0.002  -0.176678  -0.357609  -0.001836  2.602894  -0.002
N  N79  1  0.48098756  0.83049087  0.15840847  1  -0.367093  0.091575  2.384938  0.089  -0.367835  0.089479  2.610831  0.08  -0.377013  0.086338  2.623996  0.079  -0.177602  -0.358878  0.094131  2.600626  0.083
N  N80  1  0.17428153  0.17524391  0.41570886  1  -0.488904  0.045912  2.665947  0.062  -0.474001  0.034061  2.966095  0.052  -0.492085  0.042319  2.968748  0.061  -0.250781  -0.459619  0.029325  2.964095  0.047
N  N81  1  0.32649809  0.67444408  0.41488946  1  -0.488966  -0.046725  2.670286  -0.063  -0.472964  -0.034317  2.970713  -0.053  -0.491076  -0.043246  2.973279  -0.061  -0.251263  -0.458579  -0.028991  2.968552  -0.047
N  N82  1  0.82510137  0.82503127  0.58614669  1  -0.4947  0.043243  2.660617  0.025  -0.478708  0.054821  2.956331  0.029  -0.496571  0.045012  2.959942  0.021  -0.24984  -0.464533  0.066277  2.953602  0.039
N  N83  1  0.67394694  0.32588389  0.58713863  1  -0.495979  0.043074  2.662651  0.024  -0.47962  0.054908  2.958699  0.028  -0.49765  0.045178  2.962282  0.02  -0.251285  -0.465376  0.066158  2.955894  0.038
N  N84  1  0.19346558  0.07359920  0.44579816  1  0.412292  7.6e-05  4.194207  0.0  0.44918  -0.00072  4.469071  0.0  0.466767  -0.000744  4.499464  0.0  0.099921  0.436522  0.000302  4.447467  0.001
N  N85  1  0.30615905  0.57322246  0.44518687  1  0.410812  -0.000403  4.194533  0.0  0.446921  0.000738  4.470042  0.001  0.464484  0.000373  4.500452  0.001  0.099262  0.434293  0.000433  4.448407  0.0
N  N86  1  0.80662868  0.92583866  0.55476073  1  0.4127  0.017256  4.211997  0.021  0.449226  0.031068  4.488243  0.035  0.466728  0.025019  4.518112  0.03  0.099678  0.436727  0.036473  4.466863  0.04
N  N87  1  0.69368451  0.42623363  0.55549582  1  0.412627  0.017844  4.211947  0.021  0.449553  0.031807  4.487381  0.036  0.467058  0.025766  4.517164  0.03  0.100042  0.437071  0.037131  4.466068  0.04
N  N88  1  0.21159872  0.96977253  0.47264868  1  -0.487446  -0.05098  2.687623  -0.067  -0.473733  -0.040536  2.988796  -0.058  -0.491528  -0.047688  2.991493  -0.065  -0.246827  -0.459265  -0.037213  2.986632  -0.054
N  N89  1  0.28691613  0.46980433  0.47220000  1  -0.484628  0.050796  2.687948  0.068  -0.470537  0.040729  2.989389  0.058  -0.488199  0.047446  2.992003  0.065  -0.245536  -0.456058  0.037877  2.987311  0.055
N  N90  1  0.78932282  0.02873116  0.52647996  1  -0.489144  0.045894  2.668824  0.028  -0.474964  0.056338  2.965698  0.03  -0.492428  0.047347  2.969435  0.023  -0.243853  -0.460625  0.066741  2.962757  0.039
N  N91  1  0.71217914  0.52866222  0.52700359  1  -0.487082  0.04679  2.670793  0.029  -0.473001  0.057195  2.967234  0.031  -0.490293  0.048169  2.970815  0.024  -0.242648  -0.458693  0.067659  2.964321  0.04
O  O92  1  0.95387683  0.30022808  0.85538975  1  -0.261701  -0.00288  2.365529  -0.003  -0.1781  -0.005109  2.605668  -0.006  -0.200412  -0.004062  2.60865  -0.004  -0.158776  -0.162654  -0.005997  2.60309  -0.007
O  O93  1  0.54673785  0.80082159  0.85605059  1  -0.261409  0.002861  2.363788  0.003  -0.178117  0.005352  2.604005  0.006  -0.200481  0.004191  2.607009  0.005  -0.159133  -0.162742  0.006765  2.601461  0.007
O  O94  1  0.04695617  0.69996477  0.14424096  1  -0.260368  0.003135  2.363236  0.004  -0.178438  0.005725  2.603954  0.006  -0.200687  0.004452  2.606807  0.005  -0.158667  -0.163155  0.006848  2.6015  0.008
O  O95  1  0.45246662  0.19935314  0.14357201  1  -0.26046  0.002987  2.365265  0.003  -0.177678  0.005575  2.605573  0.006  -0.199912  0.004338  2.608426  0.005  -0.158475  -0.162366  0.007106  2.603055  0.008
