# generated using pymatgen
data_ZnH17C16SNO4
_symmetry_space_group_name_H-M   'P 1'
_cell_length_a   7.58032576
_cell_length_b   9.58385936
_cell_length_c   11.70137936
_cell_angle_alpha   107.16463503
_cell_angle_beta   90.00022021
_cell_angle_gamma   89.99967136
_symmetry_Int_Tables_number   1
_chemical_formula_structural   ZnH17C16SNO4
_chemical_formula_sum   'Zn2 H34 C32 S2 N2 O8'
_cell_volume   812.22843614
_cell_formula_units_Z   2
loop_
 _symmetry_equiv_pos_site_id
 _symmetry_equiv_pos_as_xyz
  1  'x, y, z'
loop_
 _atom_site_type_symbol
 _atom_site_label
 _atom_site_symmetry_multiplicity
 _atom_site_fract_x
 _atom_site_fract_y
 _atom_site_fract_z
 _atom_site_occupancy
 _atom_site_hle17_bader_spin_density
 _atom_site_hle17_ddec_charge
 _atom_site_hle17_ddec_spin_density
 _atom_site_hle17_ddec_sum_bond_order
 _atom_site_hle17_magmom
 _atom_site_hse06_10hf_bader_spin_density
 _atom_site_hse06_10hf_ddec_charge
 _atom_site_hse06_10hf_ddec_spin_density
 _atom_site_hse06_10hf_ddec_sum_bond_order
 _atom_site_hse06_10hf_magmom
 _atom_site_hse06_bader_spin_density
 _atom_site_hse06_ddec_charge
 _atom_site_hse06_ddec_spin_density
 _atom_site_hse06_ddec_sum_bond_order
 _atom_site_hse06_magmom
 _atom_site_pbe_bader_spin_density
 _atom_site_pbe_cm5_charge
 _atom_site_pbe_ddec_charge
 _atom_site_pbe_ddec_spin_density
 _atom_site_pbe_ddec_sum_bond_order
 _atom_site_pbe_magmom
Zn  Zn0  1  0.00803573  0.33153050  0.55842195  1  0  1.075666  0  1.827349  0  0  0.89952  0  2.29686  0  0  0.947194  0  2.238816  0  0  0.68736  0.866384  0  2.337046  0
Zn  Zn1  1  0.50803642  0.66846699  0.44157652  1  0  1.075721  0  1.827316  0  0  0.899529  0  2.296823  0  0  0.947207  0  2.238777  0  0  0.687368  0.866395  0  2.337008  0
H  H2  1  0.84631677  0.51511225  0.04340914  1  0  0.083557  0  0.987938  0  0  0.09317  0  1.052103  0  0  0.095691  0  1.051894  0  0  0.091868  0.091432  0  1.05233  0
H  H3  1  0.34631733  0.48489045  0.95659140  1  0  0.083553  0  0.987955  0  0  0.093161  0  1.052124  0  0  0.095683  0  1.051915  0  0  0.091873  0.091427  0  1.05235  0
H  H4  1  0.80089200  0.47636338  0.23696197  1  0  0.095176  0  0.957478  0  0  0.104912  0  1.019692  0  0  0.107841  0  1.018454  0  0  0.099403  0.103044  0  1.020195  0
H  H5  1  0.30089245  0.52363733  0.76303969  1  0  0.095185  0  0.957502  0  0  0.104919  0  1.019718  0  0  0.107847  0  1.018479  0  0  0.099412  0.103052  0  1.020223  0
H  H6  1  0.91195413  0.25285722  0.28010503  1  0  0.105428  0  0.961463  0  0  0.114227  0  1.025441  0  0  0.117767  0  1.023671  0  0  0.10173  0.111705  0  1.026828  0
H  H7  1  0.41195798  0.74714083  0.71989287  1  0  0.105427  0  0.961449  0  0  0.114223  0  1.025438  0  0  0.117761  0  1.023668  0  0  0.10174  0.111698  0  1.026826  0
H  H8  1  0.08456904  0.07006291  0.12385373  1  0  0.08819  0  0.939935  0  0  0.103348  0  0.993312  0  0  0.106314  0  0.991798  0  0  0.100082  0.101319  0  0.994326  0
H  H9  1  0.58457569  0.92993539  0.87614597  1  0  0.088157  0  0.939929  0  0  0.103325  0  0.9933  0  0  0.106292  0  0.991785  0  0  0.100084  0.101296  0  0.994312  0
H  H10  1  0.22247641  0.99185712  0.92999918  1  0  0.087381  0  0.96265  0  0  0.098991  0  1.023739  0  0  0.101316  0  1.022793  0  0  0.099276  0.09688  0  1.02532  0
H  H11  1  0.72247045  0.00814281  0.07000211  1  0  0.087408  0  0.962637  0  0  0.099  0  1.023741  0  0  0.101323  0  1.022797  0  0  0.099294  0.096889  0  1.025322  0
H  H12  1  0.27169095  0.01847116  0.72816943  1  0  0.110037  0  0.970865  0  0  0.116885  0  1.039191  0  0  0.121038  0  1.037148  0  0  0.098282  0.114258  0  1.040304  0
H  H13  1  0.77168968  0.98153513  0.27183434  1  0  0.110033  0  0.970817  0  0  0.116888  0  1.039137  0  0  0.121041  0  1.037095  0  0  0.098285  0.11426  0  1.04025  0
H  H14  1  0.88284668  0.53325231  0.89250293  1  0  0.059946  0  0.942303  0  0  0.076815  0  1.001552  0  0  0.07896  0  0.997579  0  0  0.11381  0.075024  0  1.004783  0
H  H15  1  0.38284233  0.46675023  0.10749595  1  0  0.059968  0  0.942274  0  0  0.076808  0  1.00156  0  0  0.07895  0  0.997591  0  0  0.113829  0.075015  0  1.004791  0
H  H16  1  0.74918545  0.64019057  0.77217465  1  0  0.059624  0  0.953925  0  0  0.072061  0  1.014071  0  0  0.072151  0  1.016296  0  0  0.107416  0.071669  0  1.012693  0
H  H17  1  0.24918391  0.35980926  0.22782754  1  0  0.059641  0  0.953932  0  0  0.072081  0  1.014074  0  0  0.07217  0  1.016301  0  0  0.107438  0.071689  0  1.012693  0
H  H18  1  0.03947821  0.76179680  0.82653311  1  0  0.105606  0  0.949444  0  0  0.128534  0  1.007574  0  0  0.129332  0  1.008774  0  0  0.089411  0.127275  0  1.008318  0
H  H19  1  0.53947383  0.23820276  0.17346593  1  0  0.105612  0  0.949433  0  0  0.128561  0  1.007535  0  0  0.12936  0  1.008734  0  0  0.089418  0.127302  0  1.008278  0
H  H20  1  0.92374307  0.83621498  0.72572143  1  0  0.106533  0  0.963862  0  0  0.127838  0  1.027626  0  0  0.128674  0  1.029092  0  0  0.089139  0.12704  0  1.02756  0
H  H21  1  0.42373795  0.16378414  0.27427931  1  0  0.106507  0  0.963884  0  0  0.127818  0  1.02763  0  0  0.128656  0  1.029097  0  0  0.089121  0.12702  0  1.027565  0
H  H22  1  0.10295146  0.71219961  0.67362013  1  0  0.114516  0  0.956072  0  0  0.132908  0  1.022982  0  0  0.134724  0  1.022556  0  0  0.09085  0.131672  0  1.023371  0
H  H23  1  0.60294895  0.28780188  0.32638038  1  0  0.114526  0  0.956046  0  0  0.132903  0  1.022996  0  0  0.134719  0  1.02257  0  0  0.090841  0.131666  0  1.023385  0
H  H24  1  0.64285849  0.32389106  0.69735478  1  0  0.141981  0  0.955089  0  0  0.159713  0  1.012506  0  0  0.160778  0  1.013823  0  0  0.099967  0.159006  0  1.011311  0
H  H25  1  0.14285775  0.67610918  0.30264467  1  0  0.141991  0  0.95507  0  0  0.159699  0  1.012514  0  0  0.160764  0  1.01383  0  0  0.099966  0.15899  0  1.011321  0
H  H26  1  0.42905777  0.24673703  0.64264109  1  0  0.166293  0  0.968705  0  0  0.183339  0  1.023996  0  0  0.186241  0  1.023064  0  0  0.105682  0.181285  0  1.024717  0
H  H27  1  0.92905603  0.75326314  0.35735820  1  0  0.166262  0  0.96876  0  0  0.18331  0  1.024048  0  0  0.186211  0  1.02312  0  0  0.105682  0.181255  0  1.024768  0
H  H28  1  0.53974368  0.36156349  0.57061857  1  0  0.160168  0  0.94809  0  0  0.176857  0  1.004178  0  0  0.178644  0  1.004764  0  0  0.105638  0.175259  0  1.00444  0
H  H29  1  0.03974264  0.63843606  0.42938047  1  0  0.160146  0  0.948099  0  0  0.176814  0  1.004222  0  0  0.178601  0  1.004809  0  0  0.105624  0.175216  0  1.004484  0
H  H30  1  0.77375139  0.92599647  0.57754914  1  0  0.153842  0  0.965229  0  0  0.164822  0  1.03456  0  0  0.167548  0  1.033419  0  0  0.102657  0.162858  0  1.035561  0
H  H31  1  0.27375307  0.07400215  0.42244940  1  0  0.153838  0  0.965245  0  0  0.164815  0  1.034584  0  0  0.167542  0  1.033442  0  0  0.102659  0.162851  0  1.035586  0
H  H32  1  0.58177247  0.00064716  0.66056669  1  0  0.15759  0  0.933392  0  0  0.17844  0  0.986642  0  0  0.180306  0  0.986066  0  0  0.109286  0.176939  0  0.987426  0
H  H33  1  0.08177356  0.99935222  0.33943155  1  0  0.157588  0  0.93339  0  0  0.178444  0  0.986632  0  0  0.180309  0  0.986056  0  0  0.109288  0.176942  0  0.987414  0
H  H34  1  0.79103236  0.09685280  0.69610008  1  0  0.140437  0  0.954076  0  0  0.157476  0  1.014319  0  0  0.158623  0  1.015358  0  0  0.100448  0.157202  0  1.012516  0
H  H35  1  0.29103394  0.90314685  0.30389960  1  0  0.140435  0  0.954043  0  0  0.157476  0  1.01429  0  0  0.158622  0  1.015331  0  0  0.100448  0.157202  0  1.012489  0
C  C36  1  0.12087226  0.21798238  0.75938262  1  0  0.36437  0  3.861696  0  0  0.345753  0  4.123125  0  0  0.367212  0  4.134636  0  0  0.094365  0.32964  0  4.11723  0
C  C37  1  0.62087225  0.78201577  0.24061714  1  0  0.364329  0  3.861614  0  0  0.345695  0  4.123065  0  0  0.367157  0  4.134577  0  0  0.094359  0.329586  0  4.117166  0
C  C38  1  0.02081837  0.32722640  0.84573465  1  0  -0.203074  0  3.771275  0  0  -0.189688  0  4.021086  0  0  -0.20776  0  4.048559  0  0  -0.051149  -0.177198  0  4.003047  0
C  C39  1  0.52081469  0.67277323  0.15426521  1  0  -0.202964  0  3.771225  0  0  -0.189558  0  4.021004  0  0  -0.207632  0  4.04848  0  0  -0.05109  -0.177073  0  4.002964  0
C  C40  1  0.99374266  0.31296587  0.96499785  1  0  0.045582  0  3.772957  0  0  0.055317  0  4.002481  0  0  0.059182  0  4.029599  0  0  -0.009543  0.053971  0  3.982869  0
C  C41  1  0.49373893  0.68703624  0.03500292  1  0  0.045527  0  3.772994  0  0  0.055276  0  4.002495  0  0  0.059142  0  4.029612  0  0  -0.009559  0.053932  0  3.982884  0
C  C42  1  0.90044150  0.41617858  0.05745177  1  0  -0.149294  0  3.772258  0  0  -0.168465  0  4.022816  0  0  -0.174217  0  4.045704  0  0  -0.107709  -0.164808  0  4.006352  0
C  C43  1  0.40044126  0.58382171  0.94254748  1  0  -0.149287  0  3.772304  0  0  -0.168474  0  4.022882  0  0  -0.174223  0  4.045765  0  0  -0.107733  -0.164815  0  4.006412  0
C  C44  1  0.87296815  0.39472243  0.16809989  1  0  -0.057043  0  3.772885  0  0  -0.071693  0  4.028477  0  0  -0.071154  0  4.049066  0  0  -0.095756  -0.070981  0  4.012856  0
C  C45  1  0.37296974  0.60527688  0.83189906  1  0  -0.057064  0  3.77285  0  0  -0.071705  0  4.028442  0  0  -0.071165  0  4.049028  0  0  -0.095749  -0.070994  0  4.012822  0
C  C46  1  0.93490006  0.26820226  0.19283326  1  0  -0.083869  0  3.783571  0  0  -0.104571  0  4.044574  0  0  -0.107379  0  4.064114  0  0  -0.100919  -0.102421  0  4.030595  0
C  C47  1  0.43490849  0.73179789  0.80716604  1  0  -0.083817  0  3.783597  0  0  -0.104525  0  4.044608  0  0  -0.107335  0  4.064149  0  0  -0.100918  -0.102373  0  4.030634  0
C  C48  1  0.03037175  0.16733855  0.10618170  1  0  -0.110337  0  3.765331  0  0  -0.127639  0  4.015273  0  0  -0.127913  0  4.034653  0  0  -0.09174  -0.127213  0  4.001637  0
C  C49  1  0.53037130  0.83265778  0.89381826  1  0  -0.110254  0  3.765585  0  0  -0.127562  0  4.015526  0  0  -0.127836  0  4.034909  0  0  -0.091693  -0.127135  0  4.001888  0
C  C50  1  0.06349954  0.18804077  0.99328382  1  0  0.014115  0  3.83308  0  0  0.030256  0  4.063753  0  0  0.025057  0  4.090664  0  0  -0.026198  0.033339  0  4.04518  0
C  C51  1  0.56350057  0.81196087  0.00671491  1  0  0.014048  0  3.833279  0  0  0.030189  0  4.063933  0  0  0.024984  0  4.090858  0  0  -0.026244  0.033274  0  4.045361  0
C  C52  1  0.16669838  0.08478111  0.90630106  1  0  -0.066216  0  3.778326  0  0  -0.087479  0  4.025117  0  0  -0.083397  0  4.04394  0  0  -0.083441  -0.087928  0  4.012305  0
C  C53  1  0.66669391  0.91522124  0.09370237  1  0  -0.066269  0  3.778433  0  0  -0.087522  0  4.025242  0  0  -0.08344  0  4.044062  0  0  -0.083487  -0.087973  0  4.01243  0
C  C54  1  0.19543423  0.09933384  0.79522282  1  0  -0.206853  0  3.746472  0  0  -0.224854  0  4.003982  0  0  -0.234307  0  4.022864  0  0  -0.113105  -0.219097  0  3.991908  0
C  C55  1  0.69543448  0.90066619  0.20477672  1  0  -0.20683  0  3.746403  0  0  -0.224827  0  4.003902  0  0  -0.23428  0  4.022784  0  0  -0.113093  -0.219069  0  3.991825  0
C  C56  1  0.94686512  0.45095683  0.81831817  1  0  0.177945  0  3.72785  0  0  0.131101  0  3.986124  0  0  0.150234  0  3.996264  0  0  0.068651  0.117517  0  3.979968  0
C  C57  1  0.44685929  0.54904438  0.18168312  1  0  0.17804  0  3.727799  0  0  0.131185  0  3.986035  0  0  0.150322  0  3.996172  0  0  0.068646  0.117604  0  3.979876  0
C  C58  1  0.85927958  0.61062019  0.70809576  1  0  0.042257  0  3.694744  0  0  0.032272  0  3.927911  0  0  0.031594  0  3.9437  0  0  -0.002831  0.033415  0  3.916766  0
C  C59  1  0.35927821  0.38937919  0.29190488  1  0  0.042358  0  3.694809  0  0  0.032332  0  3.927954  0  0  0.031654  0  3.943742  0  0  -0.002838  0.033472  0  3.916809  0
C  C60  1  0.98979338  0.73837465  0.73480348  1  0  -0.316733  0  3.660203  0  0  -0.398968  0  3.896916  0  0  -0.402306  0  3.908264  0  0  -0.242115  -0.39721  0  3.891048  0
C  C61  1  0.48978882  0.26162420  0.26519651  1  0  -0.316715  0  3.660158  0  0  -0.398962  0  3.896861  0  0  -0.402304  0  3.908215  0  0  -0.242076  -0.397202  0  3.890992  0
C  C62  1  0.78026159  0.58708928  0.58325426  1  0  0.646089  0  3.839892  0  0  0.595204  0  4.137151  0  0  0.628324  0  4.130724  0  0  0.215436  0.572769  0  4.14119  0
C  C63  1  0.28026078  0.41291368  0.41674532  1  0  0.645963  0  3.840063  0  0  0.59516  0  4.137204  0  0  0.628277  0  4.130774  0  0  0.215432  0.572723  0  4.141245  0
C  C64  1  0.55920634  0.28048121  0.61855517  1  0  -0.453004  0  3.560766  0  0  -0.51814  0  3.799829  0  0  -0.522983  0  3.805956  0  0  -0.240536  -0.51447  0  3.795748  0
C  C65  1  0.05920442  0.71951824  0.38144133  1  0  -0.452925  0  3.560736  0  0  -0.518036  0  3.799843  0  0  -0.52288  0  3.805972  0  0  -0.240514  -0.514367  0  3.79576  0
C  C66  1  0.70718508  0.02759355  0.62541681  1  0  -0.433048  0  3.568442  0  0  -0.505037  0  3.817278  0  0  -0.507976  0  3.821044  0  0  -0.23338  -0.502578  0  3.814408  0
C  C67  1  0.20718658  0.97240643  0.37458274  1  0  -0.433041  0  3.568419  0  0  -0.505036  0  3.817274  0  0  -0.507975  0  3.821039  0  0  -0.233389  -0.502577  0  3.814403  0
S  S68  1  0.65693461  0.12119471  0.51756213  1  0  0.737125  0  3.551983  0  0  0.707443  0  3.997978  0  0  0.724187  0  3.994063  0  0  0.302888  0.69563  0  4.000237  0
S  S69  1  0.15693610  0.87880547  0.48243734  1  0  0.737113  0  3.551961  0  0  0.707429  0  3.997943  0  0  0.724174  0  3.99403  0  0  0.302886  0.695616  0  4.000201  0
N  N70  1  0.94416562  0.47675698  0.71482066  1  0  -0.422125  0  3.272254  0  0  -0.337406  0  3.559909  0  0  -0.360469  0  3.571082  0  0  -0.368307  -0.32236  0  3.552651  0
N  N71  1  0.44416060  0.52324314  0.28517951  1  0  -0.422415  0  3.272431  0  0  -0.337612  0  3.560021  0  0  -0.360677  0  3.571189  0  0  -0.368368  -0.322564  0  3.55276  0
O  O72  1  0.15123474  0.21944035  0.65031056  1  0  -0.625439  0  2.102897  0  0  -0.556354  0  2.373702  0  0  -0.583889  0  2.3648  0  0  -0.332299  -0.53811  0  2.380239  0
O  O73  1  0.65123408  0.78056205  0.34969113  1  0  -0.625424  0  2.102837  0  0  -0.55634  0  2.373664  0  0  -0.583868  0  2.364744  0  0  -0.332306  -0.538097  0  2.380201  0
O  O74  1  0.82580067  0.47851563  0.49754441  1  0  -0.619435  0  1.997355  0  0  -0.563304  0  2.254871  0  0  -0.588758  0  2.243127  0  0  -0.306052  -0.545755  0  2.263132  0
O  O75  1  0.32580090  0.52148279  0.50245592  1  0  -0.619362  0  1.997444  0  0  -0.563255  0  2.254922  0  0  -0.588706  0  2.243173  0  0  -0.306051  -0.545708  0  2.263186  0
O  O76  1  0.67177774  0.68645008  0.57610081  1  0  -0.628581  0  2.093673  0  0  -0.547549  0  2.362333  0  0  -0.577004  0  2.349479  0  0  -0.316015  -0.526573  0  2.371054  0
O  O77  1  0.17177770  0.31354898  0.42390271  1  0  -0.628538  0  2.0937  0  0  -0.547579  0  2.362376  0  0  -0.577038  0  2.349541  0  0  -0.316027  -0.526601  0  2.371101  0
O  O78  1  0.83530793  0.16452561  0.47562910  1  0  -0.664433  0  1.986336  0  0  -0.586057  0  2.277092  0  0  -0.609418  0  2.262634  0  0  -0.352559  -0.569832  0  2.287003  0
O  O79  1  0.33530866  0.83547277  0.52437125  1  0  -0.664443  0  1.986367  0  0  -0.586046  0  2.277105  0  0  -0.609411  0  2.262649  0  0  -0.352547  -0.569823  0  2.287015  0
