# generated using pymatgen
data_CoH6C6(N2O)4
_symmetry_space_group_name_H-M   'P 1'
_cell_length_a   4.86627591
_cell_length_b   7.73454349
_cell_length_c   13.24659332
_cell_angle_alpha   90.00007369
_cell_angle_beta   89.99971521
_cell_angle_gamma   103.50346189
_symmetry_Int_Tables_number   1
_chemical_formula_structural   CoH6C6(N2O)4
_chemical_formula_sum   'Co2 H12 C12 N16 O8'
_cell_volume   484.79801621
_cell_formula_units_Z   2
loop_
 _symmetry_equiv_pos_site_id
 _symmetry_equiv_pos_as_xyz
  1  'x, y, z'
loop_
 _atom_site_type_symbol
 _atom_site_label
 _atom_site_symmetry_multiplicity
 _atom_site_fract_x
 _atom_site_fract_y
 _atom_site_fract_z
 _atom_site_occupancy
 _atom_site_hle17_ddec_charge
 _atom_site_hle17_ddec_spin_density
 _atom_site_hle17_ddec_sum_bond_order
 _atom_site_hle17_magmom
 _atom_site_hse06_10hf_ddec_charge
 _atom_site_hse06_10hf_ddec_spin_density
 _atom_site_hse06_10hf_ddec_sum_bond_order
 _atom_site_hse06_10hf_magmom
 _atom_site_hse06_ddec_charge
 _atom_site_hse06_ddec_spin_density
 _atom_site_hse06_ddec_sum_bond_order
 _atom_site_hse06_magmom
 _atom_site_pbe_cm5_charge
 _atom_site_pbe_ddec_charge
 _atom_site_pbe_ddec_spin_density
 _atom_site_pbe_ddec_sum_bond_order
 _atom_site_pbe_magmom
Co  Co0  1  0.99999664  0.00000242  0.00000059  1  1.027735  2.848736  2.033786  2.602  1.006032  2.847811  2.431724  2.664  1.082536  2.885372  2.356203  2.738  0.679171  0.939546  2.80628  2.490872  2.584
Co  Co1  1  0.50000081  0.49999946  0.49999998  1  1.027801  2.848733  2.033766  2.602  1.006121  2.847803  2.431699  2.664  1.082642  2.885373  2.356175  2.738  0.679206  0.939652  2.806272  2.49084  2.584
H  H2  1  0.45662764  0.88439598  0.62028317  1  0.125388  6.5e-05  0.95855  0.0  0.125976  0.000221  1.038627  0.0  0.128476  0.000117  1.036978  0.0  0.121758  0.124327  0.000331  1.039605  0.001
H  H3  1  0.04336936  0.61560126  0.12028470  1  0.125372  6.4e-05  0.958557  0.0  0.12596  0.000221  1.038618  0.0  0.12846  0.000117  1.036967  0.0  0.121751  0.12431  0.000331  1.039593  0.001
H  H4  1  0.54337398  0.11560294  0.37971680  1  0.125381  6.5e-05  0.958513  0.0  0.125975  0.000221  1.038604  0.0  0.128475  0.000117  1.036954  0.0  0.121738  0.124326  0.000331  1.039583  0.001
H  H5  1  0.95662560  0.38439634  0.87971526  1  0.125412  6.6e-05  0.958515  0.0  0.125994  0.000221  1.038582  0.0  0.128493  0.000116  1.036933  0.0  0.121759  0.124345  0.000331  1.039559  0.001
H  H6  1  0.28497780  0.02610071  0.55032162  1  0.141102  -0.000775  0.913945  -0.001  0.153743  -0.000383  0.973806  0.0  0.156494  -0.000325  0.972643  0.0  0.130299  0.151547  -0.000408  0.974888  0.0
H  H7  1  0.21502234  0.47389876  0.05032160  1  0.14111  -0.000775  0.913955  -0.001  0.153726  -0.000383  0.973819  0.0  0.156477  -0.000327  0.972655  0.0  0.130296  0.15153  -0.000408  0.974903  0.0
H  H8  1  0.71502433  0.97389953  0.44967910  1  0.141043  -0.000774  0.913988  -0.001  0.153706  -0.000383  0.973839  0.0  0.156458  -0.000325  0.972675  0.0  0.130293  0.151508  -0.000408  0.974922  0.0
H  H9  1  0.78497618  0.52610283  0.94967685  1  0.14113  -0.000773  0.91392  -0.001  0.153743  -0.000383  0.97379  0.0  0.156496  -0.000326  0.972626  0.0  0.13031  0.151546  -0.000408  0.974873  0.0
H  H10  1  0.28142182  0.82217834  0.81318724  1  0.131527  -0.000143  0.961556  0.0  0.130607  -0.000298  1.038203  0.0  0.134566  -0.000274  1.033167  0.0  0.151175  0.127489  -0.000284  1.042276  0.0
H  H11  1  0.21857466  0.67781893  0.31318926  1  0.131567  -0.000143  0.961544  0.0  0.130632  -0.000298  1.038181  0.0  0.13459  -0.000274  1.033144  0.0  0.151171  0.127512  -0.000284  1.042251  0.0
H  H12  1  0.71857980  0.17782057  0.18681272  1  0.131575  -0.000143  0.961528  0.0  0.130658  -0.000298  1.038159  0.0  0.134613  -0.000275  1.033128  0.0  0.151193  0.127538  -0.000284  1.042231  0.0
H  H13  1  0.78142236  0.32217867  0.68681071  1  0.131568  -0.000143  0.961526  0.0  0.130651  -0.000298  1.038148  0.0  0.134609  -0.000274  1.033115  0.0  0.151172  0.127533  -0.000284  1.04222  0.0
C  C14  1  0.25135553  0.90805723  0.59921833  1  -0.192646  0.005006  3.590761  0.008  -0.266548  0.003091  3.835898  0.005  -0.269302  0.001732  3.840829  0.003  -0.050605  -0.263684  0.004912  3.832341  0.007
C  C15  1  0.24864688  0.59194265  0.09921947  1  -0.192696  0.005007  3.590857  0.008  -0.266514  0.003091  3.835887  0.005  -0.269264  0.001734  3.840816  0.003  -0.050641  -0.263656  0.004911  3.832332  0.007
C  C16  1  0.74864866  0.09194301  0.40078239  1  -0.192546  0.005005  3.590785  0.008  -0.266473  0.003091  3.835947  0.005  -0.269226  0.001733  3.840878  0.003  -0.0506  -0.263607  0.004911  3.83239  0.007
C  C17  1  0.75135115  0.40805761  0.90077974  1  -0.192747  0.005003  3.590825  0.008  -0.266553  0.00309  3.835814  0.005  -0.269311  0.001734  3.840745  0.003  -0.050656  -0.263688  0.004911  3.832257  0.007
C  C18  1  0.13636468  0.89798854  0.78577432  1  0.163101  -0.011575  3.59535  -0.007  0.082301  -0.003536  3.874389  -0.001  0.096421  -0.00256  3.881979  -0.001  0.177075  0.072015  -0.00467  3.870284  -0.002
C  C19  1  0.36363167  0.60200739  0.28577601  1  0.162993  -0.011572  3.59544  -0.007  0.082255  -0.003537  3.87446  -0.001  0.096377  -0.002565  3.882048  -0.001  0.177085  0.071967  -0.004671  3.870347  -0.002
C  C20  1  0.86363439  0.10200905  0.21422640  1  0.162999  -0.011576  3.595436  -0.007  0.082228  -0.003536  3.874461  -0.001  0.096348  -0.00256  3.88205  -0.001  0.177027  0.07194  -0.00467  3.870352  -0.002
C  C21  1  0.63636585  0.39799153  0.71422395  1  0.162996  -0.01158  3.59543  -0.007  0.082222  -0.003537  3.87445  -0.001  0.096338  -0.00256  3.882045  -0.001  0.177058  0.071936  -0.004671  3.870345  -0.002
C  C22  1  0.08035792  0.74748590  0.54029082  1  0.706539  -0.009421  3.834271  -0.005  0.660124  0.001402  4.155686  0.005  0.698593  0.001868  4.14766  0.006  0.223779  0.631228  0.000168  4.159648  0.003
C  C23  1  0.41963912  0.75251399  0.04029101  1  0.706445  -0.009421  3.834247  -0.005  0.65999  0.001404  4.155687  0.005  0.698452  0.00187  4.147673  0.006  0.223747  0.631099  0.000169  4.159647  0.003
C  C24  1  0.91964371  0.25251302  0.45970914  1  0.706548  -0.00942  3.834216  -0.005  0.66014  0.001402  4.155623  0.005  0.698609  0.001868  4.147602  0.006  0.223879  0.631248  0.000168  4.159587  0.003
C  C25  1  0.58035631  0.24749027  0.95970895  1  0.706587  -0.009419  3.834001  -0.005  0.660159  0.001403  4.155389  0.005  0.698627  0.001869  4.147366  0.006  0.223859  0.631264  0.000168  4.159352  0.003
N  N26  1  0.95777887  0.96255211  0.84220093  1  -0.252236  0.024193  3.193755  0.051  -0.224096  0.018599  3.514322  0.035  -0.240839  0.016101  3.517965  0.03  -0.220932  -0.21226  0.020909  3.512572  0.039
N  N27  1  0.54222056  0.53744358  0.34220090  1  -0.252211  0.024193  3.193698  0.051  -0.224103  0.018599  3.514272  0.035  -0.240846  0.016102  3.517915  0.03  -0.220971  -0.212271  0.02091  3.512517  0.039
N  N28  1  0.04222275  0.03744680  0.15779979  1  -0.252183  0.024195  3.193695  0.051  -0.224045  0.0186  3.514243  0.035  -0.240786  0.016102  3.517884  0.03  -0.220909  -0.212208  0.020911  3.512484  0.039
N  N29  1  0.45777851  0.46255401  0.65779831  1  -0.252167  0.024195  3.19372  0.051  -0.224041  0.018599  3.514281  0.035  -0.240786  0.0161  3.517929  0.03  -0.220878  -0.212206  0.020909  3.512529  0.039
N  N30  1  0.82083365  0.05219463  0.77884857  1  -0.065077  -0.007458  2.935368  -0.006  -0.059979  -0.001847  3.249462  -0.001  -0.05852  -0.001107  3.258551  0.0  -0.076148  -0.061361  -0.003034  3.243875  -0.002
N  N31  1  0.67916422  0.44780198  0.27884709  1  -0.065088  -0.007463  2.935305  -0.006  -0.059993  -0.001848  3.249418  -0.001  -0.058533  -0.001104  3.258506  0.0  -0.07618  -0.061376  -0.003034  3.243829  -0.002
N  N32  1  0.17916797  0.94780429  0.22115139  1  -0.065086  -0.007461  2.935326  -0.006  -0.059981  -0.001848  3.249428  -0.001  -0.05852  -0.001106  3.258513  0.0  -0.076163  -0.061365  -0.003033  3.243836  -0.002
N  N33  1  0.32083280  0.55219562  0.72115136  1  -0.065112  -0.007459  2.935402  -0.006  -0.06001  -0.001848  3.249518  -0.001  -0.05855  -0.001107  3.258609  0.0  -0.076177  -0.061391  -0.003034  3.24393  -0.002
N  N34  1  0.91105515  0.04453630  0.68671461  1  -0.093358  0.000514  2.855706  0.002  -0.100575  0.000699  3.131267  0.002  -0.097767  0.000657  3.139468  0.002  -0.068695  -0.10311  0.000761  3.126917  0.002
N  N35  1  0.58894086  0.45546296  0.18671330  1  -0.093306  0.000518  2.855734  0.002  -0.100519  0.000699  3.131314  0.002  -0.09771  0.000653  3.139518  0.002  -0.068638  -0.103054  0.000761  3.12696  0.002
N  N36  1  0.08894903  0.95546394  0.31328611  1  -0.093349  0.000517  2.85567  0.002  -0.100577  0.000699  3.131268  0.002  -0.097773  0.000657  3.139475  0.002  -0.068682  -0.103114  0.000761  3.126914  0.002
N  N37  1  0.41105511  0.54453730  0.81328516  1  -0.093307  0.000513  2.855696  0.002  -0.100563  0.000699  3.131321  0.002  -0.097758  0.000658  3.139524  0.002  -0.068693  -0.103096  0.000761  3.126969  0.002
N  N38  1  0.10959894  0.94796558  0.68979723  1  0.067317  0.00149  3.547353  0.003  0.184965  0.000699  3.734349  0.001  0.176165  0.000538  3.753225  0.001  -0.113161  0.189986  0.000845  3.722854  0.001
N  N39  1  0.39039919  0.55203166  0.18979884  1  0.067354  0.001488  3.547585  0.003  0.184947  0.000699  3.734574  0.001  0.176146  0.00054  3.75345  0.001  -0.11315  0.189967  0.000844  3.723073  0.001
N  N40  1  0.89040268  0.05203333  0.31020273  1  0.067355  0.00149  3.547461  0.003  0.184968  0.000699  3.734498  0.001  0.176171  0.000538  3.75337  0.001  -0.113134  0.189987  0.000845  3.722999  0.001
N  N41  1  0.60960089  0.44796859  0.81020037  1  0.067353  0.001492  3.547484  0.003  0.184979  0.000699  3.734459  0.001  0.176194  0.000537  3.753313  0.001  -0.113146  0.190001  0.000845  3.722966  0.001
O  O42  1  0.81400880  0.72294895  0.54243408  1  -0.622686  0.038729  2.101111  0.069  -0.59743  0.031524  2.384115  0.052  -0.63428  0.023476  2.374354  0.039  -0.306422  -0.568359  0.039772  2.390084  0.065
O  O43  1  0.68599662  0.77705732  0.04243623  1  -0.622654  0.038735  2.101012  0.069  -0.597351  0.031527  2.383978  0.052  -0.634214  0.023478  2.374256  0.039  -0.306406  -0.568273  0.039777  2.38994  0.065
O  O44  1  0.18599488  0.27704996  0.45756663  1  -0.622672  0.038731  2.101086  0.069  -0.597402  0.031525  2.384066  0.052  -0.634254  0.023477  2.374311  0.039  -0.30645  -0.568329  0.039774  2.390036  0.065
O  O45  1  0.31400137  0.22294826  0.95756448  1  -0.62261  0.038732  2.100888  0.069  -0.597337  0.031525  2.38388  0.052  -0.63419  0.023476  2.374123  0.039  -0.306405  -0.568265  0.039774  2.389846  0.065
O  O46  1  0.22197670  0.65984265  0.48991469  1  -0.622867  0.035007  2.142374  0.063  -0.592143  0.025928  2.430787  0.042  -0.631319  0.01709  2.420557  0.027  -0.307707  -0.557635  0.037561  2.434454  0.061
O  O47  1  0.27802563  0.84015464  0.98991420  1  -0.622792  0.034999  2.14239  0.063  -0.592057  0.025921  2.430789  0.042  -0.631221  0.017088  2.420563  0.027  -0.307684  -0.55755  0.037553  2.434461  0.061
O  O48  1  0.77802493  0.34015627  0.51008528  1  -0.622939  0.035007  2.142318  0.063  -0.592233  0.025928  2.430758  0.042  -0.63141  0.017091  2.420531  0.027  -0.307784  -0.557725  0.03756  2.434429  0.061
O  O49  1  0.72197235  0.15985094  0.01008954  1  -0.622964  0.035005  2.142188  0.063  -0.592279  0.025924  2.430659  0.042  -0.631445  0.017089  2.420429  0.027  -0.307785  -0.557766  0.037558  2.434329  0.061
