# generated using pymatgen
data_Zn2H13C43Br10(NO5)2
_symmetry_space_group_name_H-M   'P 1'
_cell_length_a   16.57624872
_cell_length_b   17.75561570
_cell_length_c   28.68315872
_cell_angle_alpha   89.27466764
_cell_angle_beta   89.86102817
_cell_angle_gamma   90.58554492
_symmetry_Int_Tables_number   1
_chemical_formula_structural   Zn2H13C43Br10(NO5)2
_chemical_formula_sum   'Zn4 H26 C86 Br20 N4 O20'
_cell_volume   8440.92553039
_cell_formula_units_Z   2
loop_
 _symmetry_equiv_pos_site_id
 _symmetry_equiv_pos_as_xyz
  1  'x, y, z'
loop_
 _atom_site_type_symbol
 _atom_site_label
 _atom_site_symmetry_multiplicity
 _atom_site_fract_x
 _atom_site_fract_y
 _atom_site_fract_z
 _atom_site_occupancy
 _atom_site_pbe_bader_charge
 _atom_site_pbe_bader_spin_density
 _atom_site_pbe_cm5_charge
 _atom_site_pbe_ddec_charge
 _atom_site_pbe_ddec_spin_density
 _atom_site_pbe_ddec_sum_bond_order
 _atom_site_pbe_magmom
Zn  Zn0  1  0.58127496  0.50001376  0.50105885  1  1.289721  0  0.675148  0.821343  0  2.399452  0
Zn  Zn1  1  0.41112023  0.49651366  0.50173113  1  1.279209  0  0.674553  0.825993  0  2.428142  0
Zn  Zn2  1  0.41230380  0.50222190  0.88204462  1  1.278907  0  0.671875  0.824198  0  2.433113  0
Zn  Zn3  1  0.58312276  0.50560067  0.88126854  1  1.292862  0  0.674886  0.824438  0  2.39905  0
H  H4  1  0.28337354  0.56219520  0.55858206  1  0.158163  0  0.13065  0.122198  0  0.985295  0
H  H5  1  0.28237869  0.42018326  0.44481043  1  0.156492  0  0.132829  0.123647  0  0.970699  0
H  H6  1  0.71149070  0.56899314  0.55950422  1  0.164055  0  0.132923  0.123907  0  0.96968  0
H  H7  1  0.70688988  0.42298029  0.44761059  1  0.148844  0  0.131205  0.12262  0  0.97841  0
H  H8  1  0.62737093  0.73623149  0.47181112  1  0.084171  0  0.110066  0.132317  0  0.991092  0
H  H9  1  0.37188908  0.73231303  0.49749249  1  0.127832  0  0.108371  0.130115  0  0.996898  0
H  H10  1  0.63405491  0.25694296  0.53720416  1  0.153201  0  0.106902  0.127917  0  1.02299  0
H  H11  1  0.37879542  0.26275438  0.50944972  1  0.122002  0  0.108782  0.130499  0  0.995542  0
H  H12  1  0.61666676  0.44298293  0.77565087  1  0.110101  0  0.107961  0.123951  0  1.032755  0
H  H13  1  0.60409516  0.44321484  0.60323949  1  0.070132  0  0.102818  0.100108  0  1.093269  0
H  H14  1  0.39329865  0.60653345  0.64802353  1  0.070256  0  0.108558  0.111577  0  0.985048  0
H  H15  1  0.39664171  0.60557004  0.73506346  1  0.096834  0  0.109613  0.113688  0  0.982217  0
H  H16  1  0.37876630  0.50898217  0.02895244  1  0.121211  0  0.110171  0.132187  0  0.994384  0
H  H17  1  0.63218498  0.46070498  0.02791246  1  0.112534  0  0.108537  0.127409  0  1.001141  0
H  H18  1  0.37322770  0.49231664  0.35508353  1  0.108738  0  0.108581  0.128998  0  0.999817  0
H  H19  1  0.62893528  0.45450768  0.35789203  1  0.100337  0  0.10737  0.125573  0  1.001058  0
H  H20  1  0.71193283  0.55629889  0.81323388  1  0.147593  0  0.131262  0.121954  0  0.97968  0
H  H21  1  0.71020979  0.44054690  0.93983517  1  0.149816  0  0.1291  0.12161  0  0.987723  0
H  H22  1  0.28453333  0.58700339  0.83396712  1  0.141755  0  0.131078  0.120446  0  0.974424  0
H  H23  1  0.28322549  0.40747479  0.92803381  1  0.146435  0  0.13386  0.123799  0  0.963846  0
H  H24  1  0.36981320  0.73779189  0.87750526  1  0.130813  0  0.107161  0.128154  0  1.001312  0
H  H25  1  0.62465816  0.74296986  0.90424934  1  0.143628  0  0.11087  0.133384  0  0.989678  0
H  H26  1  0.36950319  0.26618340  0.86731084  1  0.110914  0  0.107957  0.129421  0  0.999375  0
H  H27  1  0.62705558  0.27025000  0.84893569  1  0.127595  0  0.11075  0.135542  0  0.993943  0
H  H28  1  0.67334650  0.26433581  0.72775894  1  0.601719  0  0.341792  0.375943  0  0.862622  0
H  H29  1  0.65798835  0.36400471  0.57805441  1  0.660739  0  0.304189  0.353848  0  0.959752  0
C  C30  1  0.49864725  0.64168869  0.48324745  1  1.585805  0  0.215754  0.595069  0  4.164302  0
C  C31  1  0.48846116  0.53053162  0.58932047  1  1.538528  0  0.219994  0.604015  0  4.156777  0
C  C32  1  0.50669584  0.35335955  0.52354815  1  1.497855  0  0.218405  0.597514  0  4.151274  0
C  C33  1  0.49645212  0.46826431  0.41380309  1  1.586488  0  0.220825  0.59876  0  4.153201  0
C  C34  1  0.49621319  0.64792186  0.89429486  1  1.562594  0  0.216653  0.593836  0  4.163955  0
C  C35  1  0.49542934  0.53120872  0.79205714  1  1.535513  0  0.217807  0.599137  0  4.174789  0
C  C36  1  0.49714917  0.36047517  0.86371635  1  1.547229  0  0.216492  0.593253  0  4.167169  0
C  C37  1  0.50239915  0.48069590  0.97113560  1  1.611926  0  0.218267  0.594252  0  4.162899  0
C  C38  1  0.24697670  0.53091743  0.53371859  1  0.609499  0  0.052413  0.039898  0  3.90387  0
C  C39  1  0.16315720  0.53111113  0.53527110  1  -0.097744  0  0.002444  0.043403  0  3.910176  0
C  C40  1  0.11749782  0.48858877  0.50296459  1  0.16784  0  0.012222  0.077786  0  4.059957  0
C  C41  1  0.16258115  0.44754663  0.46991741  1  -0.030601  0  0.001901  0.040201  0  3.91529  0
C  C42  1  0.24650211  0.45052134  0.47017696  1  0.488766  0  0.05259  0.037388  0  3.909962  0
C  C43  1  0.03266941  0.48776156  0.50367806  1  0.006261  0  -0.02663  -0.056028  0  4.081879  0
C  C44  1  0.95908162  0.48833163  0.50465520  1  -0.227171  0  -0.023679  -0.049888  0  4.074316  0
C  C45  1  0.87425949  0.49002620  0.50481972  1  0.146561  0  0.01405  0.079378  0  4.050508  0
C  C46  1  0.83029908  0.53369319  0.53703758  1  -0.022092  0  0.004694  0.046517  0  3.906852  0
C  C47  1  0.74650681  0.53580334  0.53513876  1  0.522886  0  0.05146  0.034715  0  3.912202  0
C  C48  1  0.74399893  0.45361252  0.47245870  1  0.586672  0  0.053223  0.041249  0  3.901031  0
C  C49  1  0.82766810  0.44893008  0.47223541  1  -0.084405  0  0.004588  0.046149  0  3.907169  0
C  C50  1  0.49952322  0.72613352  0.48447106  1  -0.018466  0  -0.010201  0.00733  0  3.952772  0
C  C51  1  0.57207392  0.76639477  0.47918825  1  0.122855  0  -0.090251  -0.154495  0  3.969351  0
C  C52  1  0.57274291  0.84407360  0.48418473  1  -0.119177  0  -0.005389  0.088584  0  3.913089  0
C  C53  1  0.50178693  0.88488275  0.49469221  1  0.175004  0  -0.006471  0.045817  0  4.065776  0
C  C54  1  0.42925771  0.84191380  0.49853640  1  -0.107469  0  -0.005871  0.0885  0  3.916624  0
C  C55  1  0.42786154  0.76431227  0.49362754  1  -0.023956  0  -0.092301  -0.155827  0  3.976301  0
C  C56  1  0.50314761  0.96328659  0.50165088  1  -0.373117  0  -0.041946  -0.068176  0  4.116707  0
C  C57  1  0.50370441  0.03106990  0.50849390  1  0.141088  0  -0.043251  -0.071508  0  4.118161  0
C  C58  1  0.50407803  0.10956320  0.51509179  1  0.194976  0  -0.005231  0.047224  0  4.066404  0
C  C59  1  0.57581569  0.15018090  0.52585787  1  -0.106145  0  -0.005387  0.088484  0  3.909044  0
C  C60  1  0.57739107  0.22811184  0.52981697  1  -0.027516  0  -0.093284  -0.158672  0  3.966971  0
C  C61  1  0.50622853  0.26888316  0.52349971  1  0.018118  0  -0.014449  -0.002193  0  3.961105  0
C  C62  1  0.43374569  0.23067001  0.51424165  1  0.092601  0  -0.091301  -0.151699  0  3.971228  0
C  C63  1  0.43296229  0.15294678  0.51021747  1  -0.109133  0  -0.005773  0.088158  0  3.914805  0
C  C64  1  0.49798421  0.53247275  0.73978718  1  0.05954  0  -0.003151  -0.054647  0  3.91329  0
C  C65  1  0.55566487  0.48890521  0.71509539  1  0.046789  0  0.005944  0.071639  0  3.943887  0
C  C66  1  0.44092814  0.57367009  0.71552475  1  -0.061395  0  -0.077374  -0.089023  0  3.987855  0
C  C67  1  0.61392143  0.44325273  0.73776971  1  0.002427  0  -0.081656  -0.141952  0  3.92239  0
C  C68  1  0.66713980  0.39913804  0.71331902  1  -0.050596  0  -0.011629  -0.06512  0  3.99027  0
C  C69  1  0.49401689  0.53294865  0.64134189  1  0.043764  0  -0.006408  -0.059738  0  3.926379  0
C  C70  1  0.43891372  0.57409462  0.66652411  1  -0.00018  0  -0.080577  -0.093918  0  3.998496  0
C  C71  1  0.55306046  0.48894482  0.66515763  1  -0.050199  0  0.001575  0.066711  0  3.952415  0
C  C72  1  0.60718252  0.44210421  0.64104040  1  0.011793  0  -0.087193  -0.142954  0  3.965811  0
C  C73  1  0.66311736  0.39757966  0.66356056  1  -0.086817  0  -0.024611  -0.088781  0  4.037346  0
C  C74  1  0.50494800  0.48329044  0.02337911  1  -0.046385  0  -0.008255  0.011878  0  3.950648  0
C  C75  1  0.43442402  0.49943385  0.04805016  1  0.025848  0  -0.090594  -0.155284  0  3.973872  0
C  C76  1  0.43636018  0.50376266  0.09625813  1  -0.097738  0  -0.005459  0.089913  0  3.915871  0
C  C77  1  0.50812121  0.49145428  0.12217890  1  0.218131  0  -0.006065  0.044276  0  4.064187  0
C  C78  1  0.57855076  0.47636978  0.09562850  1  -0.081122  0  -0.005139  0.089573  0  3.911809  0
C  C79  1  0.57734907  0.47221188  0.04734796  1  0.029263  0  -0.090485  -0.154952  0  3.974606  0
C  C80  1  0.50882778  0.49235372  0.17127557  1  -0.480693  0  -0.040887  -0.064616  0  4.112246  0
C  C81  1  0.50840126  0.49027158  0.21389863  1  0.195179  0  -0.044708  -0.074561  0  4.116757  0
C  C82  1  0.50619938  0.48522715  0.26291615  1  0.153117  0  -0.004381  0.049217  0  4.062336  0
C  C83  1  0.43301462  0.49267212  0.28832746  1  -0.095328  0  -0.005926  0.088814  0  3.915553  0
C  C84  1  0.42991130  0.48579102  0.33648138  1  0.072265  0  -0.091663  -0.154677  0  3.977702  0
C  C85  1  0.50045562  0.47158204  0.36168732  1  -0.010823  0  -0.011594  0.003287  0  3.960161  0
C  C86  1  0.57402330  0.46452609  0.33818649  1  0.019334  0  -0.091065  -0.152744  0  3.973015  0
C  C87  1  0.57646215  0.47135454  0.28992867  1  -0.099472  0  -0.005583  0.087852  0  3.909293  0
C  C88  1  0.74755569  0.52914149  0.84039126  1  0.579151  0  0.056333  0.046326  0  3.893095  0
C  C89  1  0.83122877  0.52513383  0.83746874  1  -0.071991  0  0.01013  0.059153  0  3.892766  0
C  C90  1  0.87578466  0.48905836  0.87326888  1  0.239893  0  0.014347  0.076803  0  4.048364  0
C  C91  1  0.83008695  0.45707739  0.91051927  1  -0.058779  0  0.002926  0.045952  0  3.909176  0
C  C92  1  0.74665724  0.46366924  0.91131367  1  0.528089  0  0.049745  0.033958  0  3.909723  0
C  C93  1  0.96065375  0.48685964  0.87284096  1  -0.403622  0  -0.021416  -0.042738  0  4.072912  0
C  C94  1  0.03419586  0.48711708  0.87416529  1  0.189251  0  -0.031  -0.063736  0  4.087754  0
C  C95  1  0.11893364  0.48991211  0.87624134  1  0.155032  0  0.012053  0.079361  0  4.062168  0
C  C96  1  0.16459450  0.54375936  0.85016686  1  -0.084726  0  0.001004  0.041234  0  3.911006  0
C  C97  1  0.24822535  0.54614628  0.85365471  1  0.549224  0  0.052203  0.039692  0  3.91172  0
C  C98  1  0.24755468  0.44545179  0.90643700  1  0.598205  0  0.053328  0.038782  0  3.908063  0
C  C99  1  0.16378679  0.44002582  0.90489699  1  -0.115666  0  0.001366  0.039514  0  3.913865  0
C  C100  1  0.49711066  0.73229315  0.89125847  1  -0.000882  0  -0.010401  0.009262  0  3.954771  0
C  C101  1  0.42553953  0.77004506  0.88095048  1  0.06222  0  -0.093295  -0.158162  0  3.983633  0
C  C102  1  0.42668675  0.84752963  0.87447449  1  -0.103854  0  -0.007174  0.088407  0  3.919527  0
C  C103  1  0.49876457  0.89096776  0.87814416  1  0.205942  0  -0.007502  0.044094  0  4.069664  0
C  C104  1  0.56971973  0.85052572  0.88967003  1  -0.140425  0  -0.004998  0.089417  0  3.910789  0
C  C105  1  0.56936923  0.77287609  0.89607666  1  0.008695  0  -0.090547  -0.155272  0  3.967857  0
C  C106  1  0.49969952  0.96950263  0.87065609  1  -0.468743  0  -0.044175  -0.07038  0  4.121448  0
C  C107  1  0.50002474  0.03767440  0.86430659  1  0.176122  0  -0.043882  -0.072058  0  4.123469  0
C  C108  1  0.49920865  0.11672793  0.85989120  1  0.169622  0  -0.007552  0.044444  0  4.07199  0
C  C109  1  0.42641294  0.15782344  0.86336298  1  -0.055562  0  -0.007553  0.088172  0  3.92127  0
C  C110  1  0.42575197  0.23586113  0.86340431  1  0.021228  0  -0.093548  -0.157635  0  3.983546  0
C  C111  1  0.49826670  0.27644253  0.85923467  1  0.024839  0  -0.011732  0.004601  0  3.961433  0
C  C112  1  0.57105411  0.23837237  0.85320167  1  0.022424  0  -0.092017  -0.158777  0  3.972617  0
C  C113  1  0.57103284  0.16012586  0.85355124  1  -0.113525  0  -0.006803  0.084655  0  3.91671  0
C  C114  1  0.72759638  0.35725356  0.74285118  1  1.570248  0  0.233569  0.593375  0  4.117629  0
C  C115  1  0.72178718  0.35198102  0.63642753  1  1.512091  0  0.218311  0.559912  0  4.142217  0
Br  Br116  1  0.11063115  0.38839630  0.42478815  1  0.017954  0  0.065358  -0.015626  0  1.40287  0
Br  Br117  1  0.11238756  0.58902829  0.58111916  1  0.010801  0  0.062772  -0.019532  0  1.413252  0
Br  Br118  1  0.87704916  0.38753350  0.42770244  1  0.018266  0  0.067539  -0.013461  0  1.403425  0
Br  Br119  1  0.88330315  0.59028459  0.58294490  1  0.016849  0  0.067601  -0.01207  0  1.412178  0
Br  Br120  1  0.33090256  0.89081233  0.51206645  1  -0.052554  0  0.01569  -0.070792  0  1.404307  0
Br  Br121  1  0.67215420  0.89685501  0.47715892  1  -0.04894  0  0.017379  -0.069585  0  1.387198  0
Br  Br122  1  0.33368017  0.10443674  0.49624873  1  -0.043269  0  0.018286  -0.067376  0  1.403703  0
Br  Br123  1  0.67333893  0.09719247  0.53464635  1  -0.036776  0  0.026423  -0.054687  0  1.388609  0
Br  Br124  1  0.67814569  0.46143078  0.12660884  1  -0.046985  0  0.015664  -0.070978  0  1.406171  0
Br  Br125  1  0.33932643  0.52732624  0.12768243  1  -0.049221  0  0.016996  -0.069167  0  1.422197  0
Br  Br126  1  0.67758226  0.46249270  0.25959988  1  -0.047121  0  0.017286  -0.069028  0  1.406665  0
Br  Br127  1  0.33575775  0.51310094  0.25628184  1  -0.046681  0  0.018626  -0.067772  0  1.42686  0
Br  Br128  1  0.88065882  0.40654325  0.96047748  1  0.001952  0  0.057279  -0.026075  0  1.39391  0
Br  Br129  1  0.88343702  0.56881112  0.78542714  1  0.015385  0  0.064491  -0.015324  0  1.416756  0
Br  Br130  1  0.11163990  0.36514634  0.94136354  1  0.012176  0  0.062701  -0.017921  0  1.393489  0
Br  Br131  1  0.11347696  0.61394264  0.81060820  1  0.001976  0  0.056557  -0.026972  0  1.396157  0
Br  Br132  1  0.66873597  0.90379750  0.89620038  1  -0.049432  0  0.015891  -0.071347  0  1.389428  0
Br  Br133  1  0.32838891  0.89554547  0.85914483  1  -0.051448  0  0.012732  -0.074091  0  1.415179  0
Br  Br134  1  0.67065831  0.11020625  0.84592609  1  -0.039023  0  0.023747  -0.057586  0  1.400834  0
Br  Br135  1  0.32652002  0.10580769  0.86966056  1  -0.049268  0  0.015026  -0.070843  0  1.418983  0
N  N136  1  0.28705003  0.49138437  0.50165447  1  -1.220291  0  -0.30939  -0.1558  0  3.525314  0
N  N137  1  0.70510596  0.49672607  0.50319451  1  -1.248586  0  -0.312584  -0.161275  0  3.542577  0
N  N138  1  0.70701013  0.49964902  0.87696580  1  -1.230701  0  -0.309111  -0.159044  0  3.525589  0
N  N139  1  0.28809890  0.49774931  0.88130507  1  -1.209833  0  -0.309677  -0.155432  0  3.52626  0
O  O140  1  0.56576925  0.60884249  0.47706033  1  -1.164966  0  -0.32182  -0.544081  0  2.288411  0
O  O141  1  0.43056139  0.60929906  0.48989200  1  -1.163397  0  -0.317845  -0.545875  0  2.325423  0
O  O142  1  0.41894044  0.51863322  0.57219146  1  -1.159295  0  -0.310094  -0.537368  0  2.306847  0
O  O143  1  0.55392563  0.53858103  0.56612091  1  -1.172223  0  -0.316827  -0.554459  0  2.355473  0
O  O144  1  0.44014030  0.38532939  0.51486753  1  -1.160678  0  -0.310005  -0.537169  0  2.332566  0
O  O145  1  0.57382320  0.38803172  0.53069897  1  -1.183605  0  -0.316106  -0.571516  0  2.313164  0
O  O146  1  0.56242439  0.45898433  0.43606079  1  -1.173107  0  -0.318522  -0.550099  0  2.324472  0
O  O147  1  0.42726164  0.47675866  0.43219072  1  -1.165721  0  -0.312115  -0.539254  0  2.334724  0
O  O148  1  0.42798166  0.61575214  0.88836221  1  -1.163901  0  -0.318184  -0.545626  0  2.333709  0
O  O149  1  0.56314781  0.61510260  0.90120284  1  -1.163372  0  -0.318649  -0.541506  0  2.293807  0
O  O150  1  0.56182463  0.54115619  0.81353854  1  -1.168246  0  -0.313726  -0.550574  0  2.337207  0
O  O151  1  0.42669346  0.51923327  0.81051878  1  -1.149711  0  -0.31337  -0.54373  0  2.301721  0
O  O152  1  0.56380307  0.39606141  0.85888276  1  -1.166142  0  -0.315581  -0.547798  0  2.315785  0
O  O153  1  0.42921705  0.38965257  0.87311944  1  -1.163567  0  -0.316509  -0.543303  0  2.334097  0
O  O154  1  0.43360013  0.48895580  0.95232938  1  -1.162957  0  -0.313737  -0.541034  0  2.321443  0
O  O155  1  0.56908150  0.47168422  0.94971251  1  -1.164901  0  -0.316267  -0.546929  0  2.316722  0
O  O156  1  0.71575203  0.28182319  0.74869156  1  -1.086914  0  -0.333445  -0.471767  0  2.229525  0
O  O157  1  0.77952922  0.38967669  0.76508394  1  -1.127783  0  -0.286859  -0.461767  0  2.079545  0
O  O158  1  0.70980872  0.34425546  0.58976071  1  -1.166102  0  -0.351284  -0.48803  0  2.266271  0
O  O159  1  0.78042950  0.32284710  0.65466263  1  -1.108529  0  -0.283355  -0.449792  0  2.068152  0
