# generated using pymatgen
data_CoH18C21N2O5
_symmetry_space_group_name_H-M   'P 1'
_cell_length_a   9.33947225
_cell_length_b   10.19850262
_cell_length_c   11.43130932
_cell_angle_alpha   74.04506660
_cell_angle_beta   80.08674710
_cell_angle_gamma   64.76584864
_symmetry_Int_Tables_number   1
_chemical_formula_structural   CoH18C21N2O5
_chemical_formula_sum   'Co2 H36 C42 N4 O10'
_cell_volume   945.08019208
_cell_formula_units_Z   2
loop_
 _symmetry_equiv_pos_site_id
 _symmetry_equiv_pos_as_xyz
  1  'x, y, z'
loop_
 _atom_site_type_symbol
 _atom_site_label
 _atom_site_symmetry_multiplicity
 _atom_site_fract_x
 _atom_site_fract_y
 _atom_site_fract_z
 _atom_site_occupancy
 _atom_site_pbe_cm5_charge
 _atom_site_pbe_ddec_charge
 _atom_site_pbe_ddec_spin_density
 _atom_site_pbe_ddec_sum_bond_order
 _atom_site_pbe_magmom
Co  Co0  1  0.45624245  0.37230530  0.38466348  1  0.668246  0.86573  2.82402  2.489879  2.571
Co  Co1  1  0.54375664  0.62769404  0.61533745  1  0.668241  0.865757  2.824027  2.489919  2.571
H  H2  1  0.57251158  0.07822852  0.57593281  1  0.107241  0.120528  -0.000207  1.052414  0.0
H  H3  1  0.42748781  0.92176749  0.42406976  1  0.107268  0.120548  -0.000207  1.052378  0.0
H  H4  1  0.66720158  0.78476107  0.93258078  1  0.107063  0.118047  9.4e-05  1.020536  0.0
H  H5  1  0.33279167  0.21523941  0.06742599  1  0.107049  0.118029  9.4e-05  1.020587  0.0
H  H6  1  0.69019346  0.21423120  0.85751382  1  0.102128  0.107914  0.000145  1.073947  0.0
H  H7  1  0.30980767  0.78576588  0.14248911  1  0.10214  0.10794  0.000145  1.073939  0.0
H  H8  1  0.84195016  0.08240464  0.03202165  1  0.090163  0.084824  -4e-06  1.0256  0.0
H  H9  1  0.15805423  0.91759242  0.96797905  1  0.090167  0.084813  -4e-06  1.025625  0.0
H  H10  1  0.74221308  0.02450150  0.17264159  1  0.103573  0.109987  -6.2e-05  1.028172  0.0
H  H11  1  0.25779168  0.97549996  0.82735974  1  0.103568  0.109975  -6.2e-05  1.028195  0.0
H  H12  1  0.63156160  0.17646339  0.05746091  1  0.096837  0.099332  -9.3e-05  1.005787  0.0
H  H13  1  0.36844428  0.82353803  0.94254201  1  0.096855  0.099335  -9.3e-05  1.005823  0.0
H  H14  1  0.47536114  0.55792098  0.13428110  1  0.112384  0.076944  0.00059  1.042771  0.001
H  H15  1  0.52464077  0.44207943  0.86571916  1  0.112372  0.076931  0.00059  1.042778  0.001
H  H16  1  0.66655984  0.55783602  0.95120682  1  0.104406  0.119686  0.000372  1.045428  0.0
H  H17  1  0.33344024  0.44216884  0.04879264  1  0.104409  0.119695  0.000372  1.045422  0.0
H  H18  1  0.01982802  0.17956249  0.16796428  1  0.101466  0.110873  0.000356  1.033025  0.0
H  H19  1  0.98017129  0.82042811  0.83202736  1  0.101512  0.11092  0.000356  1.033034  0.0
H  H20  1  0.81140245  0.19275425  0.34000838  1  0.121303  0.094799  0.000353  0.973152  0.001
H  H21  1  0.18860043  0.80723844  0.65998923  1  0.121295  0.094775  0.000353  0.973097  0.001
H  H22  1  0.09684524  0.28765447  0.96140310  1  0.092986  0.094552  -0.0  1.032844  0.0
H  H23  1  0.90315627  0.71234155  0.03859478  1  0.092996  0.09457  -0.0  1.032858  0.0
H  H24  1  0.98013766  0.47894829  0.90675151  1  0.097593  0.101231  -0.000391  1.008603  0.0
H  H25  1  0.01986824  0.52104767  0.09324662  1  0.097568  0.101207  -0.000391  1.008611  0.0
H  H26  1  0.93654086  0.22085342  0.85128717  1  0.088666  0.08484  2.9e-05  1.008174  0.0
H  H27  1  0.06346534  0.77914698  0.14870721  1  0.088659  0.084792  2.9e-05  1.008228  0.0
H  H28  1  0.81361277  0.41195547  0.80254609  1  0.103026  0.122212  -0.000494  1.014474  0.0
H  H29  1  0.18638614  0.58804167  0.19745453  1  0.103012  0.122172  -0.000493  1.014522  0.0
H  H30  1  0.21805403  0.57559668  0.53993939  1  0.113016  0.084753  0.000289  1.049206  0.001
H  H31  1  0.78194152  0.42441379  0.46005762  1  0.113047  0.084809  0.000289  1.049205  0.001
H  H32  1  0.01602706  0.57125694  0.71111076  1  0.103797  0.112614  0.000276  1.019022  0.0
H  H33  1  0.98396723  0.42875134  0.28888697  1  0.103817  0.112645  0.000276  1.018932  0.0
H  H34  1  0.10423025  0.12925211  0.68427945  1  0.104586  0.110004  0.000376  1.008502  0.0
H  H35  1  0.89576892  0.87075496  0.31572048  1  0.104527  0.109904  0.000376  1.008537  0.0
H  H36  1  0.30285273  0.15027789  0.51550230  1  0.115729  0.088889  0.000386  1.029645  0.001
H  H37  1  0.69715597  0.84972461  0.48449995  1  0.115731  0.088914  0.000386  1.029621  0.001
C  C38  1  0.63221037  0.15936205  0.70852755  1  -0.019553  -0.006534  0.004457  3.994596  0.007
C  C39  1  0.36779121  0.84063393  0.29147470  1  -0.019596  -0.006598  0.004457  3.994699  0.007
C  C40  1  0.60337949  0.05524079  0.66915916  1  -0.090365  -0.143527  -0.001179  3.928653  0.0
C  C41  1  0.39662239  0.94475186  0.33084473  1  -0.090387  -0.143534  -0.00118  3.928501  0.0
C  C42  1  0.61632202  0.92007483  0.74992681  1  -0.016998  -0.002192  0.001479  4.000846  0.002
C  C43  1  0.38367277  0.07992453  0.25007913  1  -0.016972  -0.002228  0.001479  4.000823  0.002
C  C44  1  0.65673763  0.88964906  0.86930143  1  -0.094058  -0.21163  -0.001894  3.949819  -0.001
C  C45  1  0.34325718  0.11035028  0.13070539  1  -0.094062  -0.211573  -0.001895  3.949942  -0.001
C  C46  1  0.67925981  0.99690824  0.90995853  1  0.07856  0.246103  0.000422  4.080354  0.001
C  C47  1  0.32074089  0.00308994  0.09004595  1  0.078475  0.246003  0.000422  4.080433  0.001
C  C48  1  0.66942292  0.13074909  0.82934333  1  -0.107895  -0.242901  -0.001431  3.97471  -0.001
C  C49  1  0.33057660  0.86924915  0.17065606  1  -0.10789  -0.242934  -0.001431  3.974725  -0.001
C  C50  1  0.62110142  0.30319529  0.62237764  1  0.221694  0.590737  0.000125  4.136496  0.004
C  C51  1  0.37890100  0.69679852  0.37761977  1  0.22179  0.590798  0.000123  4.136618  0.004
C  C52  1  0.58624847  0.80906810  0.70670912  1  0.194984  0.539441  -0.00615  4.224158  -0.006
C  C53  1  0.41374383  0.19093461  0.29329551  1  0.195  0.539477  -0.00615  4.224204  -0.006
C  C54  1  0.73298031  0.06785403  0.07433438  1  -0.144717  -0.179232  -0.000165  3.922864  0.0
C  C55  1  0.26702473  0.93214410  0.92566772  1  -0.1447  -0.179173  -0.000165  3.922848  0.0
C  C56  1  0.59702735  0.47529255  0.13699623  1  0.040519  0.093445  -0.006877  3.967282  -0.004
C  C57  1  0.40297502  0.52470675  0.86300423  1  0.040514  0.093444  -0.006878  3.967272  -0.004
C  C58  1  0.70377963  0.47520383  0.03629662  1  -0.091459  -0.196954  0.002571  3.939413  0.004
C  C59  1  0.29622198  0.52479991  0.96370200  1  -0.091472  -0.197019  0.002571  3.939454  0.004
C  C60  1  0.86018474  0.36804765  0.04391994  1  0.009053  0.163779  -0.011508  3.948046  -0.007
C  C61  1  0.13981584  0.63195061  0.95607666  1  0.009081  0.163927  -0.011509  3.947856  -0.007
C  C62  1  0.89965440  0.26487829  0.15560943  1  -0.090172  -0.197985  0.002317  3.950495  0.004
C  C63  1  0.10034503  0.73512002  0.84438383  1  -0.090289  -0.198153  0.002318  3.95045  0.004
C  C64  1  0.78479480  0.27176614  0.25212673  1  0.049035  0.101879  -0.009276  3.949077  -0.005
C  C65  1  0.21520887  0.72822987  0.74786908  1  0.049141  0.10203  -0.009276  3.949015  -0.005
C  C66  1  0.97737395  0.36790657  0.93595086  1  -0.160388  -0.201983  -0.000598  3.928696  0.0
C  C67  1  0.02262773  0.63209167  0.06404646  1  -0.160386  -0.202038  -0.000598  3.92867  0.0
C  C68  1  0.93458836  0.33363373  0.82659139  1  -0.156326  -0.195576  -0.000927  3.904847  0.0
C  C69  1  0.06541199  0.66636781  0.17340795  1  -0.156267  -0.195388  -0.000927  3.904762  0.0
C  C70  1  0.18837547  0.47898476  0.57387505  1  0.042473  0.098213  -0.005647  3.947875  -0.003
C  C71  1  0.81161931  0.52102238  0.42612463  1  0.042433  0.098167  -0.005647  3.947721  -0.003
C  C72  1  0.07723380  0.47462143  0.67095115  1  -0.086529  -0.177012  0.001916  3.921781  0.003
C  C73  1  0.92276535  0.52538566  0.32904790  1  -0.086553  -0.177009  0.001915  3.921535  0.003
C  C74  1  0.04574564  0.34664041  0.71655421  1  0.016668  0.185033  -0.008238  3.91582  -0.005
C  C75  1  0.95425288  0.65336558  0.28344520  1  0.016639  0.184946  -0.008236  3.915928  -0.005
C  C76  1  0.12540812  0.23102232  0.65563308  1  -0.08887  -0.189506  0.002229  3.950336  0.004
C  C77  1  0.87459212  0.76898476  0.34436494  1  -0.088789  -0.189378  0.002228  3.950411  0.004
C  C78  1  0.23548068  0.24312461  0.55911415  1  0.0426  0.097624  -0.005903  3.958398  -0.004
C  C79  1  0.76452333  0.75688129  0.44088622  1  0.042578  0.097611  -0.005901  3.958464  -0.004
N  N80  1  0.63507319  0.37521638  0.24393623  1  -0.327981  -0.249471  0.026899  3.580312  0.046
N  N81  1  0.36492743  0.62478185  0.75606299  1  -0.328014  -0.249521  0.026901  3.580393  0.046
N  N82  1  0.26957217  0.36450197  0.51864171  1  -0.328257  -0.268412  0.02559  3.582476  0.045
N  N83  1  0.73043142  0.63550502  0.48136021  1  -0.328247  -0.26848  0.025589  3.582416  0.045
O  O84  1  0.60420635  0.31923076  0.51008972  1  -0.31531  -0.566378  0.046676  2.478951  0.075
O  O85  1  0.39580491  0.68075740  0.48990687  1  -0.31538  -0.566444  0.046677  2.478976  0.075
O  O86  1  0.63436975  0.40075146  0.66441149  1  -0.30397  -0.542801  0.044856  2.401445  0.071
O  O87  1  0.36562596  0.59924799  0.33558379  1  -0.303968  -0.542724  0.044854  2.401547  0.071
O  O88  1  0.48160278  0.85547651  0.62939521  1  -0.308597  -0.542202  0.038705  2.243535  0.065
O  O89  1  0.51839295  0.14452839  0.37060662  1  -0.308581  -0.542204  0.038706  2.243544  0.065
O  O90  1  0.66668537  0.66984441  0.74477479  1  -0.311644  -0.550825  0.035378  2.220773  0.058
O  O91  1  0.33330125  0.33015620  0.25522856  1  -0.31165  -0.550797  0.035375  2.220784  0.058
O  O92  1  0.71043776  0.96059349  0.02994130  1  -0.186687  -0.158926  0.000141  2.581342  0.0
O  O93  1  0.28956246  0.03940581  0.97006210  1  -0.186699  -0.158908  0.000141  2.581301  0.0
