# generated using pymatgen
data_Zr3H8(CO2)8
_symmetry_space_group_name_H-M   'P 1'
_cell_length_a   11.80149530
_cell_length_b   13.44278885
_cell_length_c   19.30317034
_cell_angle_alpha   90.64059769
_cell_angle_beta   89.99647441
_cell_angle_gamma   90.01114620
_symmetry_Int_Tables_number   1
_chemical_formula_structural   Zr3H8(CO2)8
_chemical_formula_sum   'Zr12 H32 C32 O64'
_cell_volume   3062.16017493
_cell_formula_units_Z   4
loop_
 _symmetry_equiv_pos_site_id
 _symmetry_equiv_pos_as_xyz
  1  'x, y, z'
loop_
 _atom_site_type_symbol
 _atom_site_label
 _atom_site_symmetry_multiplicity
 _atom_site_fract_x
 _atom_site_fract_y
 _atom_site_fract_z
 _atom_site_occupancy
 _atom_site_pbe_bader_charge
 _atom_site_pbe_bader_spin_density
 _atom_site_pbe_cm5_charge
 _atom_site_pbe_ddec_charge
 _atom_site_pbe_ddec_spin_density
 _atom_site_pbe_ddec_sum_bond_order
 _atom_site_pbe_magmom
Zr  Zr0  1  0.86044703  0.13552606  0.00855530  1  2.616252  0  1.568995  2.368657  0  2.775915  0
Zr  Zr1  1  0.15969895  0.12437332  0.00342820  1  2.630275  0  1.57425  2.38802  0  2.740807  0
Zr  Zr2  1  0.83703560  0.87247962  0.00692884  1  2.604949  0  1.558969  2.36053  0  2.852854  0
Zr  Zr3  1  0.14051793  0.86249308  0.99716100  1  2.599781  0  1.576528  2.371971  0  2.8767  0
Zr  Zr4  1  0.99122628  0.99794598  0.87490969  1  2.637492  0  1.61385  2.354089  0  2.796676  0
Zr  Zr5  1  0.00658153  0.99339918  0.13458651  1  2.632128  0  1.614864  2.367247  0  2.767191  0
Zr  Zr6  1  0.36061833  0.35425138  0.50145122  1  2.615915  0  1.568187  2.368203  0  2.775103  0
Zr  Zr7  1  0.65978257  0.36549373  0.50644579  1  2.63016  0  1.573878  2.387841  0  2.741152  0
Zr  Zr8  1  0.33732889  0.61736913  0.50337892  1  2.603182  0  1.558466  2.361164  0  2.851618  0
Zr  Zr9  1  0.64078789  0.62736470  0.51311186  1  2.600812  0  1.576387  2.372004  0  2.875399  0
Zr  Zr10  1  0.49145422  0.49163263  0.63526502  1  2.637282  0  1.613679  2.354402  0  2.795641  0
Zr  Zr11  1  0.50652526  0.49668395  0.37550650  1  2.631548  0  1.614549  2.36686  0  2.767487  0
H  H12  1  0.00649875  0.20755270  0.10740655  1  0.61538  0  0.330605  0.422863  0  0.859131  0
H  H13  1  0.23431840  0.99215491  0.89641738  1  0.632391  0  0.331797  0.426722  0  0.860762  0
H  H14  1  0.01373117  0.78182501  0.09871079  1  0.600347  0  0.328572  0.439554  0  0.845623  0
H  H15  1  0.74443631  0.00451038  0.91477468  1  0.627649  0  0.33141  0.437867  0  0.844141  0
H  H16  1  0.37237759  0.11741174  0.95704219  1  0.594909  0  0.296817  0.390518  0  0.911844  0
H  H17  1  0.34014052  0.97386298  0.01153623  1  0.623466  0  0.290356  0.404572  0  0.923169  0
H  H18  1  0.23725536  0.68568696  0.02800260  1  0.608716  0  0.312311  0.423682  0  0.858441  0
H  H19  1  0.79073244  0.67467974  0.04261082  1  0.654462  0  0.344236  0.431641  0  0.847577  0
H  H20  1  0.61346271  0.87237117  0.03368069  1  0.613145  0  0.302711  0.418557  0  0.870628  0
H  H21  1  0.64378530  0.20671486  0.97003508  1  0.652188  0  0.346301  0.434183  0  0.844661  0
H  H22  1  0.87026858  0.32704152  0.97516512  1  0.575755  0  0.29938  0.394554  0  0.905613  0
H  H23  1  0.02847995  0.29795571  0.00684923  1  0.629572  0  0.283127  0.408354  0  0.931346  0
H  H24  1  0.80263863  0.68197874  0.96069180  1  0.669218  0  0.335095  0.426492  0  0.864126  0
H  H25  1  0.64078796  0.18483564  0.05120842  1  0.668081  0  0.348507  0.44427  0  0.832551  0
H  H26  1  0.15169781  0.32819687  0.04159108  1  0.643608  0  0.336286  0.421393  0  0.857006  0
H  H27  1  0.32832729  0.89530042  0.07153492  1  0.638792  0  0.302856  0.407823  0  0.918889  0
H  H28  1  0.50648771  0.28239899  0.40250815  1  0.608718  0  0.330728  0.423299  0  0.858428  0
H  H29  1  0.73454331  0.49737606  0.61367906  1  0.585318  0  0.332026  0.42726  0  0.860299  0
H  H30  1  0.51376530  0.70830562  0.41172783  1  0.599509  0  0.328789  0.439677  0  0.846064  0
H  H31  1  0.24480162  0.48516821  0.59552051  1  0.629887  0  0.331442  0.438139  0  0.843497  0
H  H32  1  0.87243475  0.37214998  0.55278259  1  0.587526  0  0.296858  0.390429  0  0.911844  0
H  H33  1  0.84029950  0.51594252  0.49848327  1  0.621491  0  0.290366  0.404212  0  0.923826  0
H  H34  1  0.73744035  0.80446722  0.48277273  1  0.610715  0  0.31226  0.423605  0  0.858498  0
H  H35  1  0.29061077  0.81514642  0.46795924  1  0.657684  0  0.344187  0.431502  0  0.847748  0
H  H36  1  0.11374065  0.61775908  0.47685934  1  0.61555  0  0.302839  0.41897  0  0.869997  0
H  H37  1  0.14448400  0.28262558  0.54016979  1  0.648808  0  0.34599  0.434052  0  0.845271  0
H  H38  1  0.37062054  0.16270198  0.53474952  1  0.579181  0  0.299483  0.394351  0  0.906009  0
H  H39  1  0.52869751  0.19183394  0.50291837  1  0.631586  0  0.283442  0.409004  0  0.930385  0
H  H40  1  0.30296419  0.80764718  0.54985873  1  0.679767  0  0.334929  0.426493  0  0.864247  0
H  H41  1  0.14096522  0.30453479  0.45896284  1  0.665946  0  0.348628  0.444808  0  0.831982  0
H  H42  1  0.65200351  0.16172337  0.46817861  1  0.633706  0  0.336305  0.422026  0  0.855397  0
H  H43  1  0.82842929  0.59469251  0.43863108  1  0.636609  0  0.302777  0.40717  0  0.919459  0
C  C44  1  0.81912353  0.17844651  0.84019148  1  1.672774  0  0.243497  0.707687  0  4.182137  0
C  C45  1  0.19585863  0.15955050  0.17120361  1  1.701552  0  0.245896  0.706735  0  4.173655  0
C  C46  1  0.17700929  0.16149509  0.83282005  1  1.668864  0  0.242489  0.700657  0  4.181305  0
C  C47  1  0.81968319  0.15840844  0.17824568  1  1.661207  0  0.247142  0.712988  0  4.165197  0
C  C48  1  0.81351003  0.83106919  0.17231682  1  1.641189  0  0.243706  0.71483  0  4.180398  0
C  C49  1  0.16282277  0.81884363  0.83363802  1  1.668384  0  0.246932  0.709051  0  4.170902  0
C  C50  1  0.21863711  0.86374323  0.19282253  1  1.722711  0  0.235874  0.679713  0  4.253538  0
C  C51  1  0.81346546  0.82802429  0.83524998  1  1.710606  0  0.246841  0.705284  0  4.180744  0
C  C52  1  0.31926752  0.31100443  0.66984668  1  1.645543  0  0.243187  0.707578  0  4.184346  0
C  C53  1  0.69561382  0.33074240  0.33833939  1  1.686096  0  0.245839  0.705791  0  4.174406  0
C  C54  1  0.67704238  0.32794773  0.67715932  1  1.683347  0  0.241844  0.698787  0  4.183611  0
C  C55  1  0.31972984  0.33164426  0.33152121  1  1.658484  0  0.246789  0.711863  0  4.161883  0
C  C56  1  0.31378505  0.65927331  0.33788500  1  1.641962  0  0.243216  0.714382  0  4.180079  0
C  C57  1  0.66295707  0.67083217  0.67669125  1  1.665042  0  0.247308  0.709763  0  4.169448  0
C  C58  1  0.71845241  0.62662085  0.31737735  1  1.698636  0  0.236182  0.681266  0  4.25374  0
C  C59  1  0.31395495  0.66162654  0.67531705  1  1.701056  0  0.246728  0.705499  0  4.181665  0
C  C60  1  0.24447851  0.78870884  0.24416568  1  -0.079457  0  -0.012712  -0.092594  0  3.900055  0
C  C61  1  0.27270773  0.72618026  0.28587834  1  -0.129401  0  -0.032046  -0.143389  0  3.92931  0
C  C62  1  0.74404857  0.70189649  0.26617201  1  -0.075533  0  -0.013756  -0.093975  0  3.902345  0
C  C63  1  0.77215882  0.76447531  0.22445596  1  -0.102673  0  -0.031645  -0.143015  0  3.930938  0
C  C64  1  0.27297977  0.27256030  0.27515393  1  0.04458  0  -0.022097  -0.122265  0  3.907959  0
C  C65  1  0.24152854  0.22076609  0.22687683  1  -0.253692  0  -0.017817  -0.109023  0  3.902684  0
C  C66  1  0.21634739  0.76256082  0.77851291  1  0.146093  0  -0.018228  -0.113707  0  3.915503  0
C  C67  1  0.26181224  0.71738571  0.73137153  1  -0.367479  0  -0.016177  -0.11128  0  3.91115  0
C  C68  1  0.76749443  0.23381696  0.78456885  1  -0.135641  0  -0.026554  -0.129348  0  3.923022  0
C  C69  1  0.72773521  0.27488771  0.73437738  1  -0.082251  0  -0.019014  -0.107779  0  3.91205  0
C  C70  1  0.76123663  0.77213585  0.77929998  1  -0.314935  0  -0.016301  -0.110723  0  3.911887  0
C  C71  1  0.71609096  0.72720382  0.73192875  1  0.090207  0  -0.018249  -0.114407  0  3.915052  0
C  C72  1  0.74105612  0.26965194  0.28250996  1  -0.294242  0  -0.017878  -0.109232  0  3.901717  0
C  C73  1  0.77264686  0.21760439  0.23440696  1  0.103557  0  -0.022288  -0.122177  0  3.908933  0
C  C74  1  0.26760717  0.25550498  0.72540594  1  -0.222468  0  -0.026404  -0.129269  0  3.924599  0
C  C75  1  0.22783239  0.21432891  0.77555259  1  0.043309  0  -0.018727  -0.107486  0  3.914006  0
O  O76  1  0.79611680  0.20439893  0.90251762  1  -1.167003  0  -0.338644  -0.643206  0  2.23439  0
O  O77  1  0.88298029  0.10750246  0.82082528  1  -1.147168  0  -0.33884  -0.584935  0  2.258526  0
O  O78  1  0.22236854  0.18278161  0.10951635  1  -1.158427  0  -0.336638  -0.613556  0  2.21875  0
O  O79  1  0.13006963  0.08984284  0.19012005  1  -1.157143  0  -0.342574  -0.59987  0  2.254302  0
O  O80  1  0.20848709  0.18482613  0.89372419  1  -1.156791  0  -0.328608  -0.603924  0  2.21642  0
O  O81  1  0.10562827  0.09454161  0.81495447  1  -1.151058  0  -0.350583  -0.603258  0  2.247219  0
O  O82  1  0.78300479  0.17493128  0.11721471  1  -1.174524  0  -0.338333  -0.630005  0  2.222341  0
O  O83  1  0.89682093  0.09739333  0.19539866  1  -1.143419  0  -0.336851  -0.587125  0  2.238541  0
O  O84  1  0.90397893  0.28886162  0.01239632  1  -1.212551  0  -0.656301  -0.933675  0  1.891304  0
O  O85  1  0.66554070  0.15983076  0.00586689  1  -1.25567  0  -0.574274  -0.78663  0  2.037981  0
O  O86  1  0.11773689  0.28968373  0.00400274  1  -1.262674  0  -0.603846  -0.818405  0  2.013066  0
O  O87  1  0.33201204  0.09943065  0.99891701  1  -1.229483  0  -0.667308  -0.932068  0  1.841176  0
O  O88  1  0.00312425  0.10855673  0.95015223  1  -1.216283  0  -0.787216  -1.166406  0  2.08348  0
O  O89  1  0.00651843  0.14713448  0.07939518  1  -1.251933  0  -0.688219  -1.052539  0  2.299957  0
O  O90  1  0.78024139  0.81280750  0.11026400  1  -1.172406  0  -0.35364  -0.647393  0  2.267622  0
O  O91  1  0.88112123  0.89970534  0.19117340  1  -1.156855  0  -0.341008  -0.594154  0  2.237048  0
O  O92  1  0.18819687  0.79459243  0.89549799  1  -1.149927  0  -0.34742  -0.620662  0  2.200127  0
O  O93  1  0.09656659  0.88823906  0.81494576  1  -1.149333  0  -0.337698  -0.594207  0  2.233257  0
O  O94  1  0.29882276  0.89598745  0.15737120  1  -1.141139  0  -0.29415  -0.531139  0  2.098891  0
O  O95  1  0.11297548  0.88891755  0.18989021  1  -1.177004  0  -0.377082  -0.654081  0  2.274211  0
O  O96  1  0.79761725  0.79739240  0.89635565  1  -1.162103  0  -0.318488  -0.596504  0  2.245184  0
O  O97  1  0.86951293  0.90478661  0.81725204  1  -1.158778  0  -0.351002  -0.602002  0  2.23922  0
O  O98  1  0.83965622  0.69702942  0.00508416  1  -1.266391  0  -0.575197  -0.781773  0  2.014588  0
O  O99  1  0.66931021  0.88559459  0.99809025  1  -1.219363  0  -0.703318  -0.966701  0  1.782409  0
O  O100  1  0.17583353  0.73122693  0.03852252  1  -1.230493  0  -0.700797  -0.969597  0  1.747267  0
O  O101  1  0.32608451  0.90073982  0.01979887  1  -1.24624  0  -0.614094  -0.824469  0  1.984089  0
O  O102  1  0.99902724  0.84174272  0.07224856  1  -1.240861  0  -0.677005  -1.04419  0  2.178907  0
O  O103  1  0.98833234  0.88657105  0.94604998  1  -1.233636  0  -0.789758  -1.1872  0  2.098996  0
O  O104  1  0.87619101  0.00034147  0.06189412  1  -1.213964  0  -0.787205  -1.178305  0  2.101149  0
O  O105  1  0.16988940  0.99191547  0.92756414  1  -1.284465  0  -0.690574  -1.081588  0  2.298429  0
O  O106  1  0.81808815  0.00718132  0.93728852  1  -1.273688  0  -0.680676  -1.052434  0  2.211571  0
O  O107  1  0.12623354  0.99484966  0.05624541  1  -1.21586  0  -0.787919  -1.168638  0  2.106293  0
O  O108  1  0.29628434  0.28517369  0.60748151  1  -1.168424  0  -0.338932  -0.643645  0  2.233772  0
O  O109  1  0.38313017  0.38192120  0.68929718  1  -1.145147  0  -0.337997  -0.584736  0  2.25997  0
O  O110  1  0.72225395  0.30727136  0.39996827  1  -1.15611  0  -0.336241  -0.613313  0  2.215081  0
O  O111  1  0.62985254  0.40057992  0.31966701  1  -1.155172  0  -0.342677  -0.599519  0  2.255311  0
O  O112  1  0.70850324  0.30483696  0.61620994  1  -1.159439  0  -0.327847  -0.602993  0  2.217691  0
O  O113  1  0.60572536  0.39488385  0.69515554  1  -1.15129  0  -0.350587  -0.602235  0  2.247922  0
O  O114  1  0.28284722  0.31498545  0.39249682  1  -1.166934  0  -0.337905  -0.629694  0  2.215957  0
O  O115  1  0.39692678  0.39277513  0.31456788  1  -1.140888  0  -0.33709  -0.586895  0  2.238911  0
O  O116  1  0.40418727  0.20094036  0.49749042  1  -1.215216  0  -0.656346  -0.933561  0  1.891307  0
O  O117  1  0.16594009  0.32951375  0.50426500  1  -1.249768  0  -0.574191  -0.786893  0  2.039014  0
O  O118  1  0.61795356  0.20021892  0.50573999  1  -1.255165  0  -0.603996  -0.819691  0  2.011713  0
O  O119  1  0.83208851  0.39023068  0.51092542  1  -1.219921  0  -0.667297  -0.931717  0  1.84027  0
O  O120  1  0.50328504  0.38117579  0.55985916  1  -1.216211  0  -0.787175  -1.166239  0  2.082669  0
O  O121  1  0.50653326  0.34278255  0.43055772  1  -1.246161  0  -0.688095  -1.052484  0  2.299731  0
O  O122  1  0.28034770  0.67715939  0.39996176  1  -1.172026  0  -0.353697  -0.647636  0  2.264743  0
O  O123  1  0.38131182  0.59064209  0.31894029  1  -1.155854  0  -0.340594  -0.593777  0  2.236704  0
O  O124  1  0.68846974  0.69522107  0.61486507  1  -1.149158  0  -0.347059  -0.620793  0  2.198705  0
O  O125  1  0.59691728  0.60119771  0.69527177  1  -1.147533  0  -0.338161  -0.594539  0  2.233095  0
O  O126  1  0.79870152  0.59425528  0.35268335  1  -1.153238  0  -0.294032  -0.531501  0  2.099363  0
O  O127  1  0.61280775  0.60136202  0.32036238  1  -1.16773  0  -0.377297  -0.654261  0  2.275238  0
O  O128  1  0.29819955  0.69252232  0.61426242  1  -1.160595  0  -0.31828  -0.59667  0  2.243604  0
O  O129  1  0.36990431  0.58472354  0.69311145  1  -1.15663  0  -0.351147  -0.602413  0  2.240209  0
O  O130  1  0.33976694  0.79278528  0.50536070  1  -1.279141  0  -0.575298  -0.781891  0  2.014182  0
O  O131  1  0.16964932  0.60439774  0.51237951  1  -1.222171  0  -0.703329  -0.967265  0  1.781971  0
O  O132  1  0.67633958  0.75871753  0.47194477  1  -1.232526  0  -0.700736  -0.969357  0  1.746893  0
O  O133  1  0.82630142  0.58905819  0.49033272  1  -1.243374  0  -0.613565  -0.823003  0  1.985305  0
O  O134  1  0.49914369  0.64831882  0.43813038  1  -1.240642  0  -0.677113  -1.044506  0  2.179617  0
O  O135  1  0.48861499  0.60319022  0.56425812  1  -1.233002  0  -0.789564  -1.187173  0  2.098835  0
O  O136  1  0.37620173  0.48955295  0.44825145  1  -1.213428  0  -0.786855  -1.178888  0  2.101767  0
O  O137  1  0.67012509  0.49780918  0.58253000  1  -1.237949  0  -0.690566  -1.081965  0  2.297412  0
O  O138  1  0.31837265  0.48252947  0.57290040  1  -1.275289  0  -0.680562  -1.052407  0  2.209643  0
O  O139  1  0.62626918  0.49512155  0.45385810  1  -1.214118  0  -0.788092  -1.168936  0  2.106053  0
