# generated using pymatgen
data_NiH12C20NO5
_symmetry_space_group_name_H-M   'P 1'
_cell_length_a   9.41656691
_cell_length_b   9.36736579
_cell_length_c   11.66330901
_cell_angle_alpha   75.10797157
_cell_angle_beta   79.33631273
_cell_angle_gamma   65.28391991
_symmetry_Int_Tables_number   1
_chemical_formula_structural   NiH12C20NO5
_chemical_formula_sum   'Ni2 H24 C40 N2 O10'
_cell_volume   899.63025805
_cell_formula_units_Z   2
loop_
 _symmetry_equiv_pos_site_id
 _symmetry_equiv_pos_as_xyz
  1  'x, y, z'
loop_
 _atom_site_type_symbol
 _atom_site_label
 _atom_site_symmetry_multiplicity
 _atom_site_fract_x
 _atom_site_fract_y
 _atom_site_fract_z
 _atom_site_occupancy
 _atom_site_hle17_ddec_charge
 _atom_site_hle17_ddec_spin_density
 _atom_site_hle17_ddec_sum_bond_order
 _atom_site_hle17_magmom
 _atom_site_hse06_10hf_ddec_charge
 _atom_site_hse06_10hf_ddec_spin_density
 _atom_site_hse06_10hf_ddec_sum_bond_order
 _atom_site_hse06_10hf_magmom
 _atom_site_hse06_ddec_charge
 _atom_site_hse06_ddec_spin_density
 _atom_site_hse06_ddec_sum_bond_order
 _atom_site_hse06_magmom
 _atom_site_pbe_cm5_charge
 _atom_site_pbe_ddec_charge
 _atom_site_pbe_ddec_spin_density
 _atom_site_pbe_ddec_sum_bond_order
 _atom_site_pbe_magmom
Ni  Ni0  1  0.91041068  0.98314454  0.58727855  1  0.775187  -1.616416  2.175169  -1.332  0.764372  -1.639463  2.611131  -1.449  0.879007  -1.791621  2.50076  -1.617  0.598569  0.676666  -1.399697  2.698061  -1.211
Ni  Ni1  1  0.08953596  0.01687872  0.41273483  1  0.775667  1.616448  2.175208  1.332  0.764522  1.639454  2.61133  1.449  0.879224  1.791613  2.500912  1.617  0.598654  0.676864  1.399696  2.698223  1.211
H  H2  1  0.56848341  0.13384680  0.64343462  1  0.098474  -0.001039  0.953556  -0.002  0.103515  -0.000755  1.018653  -0.002  0.105743  -0.000568  1.016266  -0.001  0.121995  0.101448  -0.000752  1.021132  -0.001
H  H3  1  0.43148492  0.86614062  0.35659959  1  0.098604  0.001042  0.953144  0.002  0.103543  0.000755  1.018377  0.002  0.105794  0.000567  1.015961  0.001  0.122034  0.101475  0.000752  1.020856  0.001
H  H4  1  0.94000869  0.82285129  0.84280596  1  0.106756  -0.001042  0.954407  -0.002  0.10995  -0.000749  1.019974  -0.002  0.111823  -0.000561  1.017972  -0.001  0.124229  0.108279  -0.000725  1.022052  -0.001
H  H5  1  0.05998084  0.17713945  0.15720086  1  0.106658  0.001043  0.95452  0.002  0.109832  0.000748  1.020126  0.002  0.111705  0.000561  1.01812  0.001  0.124196  0.108154  0.000724  1.022216  0.001
H  H6  1  0.37808523  0.15459145  0.82096995  1  0.100997  -0.000315  0.982438  0.0  0.10851  -0.000324  1.047417  0.0  0.109918  -0.000247  1.049713  0.0  0.1057  0.10755  -0.00032  1.045634  0.0
H  H7  1  0.62189560  0.84538876  0.17906327  1  0.10094  0.000315  0.982578  0.0  0.108462  0.000324  1.047544  0.0  0.109869  0.000247  1.049842  0.0  0.105633  0.107502  0.000321  1.045759  0.0
H  H8  1  0.76822059  0.82907464  0.02955721  1  0.105978  -0.000345  0.970763  0.0  0.116131  -0.000337  1.030999  0.0  0.118106  -0.000254  1.031896  0.0  0.108516  0.114674  -0.000334  1.03038  0.0
H  H9  1  0.23177810  0.17092220  0.97045836  1  0.105853  0.000344  0.970674  0.0  0.115941  0.000337  1.031012  0.0  0.117895  0.000254  1.031925  0.0  0.108426  0.114485  0.000334  1.030391  0.0
H  H10  1  0.07652888  0.71199419  0.21782190  1  0.108102  0.000116  0.947696  0.0  0.117994  4.4e-05  1.005179  0.0  0.122148  1.5e-05  1.002039  0.0  0.107553  0.115021  9.4e-05  1.007443  0.0
H  H11  1  0.92350296  0.28796584  0.78223554  1  0.108242  -0.000117  0.947877  0.0  0.118122  -4.4e-05  1.005315  0.0  0.12228  -1.5e-05  1.00217  0.0  0.107565  0.115117  -9.3e-05  1.007619  0.0
H  H12  1  0.74597012  0.64049746  0.50994761  1  0.098608  -0.000147  0.980762  0.0  0.106961  -0.000105  1.046745  0.0  0.109715  -6.3e-05  1.045833  0.0  0.102853  0.104863  -0.000158  1.047543  0.0
H  H13  1  0.25397391  0.35950041  0.49005153  1  0.098534  0.00015  0.980754  0.0  0.106898  0.000105  1.046726  0.0  0.109651  6.3e-05  1.045822  0.0  0.102903  0.104801  0.000159  1.047528  0.0
H  H14  1  0.00259128  0.56096566  0.10495555  1  0.113861  -6.2e-05  0.975221  0.0  0.117557  -4e-05  1.045826  0.0  0.121813  -2.6e-05  1.042253  0.0  0.105943  0.114671  -5.4e-05  1.048202  0.0
H  H15  1  0.99746338  0.43900487  0.89507198  1  0.114037  6.1e-05  0.974933  0.0  0.117633  4e-05  1.045658  0.0  0.121896  2.6e-05  1.042083  0.0  0.105936  0.114738  5.4e-05  1.048046  0.0
H  H16  1  0.66233850  0.50267365  0.39649959  1  0.096239  7.3e-05  0.947767  0.0  0.10813  6e-05  1.003982  0.0  0.110789  4.4e-05  1.003434  0.0  0.105601  0.106043  7.3e-05  1.004746  0.0
H  H17  1  0.33767331  0.49729167  0.60348899  1  0.096317  -7e-05  0.947465  0.0  0.108146  -6e-05  1.003771  0.0  0.110805  -4.4e-05  1.003226  0.0  0.105549  0.10606  -7.3e-05  1.004536  0.0
H  H18  1  0.51477405  0.59331207  0.06525091  1  0.095572  -7.5e-05  0.951308  0.0  0.106776  -5.6e-05  1.01005  0.0  0.109554  -3.5e-05  1.009902  0.0  0.102452  0.104895  -7.4e-05  1.010164  0.0
H  H19  1  0.48526157  0.40671421  0.93470682  1  0.095518  7.4e-05  0.951377  0.0  0.106867  5.6e-05  1.009942  0.0  0.109638  3.6e-05  1.009811  0.0  0.102549  0.104987  7.4e-05  1.010052  0.0
H  H20  1  0.27504919  0.53468689  0.11081625  1  0.098191  8e-06  0.969277  0.0  0.10649  -6e-06  1.032938  0.0  0.109656  -2e-06  1.030527  0.0  0.103117  0.104304  -6e-06  1.034748  0.0
H  H21  1  0.72497964  0.46535385  0.88914540  1  0.097955  -8e-06  0.969639  0.0  0.106382  6e-06  1.033094  0.0  0.109535  2e-06  1.030722  0.0  0.103069  0.104197  6e-06  1.034903  0.0
H  H22  1  0.48374033  0.16156087  0.40782115  1  0.103092  -0.000101  0.936486  0.0  0.113803  -7.3e-05  0.995185  0.0  0.117732  -4.6e-05  0.991962  0.0  0.106941  0.110823  -0.000105  0.997811  0.0
H  H23  1  0.51626810  0.83844487  0.59212619  1  0.103225  0.000101  0.93644  0.0  0.113817  7.4e-05  0.995294  0.0  0.117743  4.7e-05  0.992083  0.0  0.106932  0.110833  0.000105  0.997925  0.0
H  H24  1  0.25630858  0.32009083  0.28600205  1  0.103905  2.9e-05  0.958522  0.0  0.110776  2.8e-05  1.024119  0.0  0.113899  -4e-06  1.023282  0.0  0.102867  0.10868  7.2e-05  1.024511  0.0
H  H25  1  0.74371378  0.67993282  0.71393388  1  0.10382  -2.9e-05  0.958487  0.0  0.110649  -2.8e-05  1.024189  0.0  0.113706  4e-06  1.023434  0.0  0.10285  0.108573  -7.1e-05  1.024557  0.0
C  C26  1  0.60650366  0.06813964  0.73136098  1  0.127513  0.010225  3.665649  0.013  0.099311  0.001927  3.920202  0.003  0.108237  0.00293  3.94082  0.005  0.05484  0.092411  0.001438  3.907973  0.002
C  C27  1  0.39346625  0.93185009  0.26866397  1  0.127334  -0.010231  3.665506  -0.013  0.099212  -0.001927  3.920082  -0.003  0.108129  -0.00293  3.940684  -0.005  0.054768  0.092312  -0.001439  3.90786  -0.002
C  C28  1  0.81449806  0.89477615  0.84232437  1  0.133515  0.009976  3.640527  0.012  0.106139  0.001773  3.894332  0.003  0.115692  0.002808  3.914068  0.004  0.058701  0.098677  0.001318  3.882753  0.002
C  C29  1  0.18549018  0.10521464  0.15768775  1  0.13362  -0.009983  3.640684  -0.012  0.106259  -0.001774  3.894462  -0.003  0.115815  -0.002808  3.91419  -0.004  0.058704  0.0988  -0.00132  3.882883  -0.002
C  C30  1  0.95852745  0.78072480  0.43224152  1  0.626549  0.000857  3.871803  0.002  0.587526  0.000494  4.168456  0.001  0.627606  0.000497  4.165444  0.001  0.211539  0.558443  0.000467  4.169007  0.001
C  C31  1  0.04144729  0.21926968  0.56777757  1  0.626846  -0.000848  3.871668  -0.002  0.587524  -0.000483  4.168645  -0.001  0.627593  -0.000491  4.165629  -0.001  0.211656  0.55844  -0.000445  4.169194  -0.001
C  C32  1  0.50112566  0.07884650  0.83239779  1  -0.153538  -0.013551  3.708433  -0.016  -0.171493  -0.004482  3.954473  -0.006  -0.180235  -0.004594  3.977399  -0.006  -0.077874  -0.165958  -0.003976  3.940001  -0.005
C  C33  1  0.49886141  0.92112887  0.16763305  1  -0.153409  0.013546  3.708617  0.016  -0.171385  0.004482  3.954713  0.006  -0.18013  0.004595  3.977646  0.006  -0.077752  -0.165847  0.003974  3.940246  0.005
C  C34  1  0.71575712  0.90007697  0.94706090  1  -0.144292  -0.01376  3.683082  -0.017  -0.161145  -0.004586  3.922631  -0.006  -0.169346  -0.004687  3.943864  -0.006  -0.074772  -0.156214  -0.004087  3.909745  -0.005
C  C35  1  0.28424581  0.09991149  0.05295669  1  -0.144228  0.013759  3.6831  0.017  -0.161007  0.004586  3.922662  0.006  -0.169185  0.004687  3.943897  0.006  -0.074677  -0.156072  0.004085  3.909772  0.005
C  C36  1  0.91624653  0.68453743  0.37008424  1  -0.03562  0.000622  3.728221  0.001  -0.013707  0.000276  3.954672  0.0  -0.020355  0.000201  3.97465  0.0  -0.00707  -0.010113  0.000348  3.942306  0.0
C  C37  1  0.08374374  0.31544147  0.62993948  1  -0.035804  -0.000637  3.728571  -0.001  -0.013861  -0.00028  3.955136  0.0  -0.02047  -0.000208  3.975051  0.0  -0.007075  -0.010265  -0.000353  3.942762  0.0
C  C38  1  0.55418390  0.99460773  0.94492001  1  0.091392  0.012153  3.753049  0.015  0.103593  0.003741  3.980518  0.005  0.10829  0.003943  4.000757  0.005  0.013294  0.099618  0.003626  3.968302  0.004
C  C39  1  0.44581864  0.00537242  0.05510789  1  0.091397  -0.012149  3.753125  -0.015  0.103526  -0.003742  3.980678  -0.005  0.108223  -0.003945  4.000909  -0.005  0.013259  0.099539  -0.003626  3.968473  -0.004
C  C40  1  0.98825889  0.66244220  0.25585753  1  -0.068486  -0.000799  3.724788  -0.001  -0.090302  -0.000465  3.970072  -0.001  -0.090502  -0.000342  3.988736  -0.001  -0.079234  -0.08946  -0.000505  3.956749  -0.001
C  C41  1  0.01175745  0.33752959  0.74417547  1  -0.06876  0.000824  3.72509  0.001  -0.09052  0.000474  3.970297  0.001  -0.090728  0.000351  3.988962  0.001  -0.079301  -0.089655  0.000516  3.956988  0.001
C  C42  1  0.80082173  0.62376891  0.42110500  1  -0.069986  0.000358  3.715466  0.001  -0.091626  0.00026  3.961849  0.0  -0.091581  0.000223  3.981464  0.0  -0.080932  -0.091749  0.000239  3.949474  0.0
C  C43  1  0.19915698  0.37621345  0.57890404  1  -0.069863  -0.000352  3.715831  -0.001  -0.091544  -0.000253  3.962275  0.0  -0.091504  -0.000216  3.981883  0.0  -0.081018  -0.091665  -0.00023  3.949901  0.0
C  C44  1  0.94662717  0.57999914  0.19347056  1  -0.083532  -0.000311  3.711151  0.0  -0.105903  -0.000205  3.964647  0.0  -0.107236  -0.000149  3.98345  0.0  -0.081504  -0.10465  -0.000226  3.951375  0.0
C  C45  1  0.05342153  0.41995337  0.80655710  1  -0.08355  0.000298  3.710848  0.0  -0.105939  0.000199  3.964244  0.0  -0.10728  0.000142  3.983055  0.0  -0.081484  -0.104682  0.000222  3.950966  0.0
C  C46  1  0.75520461  0.54563581  0.35730524  1  -0.068134  0.000574  3.710044  0.001  -0.091943  0.000316  3.962757  0.0  -0.094016  0.000176  3.98378  0.0  -0.079028  -0.090617  0.000485  3.949024  0.001
C  C47  1  0.24479944  0.45434041  0.64269239  1  -0.068089  -0.000596  3.709795  -0.001  -0.091926  -0.000323  3.962451  0.0  -0.093999  -0.000183  3.983484  0.0  -0.07896  -0.090605  -0.000491  3.948717  -0.001
C  C48  1  0.82815539  0.52237819  0.24315440  1  -0.030909  -0.00012  3.758355  0.0  -0.017061  -7.7e-05  3.998008  0.0  -0.021468  -5.9e-05  4.020502  0.0  -0.017235  -0.014379  -3.4e-05  3.983275  0.0
C  C49  1  0.17188928  0.47757532  0.75685470  1  -0.031035  0.000136  3.758742  0.0  -0.017014  8.6e-05  3.997807  0.0  -0.021434  6.8e-05  4.020319  0.0  -0.017235  -0.014326  4.4e-05  3.983063  0.0
C  C50  1  0.77990270  0.44539718  0.16906514  1  0.404248  0.000219  3.718776  0.0  0.381856  0.000255  3.987692  0.0  0.405255  0.000108  3.986033  0.0  0.168282  0.365245  0.000552  3.989209  0.0
C  C51  1  0.22012530  0.55461367  0.83091127  1  0.404272  -0.000221  3.718929  0.0  0.382257  -0.000258  3.987158  0.0  0.405687  -0.000109  3.98548  0.0  0.168341  0.365631  -0.000557  3.988722  0.0
C  C52  1  0.63558580  0.40914018  0.20814842  1  -0.029414  -0.000963  3.74797  -0.001  -0.020037  -0.000645  3.979576  -0.001  -0.022304  -0.000479  4.000537  -0.001  -0.009382  -0.018408  -0.000706  3.965567  -0.001
C  C53  1  0.36444302  0.59087045  0.79180734  1  -0.029369  0.000947  3.748383  0.001  -0.020222  0.000641  3.979855  0.001  -0.022445  0.000478  4.000835  0.001  -0.0093  -0.018623  0.000699  3.965832  0.001
C  C54  1  0.50711752  0.49889965  0.14043685  1  -0.092105  -0.000136  3.741367  0.0  -0.113318  -0.000117  3.990227  0.0  -0.116132  -5.1e-05  4.011222  0.0  -0.085686  -0.111181  -0.000164  3.975693  0.0
C  C55  1  0.49291776  0.50111694  0.85951431  1  -0.09192  0.000151  3.740974  0.0  -0.113214  0.000118  3.989844  0.0  -0.116032  5.2e-05  4.010825  0.0  -0.085843  -0.111072  0.000165  3.975317  0.0
C  C56  1  0.62570371  0.28824369  0.30581600  1  -0.086172  -4.9e-05  3.757737  0.0  -0.069695  3.6e-05  3.985964  0.0  -0.076811  6.6e-05  4.005893  0.0  -0.015947  -0.065084  -3.9e-05  3.973166  0.0
C  C57  1  0.37430407  0.71178148  0.69415063  1  -0.086925  6.6e-05  3.758519  0.0  -0.070095  -3.8e-05  3.986343  0.0  -0.077353  -6.8e-05  4.006445  0.0  -0.01616  -0.065403  3.6e-05  3.973453  0.0
C  C58  1  0.37150286  0.46686201  0.16733705  1  -0.053852  -0.000451  3.746753  0.0  -0.069698  -0.000229  3.999611  0.0  -0.069727  -0.000171  4.018866  0.0  -0.08427  -0.069495  -0.000217  3.985974  0.0
C  C59  1  0.62852876  0.53316067  0.83262105  1  -0.053882  0.000434  3.746872  0.0  -0.069811  0.000225  3.999829  0.0  -0.069827  0.000168  4.019055  0.0  -0.084283  -0.069612  0.000211  3.986196  0.0
C  C60  1  0.48860133  0.25738991  0.33285581  1  -0.070245  0.000307  3.733094  0.001  -0.093808  0.000341  3.982635  0.001  -0.093057  0.000235  4.000462  0.0  -0.083988  -0.094246  0.000364  3.970674  0.001
C  C61  1  0.51141134  0.74262073  0.66710029  1  -0.070246  -0.000323  3.733388  -0.001  -0.093797  -0.000344  3.982802  -0.001  -0.092996  -0.000236  4.000639  0.0  -0.08394  -0.094267  -0.00037  3.970836  -0.001
C  C62  1  0.76214343  0.18927852  0.37779646  1  0.633659  0.000371  3.885867  0.001  0.590651  0.000117  4.186789  0.0  0.630563  0.000116  4.182703  0.0  0.213994  0.56177  0.000105  4.18835  0.0
C  C63  1  0.23782608  0.81076743  0.62220425  1  0.634485  -0.000373  3.884826  -0.001  0.591316  -0.000118  4.185772  0.0  0.631273  -0.000112  4.181666  0.0  0.214357  0.562413  -0.000114  4.187333  0.0
C  C64  1  0.36207726  0.34555991  0.26367298  1  -0.069042  0.000601  3.748564  0.001  -0.085461  0.000285  4.006128  0.0  -0.087818  0.000197  4.026787  0.0  -0.088903  -0.083193  0.000359  3.990989  0.0
C  C65  1  0.63794268  0.65446273  0.73628147  1  -0.068763  -0.00059  3.748385  -0.001  -0.085198  -0.000285  4.005986  0.0  -0.08751  -0.000195  4.026659  0.0  -0.088831  -0.082947  -0.000359  3.990851  0.0
N  N66  1  0.76113611  0.97796747  0.73563803  1  -0.227236  -0.079955  3.251949  -0.117  -0.184598  -0.047829  3.534982  -0.073  -0.221333  -0.041567  3.55896  -0.066  -0.313168  -0.160105  -0.041899  3.520784  -0.063
N  N67  1  0.23883451  0.02202940  0.26438024  1  -0.22727  0.07992  3.252022  0.117  -0.184616  0.047817  3.535032  0.073  -0.221362  0.041558  3.55903  0.066  -0.313132  -0.16013  0.041883  3.52084  0.063
O  O68  1  0.88938938  0.80437871  0.53460750  1  -0.558986  -0.048225  2.071501  -0.073  -0.532703  -0.029516  2.340742  -0.046  -0.576644  -0.02271  2.334752  -0.036  -0.297773  -0.498273  -0.035212  2.343568  -0.054
O  O69  1  0.11025738  0.19594003  0.46527927  1  -0.559435  0.048334  2.07154  0.073  -0.532916  0.029591  2.34064  0.047  -0.576936  0.02276  2.334862  0.036  -0.298116  -0.498535  0.035348  2.343483  0.055
O  O70  1  0.94127000  0.16217715  0.62561920  1  -0.574691  -0.039348  2.118045  -0.06  -0.547214  -0.022865  2.385626  -0.036  -0.592145  -0.01733  2.377599  -0.027  -0.302966  -0.511643  -0.028397  2.389203  -0.044
O  O71  1  0.05899400  0.83750176  0.37455938  1  -0.57504  0.039428  2.117911  0.06  -0.547634  0.022929  2.385349  0.036  -0.592551  0.017368  2.377298  0.027  -0.30324  -0.512125  0.028528  2.388966  0.044
O  O72  1  0.10121050  0.83003860  0.67425933  1  -0.572778  -0.043644  2.135469  -0.067  -0.539142  -0.027162  2.405172  -0.042  -0.583965  -0.021223  2.399483  -0.033  -0.287058  -0.503964  -0.032289  2.407826  -0.05
O  O73  1  0.89879616  0.16966062  0.32567760  1  -0.57249  0.043599  2.136406  0.066  -0.538755  0.027112  2.405982  0.042  -0.583588  0.021192  2.400289  0.033  -0.286934  -0.503541  0.032185  2.408618  0.049
O  O74  1  0.73300476  0.13056613  0.48636795  1  -0.572947  -0.047263  2.132022  -0.072  -0.541706  -0.029139  2.402159  -0.046  -0.585192  -0.022353  2.393799  -0.036  -0.295109  -0.507339  -0.035447  2.406386  -0.055
O  O75  1  0.26691198  0.86983267  0.51370673  1  -0.573294  0.047139  2.13246  0.072  -0.54191  0.029069  2.402616  0.046  -0.585438  0.022308  2.394285  0.036  -0.295273  -0.507498  0.03531  2.406816  0.055
O  O76  1  0.84758140  0.42436626  0.06944970  1  -0.459872  0.000209  1.933772  0.0  -0.419373  0.000374  2.144041  0.001  -0.435537  0.000225  2.137329  0.0  -0.254868  -0.407889  0.000613  2.148905  0.001
O  O77  1  0.15244178  0.57567699  0.93052245  1  -0.459953  -0.000211  1.933474  0.0  -0.419652  -0.000377  2.143581  -0.001  -0.435831  -0.000227  2.136862  0.0  -0.255047  -0.408173  -0.000619  2.148459  -0.001
