# generated using pymatgen
data_Zr6H19C52O32F11
_symmetry_space_group_name_H-M   'P 1'
_cell_length_a   14.76580390
_cell_length_b   14.76774795
_cell_length_c   14.76484708
_cell_angle_alpha   60.31339311
_cell_angle_beta   59.96441583
_cell_angle_gamma   60.05272691
_symmetry_Int_Tables_number   1
_chemical_formula_structural   Zr6H19C52O32F11
_chemical_formula_sum   'Zr6 H19 C52 O32 F11'
_cell_volume   2282.22994482
_cell_formula_units_Z   1
loop_
 _symmetry_equiv_pos_site_id
 _symmetry_equiv_pos_as_xyz
  1  'x, y, z'
loop_
 _atom_site_type_symbol
 _atom_site_label
 _atom_site_symmetry_multiplicity
 _atom_site_fract_x
 _atom_site_fract_y
 _atom_site_fract_z
 _atom_site_occupancy
 _atom_site_pbe_bader_charge
 _atom_site_pbe_bader_spin_density
 _atom_site_pbe_cm5_charge
 _atom_site_pbe_ddec_charge
 _atom_site_pbe_ddec_spin_density
 _atom_site_pbe_ddec_sum_bond_order
 _atom_site_pbe_magmom
Zr  Zr0  1  0.86632969  0.88702223  0.62277750  1  2.631217  0  1.624762  2.373369  0  2.754039  0
Zr  Zr1  1  0.10798448  0.12336979  0.38627566  1  2.635343  0  1.633114  2.378236  0  2.754522  0
Zr  Zr2  1  0.10604441  0.88458406  0.62433780  1  2.637609  0  1.627825  2.377007  0  2.746763  0
Zr  Zr3  1  0.86800432  0.12461013  0.38495058  1  2.635357  0  1.624749  2.374125  0  2.75096  0
Zr  Zr4  1  0.10735812  0.88586274  0.38378141  1  2.638739  0  1.62984  2.377151  0  2.74383  0
Zr  Zr5  1  0.86731989  0.12538284  0.62448844  1  2.638288  0  1.627497  2.377749  0  2.739449  0
H  H6  1  0.08139302  0.72345795  0.59526916  1  0.61885  0  0.315327  0.408283  0  0.902851  0
H  H7  1  0.08395454  0.09649257  0.22262497  1  0.611966  0  0.314389  0.407278  0  0.906122  0
H  H8  1  0.08042257  0.09755659  0.60149041  1  0.620896  0  0.332918  0.425451  0  0.85368  0
H  H9  1  0.70340156  0.10138180  0.59913309  1  0.60026  0  0.332506  0.426361  0  0.852796  0
H  H10  1  0.81487081  0.61933205  0.61435427  1  0.092702  0  0.110289  0.120307  0  0.99015  0
H  H11  1  0.15007634  0.57105326  0.38503661  1  0.117205  0  0.120793  0.150751  0  0.975968  0
H  H12  1  0.82113230  0.44692051  0.61245479  1  0.118861  0  0.112956  0.119871  0  0.986122  0
H  H13  1  0.58148511  0.84852752  0.93286421  1  0.066469  0  0.11151  0.121005  0  0.988714  0
H  H14  1  0.59736881  0.12860386  0.93948482  1  0.126859  0  0.11844  0.149363  0  0.986534  0
H  H15  1  0.41165833  0.85295417  0.10367284  1  0.12601  0  0.113783  0.122502  0  0.987373  0
H  H16  1  0.14815903  0.88361361  0.06645657  1  0.098779  0  0.112496  0.121754  0  0.985737  0
H  H17  1  0.80996904  0.10513391  0.13101694  1  0.092979  0  0.118717  0.148248  0  0.980374  0
H  H18  1  0.14223010  0.88479220  0.89871362  1  0.123471  0  0.11487  0.122931  0  0.982414  0
H  H19  1  0.58547782  0.44057145  0.63280413  1  0.076618  0  0.111609  0.120618  0  0.989789  0
H  H20  1  0.58914457  0.43040019  0.34437957  1  0.128565  0  0.119836  0.149014  0  0.978686  0
H  H21  1  0.41455800  0.60962921  0.62895158  1  0.120519  0  0.114593  0.124439  0  0.98482  0
H  H22  1  0.57177190  0.14654442  0.35452837  1  0.073508  0  0.112334  0.121414  0  0.987242  0
H  H23  1  0.58799293  0.84860140  0.63671172  1  0.084141  0  0.118277  0.146491  0  0.982908  0
H  H24  1  0.40240809  0.13917882  0.36039972  1  0.127619  0  0.117103  0.127778  0  0.983333  0
C  C25  1  0.98082245  0.70749848  0.49913636  1  1.573648  0  0.236616  0.638149  0  4.101219  0
C  C26  1  0.29976878  0.99919826  0.20923268  1  1.569151  0  0.236775  0.657595  0  4.101977  0
C  C27  1  0.98662621  0.31110679  0.50085518  1  1.577494  0  0.238163  0.660511  0  4.096764  0
C  C28  1  0.69076818  0.99737271  0.81557717  1  1.563454  0  0.239507  0.642101  0  4.08965  0
C  C29  1  0.98787436  0.69953966  0.80453141  1  1.631649  0  0.234888  0.657404  0  4.147153  0
C  C30  1  0.68654097  0.00370724  0.49852931  1  1.564741  0  0.23866  0.640535  0  4.095752  0
C  C31  1  0.98977342  0.30523710  0.19990148  1  1.631965  0  0.235081  0.658012  0  4.145187  0
C  C32  1  0.29523341  0.99591497  0.50405530  1  1.576216  0  0.236967  0.656957  0  4.103261  0
C  C33  1  0.29741063  0.70793920  0.49502992  1  1.581266  0  0.236804  0.657145  0  4.101845  0
C  C34  1  0.97818230  0.99825733  0.81579759  1  1.592181  0  0.238972  0.661342  0  4.095754  0
C  C35  1  0.69198535  0.31744672  0.49684041  1  1.557216  0  0.239274  0.640903  0  4.09248  0
C  C36  1  0.98368181  0.99881285  0.20543100  1  1.560318  0  0.237044  0.63897  0  4.100502  0
C  C37  1  0.98754334  0.41253540  0.49901357  1  -0.006814  0  -0.01873  -0.149259  0  3.944944  0
C  C38  1  0.98145142  0.60612894  0.49898926  1  -0.037918  0  -0.00838  -0.002526  0  3.977368  0
C  C39  1  0.07964493  0.44918142  0.43606237  1  0.481282  0  0.112477  0.290212  0  4.026284  0
C  C40  1  0.88865642  0.57098905  0.56412594  1  0.028873  0  -0.086998  -0.115113  0  3.981203  0
C  C41  1  0.07735085  0.54491190  0.43461534  1  0.071946  0  -0.088539  -0.221075  0  3.960653  0
C  C42  1  0.89226176  0.47567385  0.56326145  1  -0.06313  0  -0.075949  -0.065308  0  3.9764  0
C  C43  1  0.40739572  0.99368171  0.11548643  1  0.03866  0  -0.019786  -0.150743  0  3.941406  0
C  C44  1  0.59730559  0.99058247  0.92362885  1  -0.007773  0  -0.007519  -0.000628  0  3.967776  0
C  C45  1  0.46385930  0.06840519  0.06936340  1  0.408385  0  0.112503  0.288519  0  4.024612  0
C  C46  1  0.54727250  0.91036638  0.97165676  1  0.039381  0  -0.085643  -0.112443  0  3.979117  0
C  C47  1  0.55700375  0.06816247  0.97447355  1  0.047046  0  -0.089358  -0.223618  0  3.959287  0
C  C48  1  0.45359051  0.91274539  0.06600341  1  -0.049917  0  -0.076034  -0.066642  0  3.975045  0
C  C49  1  0.97450845  0.99493884  0.92025185  1  -0.002939  0  -0.018635  -0.147661  0  3.945048  0
C  C50  1  0.98022337  0.99517513  0.10793844  1  0.049209  0  -0.008028  -0.002566  0  3.973956  0
C  C51  1  0.88128973  0.05510562  0.98847056  1  0.422386  0  0.111233  0.287145  0  4.033329  0
C  C52  1  0.07359487  0.93162012  0.04354094  1  -0.007432  0  -0.08396  -0.107312  0  3.974313  0
C  C53  1  0.88326721  0.05673547  0.08057056  1  0.030847  0  -0.091094  -0.226292  0  3.965387  0
C  C54  1  0.07018006  0.93222599  0.95096669  1  -0.009273  0  -0.073806  -0.063968  0  3.969308  0
C  C55  1  0.40447393  0.61350697  0.48735213  1  0.034469  0  -0.018785  -0.149002  0  3.938485  0
C  C56  1  0.59635550  0.42368857  0.49052340  1  0.006388  0  -0.007924  -0.001165  0  3.969664  0
C  C57  1  0.45762436  0.56262665  0.40613180  1  0.412837  0  0.111443  0.287773  0  4.028625  0
C  C58  1  0.54862267  0.47557995  0.56953700  1  -0.018382  0  -0.08579  -0.11302  0  3.979098  0
C  C59  1  0.55171001  0.46899561  0.40712249  1  0.049318  0  -0.090128  -0.223754  0  3.962611  0
C  C60  1  0.45412472  0.56892273  0.56739971  1  -0.043614  0  -0.074916  -0.066394  0  3.968903  0
C  C61  1  0.99472850  0.59240451  0.90022177  1  0.116789  0  -0.012495  -0.140572  0  3.939418  0
C  C62  1  0.03367669  0.48699544  0.88978538  1  0.044709  0  -0.004849  -0.013129  0  4.011468  0
C  C63  1  0.96116790  0.59846626  0.00293098  1  0.529953  0  0.104908  0.169868  0  4.07622  0
C  C64  1  0.07415913  0.47249975  0.78656885  1  0.573086  0  0.092781  0.129494  0  4.051122  0
C  C65  1  0.11026863  0.37073122  0.77683096  1  0.51587  0  0.087182  0.080445  0  4.148635  0
C  C66  1  0.99663729  0.40057533  0.09241468  1  0.097025  0  -0.011802  -0.139823  0  3.935722  0
C  C67  1  0.96192362  0.50373219  0.09792161  1  0.489209  0  0.105661  0.172124  0  4.074356  0
C  C68  1  0.03482321  0.38959234  0.98732400  1  0.105597  0  -0.004865  -0.013377  0  4.008808  0
C  C69  1  0.07657608  0.28603017  0.97316308  1  0.490139  0  0.09296  0.130885  0  4.047166  0
C  C70  1  0.11156508  0.27580028  0.87182092  1  0.627204  0  0.087428  0.080412  0  4.146668  0
C  C71  1  0.39977328  0.99168246  0.50093957  1  0.077704  0  -0.018325  -0.148731  0  3.940786  0
C  C72  1  0.58930320  0.99881609  0.49591597  1  0.011842  0  -0.008778  -0.003885  0  3.976874  0
C  C73  1  0.45507198  0.90944454  0.57694208  1  0.431105  0  0.110909  0.286793  0  4.032635  0
C  C74  1  0.53820029  0.08025605  0.41674692  1  0.055319  0  -0.083722  -0.109822  0  3.974575  0
C  C75  1  0.54809547  0.91240976  0.57561419  1  0.025868  0  -0.091451  -0.225289  0  3.971373  0
C  C76  1  0.44466385  0.07620469  0.41997562  1  -0.099413  0  -0.07204  -0.062149  0  3.960285  0
O  O77  1  0.90289191  0.74753967  0.57566831  1  -1.176704  0  -0.356268  -0.620567  0  2.293176  0
O  O78  1  0.25504329  0.07881086  0.24668185  1  -1.169347  0  -0.360034  -0.61755  0  2.322318  0
O  O79  1  0.06249971  0.26995761  0.42458935  1  -1.178891  0  -0.358102  -0.617048  0  2.309763  0
O  O80  1  0.72669601  0.92355635  0.77292917  1  -1.185678  0  -0.355859  -0.61843  0  2.275096  0
O  O81  1  0.06350949  0.73860295  0.76894325  1  -1.165949  0  -0.344771  -0.60353  0  2.265331  0
O  O82  1  0.72340783  0.08264610  0.42391485  1  -1.180566  0  -0.351815  -0.614115  0  2.273903  0
O  O83  1  0.90958058  0.27101787  0.23919263  1  -1.168131  0  -0.347209  -0.608701  0  2.26281  0
O  O84  1  0.25183333  0.92266938  0.58240143  1  -1.170045  0  -0.359739  -0.620052  0  2.315388  0
O  O85  1  0.25341968  0.74523331  0.42246919  1  -1.164497  0  -0.359632  -0.619513  0  2.317927  0
O  O86  1  0.90580037  0.07856205  0.77239075  1  -1.176477  0  -0.356738  -0.619113  0  2.304218  0
O  O87  1  0.72698263  0.27574786  0.57735004  1  -1.175056  0  -0.351328  -0.616266  0  2.267029  0
O  O88  1  0.06435076  0.92572612  0.24054279  1  -1.187496  0  -0.353926  -0.615614  0  2.273506  0
O  O89  1  0.05651790  0.92209960  0.77539637  1  -1.183166  0  -0.353042  -0.61631  0  2.265567  0
O  O90  1  0.72937856  0.27494612  0.42254479  1  -1.179335  0  -0.3543  -0.613824  0  2.282354  0
O  O91  1  0.90656916  0.07556459  0.24530656  1  -1.179608  0  -0.354021  -0.618606  0  2.292483  0
O  O92  1  0.25597911  0.74303854  0.57580972  1  -1.175946  0  -0.35026  -0.612901  0  2.272913  0
O  O93  1  0.90731852  0.74016433  0.77083327  1  -1.161462  0  -0.34107  -0.601889  0  2.25926  0
O  O94  1  0.25531240  0.07486847  0.42877265  1  -1.179202  0  -0.348759  -0.608848  0  2.28225  0
O  O95  1  0.06374609  0.27049757  0.24038260  1  -1.154199  0  -0.336732  -0.591966  0  2.256589  0
O  O96  1  0.72405956  0.92906799  0.57700350  1  -1.182099  0  -0.355109  -0.615619  0  2.29179  0
O  O97  1  0.72560476  0.07828776  0.77240228  1  -1.181701  0  -0.351141  -0.611086  0  2.280151  0
O  O98  1  0.05935478  0.74514266  0.42397624  1  -1.186335  0  -0.350972  -0.609529  0  2.276934  0
O  O99  1  0.25818064  0.92543906  0.24332707  1  -1.172976  0  -0.35048  -0.615097  0  2.269511  0
O  O100  1  0.90953984  0.27254851  0.57918473  1  -1.177426  0  -0.351964  -0.618129  0  2.26351  0
O  O101  1  0.78389023  0.07439504  0.57183059  1  -1.228348  0  -0.693463  -1.073201  0  2.35313  0
O  O102  1  0.05384297  0.07147889  0.57365904  1  -1.24652  0  -0.694691  -1.070339  0  2.362007  0
O  O103  1  0.05528040  0.07170663  0.30293878  1  -1.235737  0  -0.698592  -1.072554  0  2.377002  0
O  O104  1  0.05328852  0.80368849  0.57063194  1  -1.245107  0  -0.698442  -1.072433  0  2.375991  0
O  O105  1  0.13634876  0.95474639  0.45553355  1  -1.196887  0  -0.792331  -1.149913  0  2.136503  0
O  O106  1  0.93672551  0.95629378  0.45422410  1  -1.201633  0  -0.791683  -1.147854  0  2.130082  0
O  O107  1  0.93788359  0.15370608  0.45526900  1  -1.200166  0  -0.791071  -1.149931  0  2.123003  0
O  O108  1  0.93638187  0.95560344  0.65347741  1  -1.198828  0  -0.789957  -1.149665  0  2.122427  0
F  F109  1  0.17614106  0.39035360  0.37578982  1  -0.63045  0  -0.097323  -0.135477  0  1.344097  0
F  F110  1  0.42855971  0.14533692  0.11517131  1  -0.623945  0  -0.096511  -0.133317  0  1.346948  0
F  F111  1  0.78421257  0.11327774  0.96732660  1  -0.62812  0  -0.097051  -0.137273  0  1.354183  0
F  F112  1  0.41797131  0.60217408  0.32350748  1  -0.62602  0  -0.09816  -0.13684  0  1.348062  0
F  F113  1  0.41917165  0.82335946  0.65589867  1  -0.627198  0  -0.099714  -0.139384  0  1.346386  0
F  F114  1  0.92465699  0.51700495  0.19627784  1  -0.608001  0  -0.082213  -0.100451  0  1.343918  0
F  F115  1  0.92389873  0.69716418  0.01541419  1  -0.608141  0  -0.08226  -0.100016  0  1.345817  0
F  F116  1  0.08620337  0.19074305  0.06052482  1  -0.632075  0  -0.065849  -0.086737  0  1.430572  0
F  F117  1  0.14983751  0.17611727  0.86161504  1  -0.603849  0  -0.081446  -0.087471  0  1.378151  0
F  F118  1  0.14717458  0.36004986  0.67758264  1  -0.604765  0  -0.080254  -0.08574  0  1.381489  0
F  F119  1  0.08102545  0.56008370  0.69120155  1  -0.629887  0  -0.066159  -0.086629  0  1.430618  0
