# generated using pymatgen
data_CaH13C16(NO2)3
_symmetry_space_group_name_H-M   'P 1'
_cell_length_a   6.77670971
_cell_length_b   7.66497260
_cell_length_c   15.64161403
_cell_angle_alpha   79.70850875
_cell_angle_beta   86.08289790
_cell_angle_gamma   74.47570216
_symmetry_Int_Tables_number   1
_chemical_formula_structural   CaH13C16(NO2)3
_chemical_formula_sum   'Ca2 H26 C32 N6 O12'
_cell_volume   770.06076867
_cell_formula_units_Z   2
loop_
 _symmetry_equiv_pos_site_id
 _symmetry_equiv_pos_as_xyz
  1  'x, y, z'
loop_
 _atom_site_type_symbol
 _atom_site_label
 _atom_site_symmetry_multiplicity
 _atom_site_fract_x
 _atom_site_fract_y
 _atom_site_fract_z
 _atom_site_occupancy
 _atom_site_hle17_bader_spin_density
 _atom_site_hle17_ddec_charge
 _atom_site_hle17_ddec_spin_density
 _atom_site_hle17_ddec_sum_bond_order
 _atom_site_hle17_magmom
 _atom_site_hse06_10hf_bader_spin_density
 _atom_site_hse06_10hf_ddec_charge
 _atom_site_hse06_10hf_ddec_spin_density
 _atom_site_hse06_10hf_ddec_sum_bond_order
 _atom_site_hse06_10hf_magmom
 _atom_site_hse06_bader_spin_density
 _atom_site_hse06_ddec_charge
 _atom_site_hse06_ddec_spin_density
 _atom_site_hse06_ddec_sum_bond_order
 _atom_site_hse06_magmom
 _atom_site_pbe_bader_spin_density
 _atom_site_pbe_cm5_charge
 _atom_site_pbe_ddec_charge
 _atom_site_pbe_ddec_spin_density
 _atom_site_pbe_ddec_sum_bond_order
 _atom_site_pbe_magmom
Ca  Ca0  1  0.23440251  0.59478269  0.45026536  1  0  1.571625  0  1.100117  0  0  1.443833  0  1.448313  0  0  1.486862  0  1.402118  0  0  0.916665  1.411543  0  1.480901  0
Ca  Ca1  1  0.76559186  0.40521929  0.54973377  1  0  1.571647  0  1.100086  0  0  1.443818  0  1.448356  0  0  1.486864  0  1.402129  0  0  0.916664  1.411525  0  1.480948  0
H  H2  1  0.12990776  0.96433079  0.17558764  1  0  0.093372  0  0.971741  0  0  0.104807  0  1.033685  0  0  0.107476  0  1.032461  0  0  0.104082  0.10287  0  1.034631  0
H  H3  1  0.87008407  0.03566436  0.82441089  1  0  0.093325  0  0.971793  0  0  0.104746  0  1.033754  0  0  0.107414  0  1.032534  0  0  0.104047  0.102807  0  1.034708  0
H  H4  1  0.54906008  0.29454621  0.07331291  1  0  0.094883  0  0.956744  0  0  0.103904  0  1.023474  0  0  0.10733  0  1.02105  0  0  0.10094  0.101392  0  1.025389  0
H  H5  1  0.45093934  0.70546943  0.92668870  1  0  0.094842  0  0.956718  0  0  0.10389  0  1.023438  0  0  0.107316  0  1.021009  0  0  0.100919  0.101377  0  1.025354  0
H  H6  1  0.30568300  0.09285303  0.05104403  1  0  0.083355  0  0.981163  0  0  0.094057  0  1.046312  0  0  0.097049  0  1.044073  0  0  0.097946  0.091841  0  1.048179  0
H  H7  1  0.69431332  0.90713659  0.94895424  1  0  0.083344  0  0.981081  0  0  0.094017  0  1.046275  0  0  0.097008  0  1.044036  0  0  0.097915  0.091799  0  1.048144  0
H  H8  1  0.72578953  0.42008696  0.94388837  1  0  0.082977  0  0.974737  0  0  0.094856  0  1.037872  0  0  0.097388  0  1.036747  0  0  0.098561  0.092996  0  1.038816  0
H  H9  1  0.27421101  0.57992456  0.05611359  1  0  0.082987  0  0.974708  0  0  0.094799  0  1.037926  0  0  0.097338  0  1.036795  0  0  0.098529  0.092954  0  1.038851  0
H  H10  1  0.44585837  0.16450245  0.94379271  1  0  0.092106  0  0.981468  0  0  0.1034  0  1.044419  0  0  0.106037  0  1.043807  0  0  0.100917  0.101496  0  1.045056  0
H  H11  1  0.55414072  0.83549817  0.05621218  1  0  0.092036  0  0.981434  0  0  0.103316  0  1.044428  0  0  0.105952  0  1.043818  0  0  0.100869  0.101413  0  1.045065  0
H  H12  1  0.87774818  0.53892144  0.84368105  1  0  0.106257  0  0.951886  0  0  0.117471  0  1.011772  0  0  0.120956  0  1.009964  0  0  0.107032  0.114903  0  1.013372  0
H  H13  1  0.12225881  0.46107764  0.15631801  1  0  0.106245  0  0.951878  0  0  0.117403  0  1.011834  0  0  0.120887  0  1.010026  0  0  0.107014  0.114833  0  1.013437  0
H  H14  1  0.62237501  0.30412463  0.81854223  1  0  0.069705  0  0.94378  0  0  0.079396  0  1.008721  0  0  0.082159  0  1.006027  0  0  0.113053  0.077279  0  1.010883  0
H  H15  1  0.37763190  0.69586905  0.18146370  1  0  0.069737  0  0.943848  0  0  0.079465  0  1.008765  0  0  0.082225  0  1.006073  0  0  0.11306  0.077348  0  1.010924  0
H  H16  1  0.07861239  0.66048685  0.72425188  1  0  0.077978  0  0.986653  0  0  0.083166  0  1.055928  0  0  0.086468  0  1.052774  0  0  0.113725  0.080734  0  1.058227  0
H  H17  1  0.92140126  0.33950944  0.27574916  1  0  0.077948  0  0.98663  0  0  0.083109  0  1.055949  0  0  0.086414  0  1.052793  0  0  0.113689  0.080684  0  1.058247  0
H  H18  1  0.96311107  0.87140636  0.29094087  1  0  0.316587  0  0.935604  0  0  0.294877  0  1.003052  0  0  0.304551  0  0.994511  0  0  0.314154  0.288043  0  1.0091  0
H  H19  1  0.03688365  0.12859971  0.70905725  1  0  0.31681  0  0.935517  0  0  0.295148  0  1.002865  0  0  0.304824  0  0.994315  0  0  0.314232  0.288314  0  1.008903  0
H  H20  1  0.32694560  0.76516380  0.58691833  1  0  0.427916  0  0.859882  0  0  0.399272  0  0.920905  0  0  0.409711  0  0.905566  0  0  0.306305  0.391762  0  0.931935  0
H  H21  1  0.67305918  0.23483258  0.41308102  1  0  0.427935  0  0.859859  0  0  0.399286  0  0.920879  0  0  0.409724  0  0.90554  0  0  0.306334  0.391778  0  0.931904  0
H  H22  1  0.07950521  0.83061649  0.59256083  1  0  0.432488  0  0.861801  0  0  0.397513  0  0.931329  0  0  0.409384  0  0.913802  0  0  0.299194  0.389066  0  0.943766  0
H  H23  1  0.92050067  0.16938125  0.40743902  1  0  0.432553  0  0.861719  0  0  0.397597  0  0.931215  0  0  0.409462  0  0.913697  0  0  0.299261  0.38915  0  0.943653  0
H  H24  1  0.32525319  0.29012543  0.34572600  1  0  0.423396  0  0.87635  0  0  0.388877  0  0.945671  0  0  0.40005  0  0.929425  0  0  0.293982  0.38093  0  0.957184  0
H  H25  1  0.67475119  0.70987233  0.65427451  1  0  0.423385  0  0.876357  0  0  0.388862  0  0.945682  0  0  0.400034  0  0.929437  0  0  0.293965  0.380917  0  0.957192  0
H  H26  1  0.48500698  0.41732119  0.30896014  1  0  0.383533  0  0.94251  0  0  0.338144  0  1.030096  0  0  0.35023  0  1.012989  0  0  0.282653  0.329645  0  1.042086  0
H  H27  1  0.51499927  0.58267518  0.69104046  1  0  0.383524  0  0.94252  0  0  0.338146  0  1.030091  0  0  0.350231  0  1.012984  0  0  0.282661  0.329647  0  1.042081  0
C  C28  1  0.70453683  0.70895787  0.40274548  1  0  0.689054  0  3.935401  0  0  0.640329  0  4.227424  0  0  0.677342  0  4.215612  0  0  0.236074  0.614977  0  4.234781  0
C  C29  1  0.29545756  0.29104409  0.59725237  1  0  0.688905  0  3.935554  0  0  0.640235  0  4.227506  0  0  0.67725  0  4.215693  0  0  0.23602  0.614887  0  4.234853  0
C  C30  1  0.65912352  0.85913336  0.32853857  1  0  -0.004259  0  3.69728  0  0  -0.018824  0  3.954552  0  0  -0.023205  0  3.973093  0  0  0.087358  -0.016015  0  3.942253  0
C  C31  1  0.34087201  0.14086447  0.67145898  1  0  -0.004204  0  3.697279  0  0  -0.018804  0  3.954571  0  0  -0.023184  0  3.973115  0  0  0.087347  -0.015995  0  3.942268  0
C  C32  1  0.47485554  0.97278646  0.29370514  1  0  0.016987  0  3.767752  0  0  0.015992  0  4.03172  0  0  0.016806  0  4.048689  0  0  0.092276  0.015442  0  4.020371  0
C  C33  1  0.52513813  0.02721277  0.70629234  1  0  0.017106  0  3.767764  0  0  0.01606  0  4.031697  0  0  0.016868  0  4.048673  0  0  0.09234  0.015509  0  4.020347  0
C  C34  1  0.26167339  0.98513543  0.32809906  1  0  0.683363  0  3.883698  0  0  0.624349  0  4.192485  0  0  0.659188  0  4.180762  0  0  0.23713  0.600555  0  4.199762  0
C  C35  1  0.73832323  0.01486377  0.67189899  1  0  0.683173  0  3.884063  0  0  0.624318  0  4.192579  0  0  0.659157  0  4.180861  0  0  0.237126  0.600528  0  4.199848  0
C  C36  1  0.71657071  0.04335532  0.20860492  1  0  0.320611  0  3.765674  0  0  0.28883  0  4.040826  0  0  0.302001  0  4.055286  0  0  0.213051  0.280312  0  4.030657  0
C  C37  1  0.28342329  0.95664802  0.79139347  1  0  0.320556  0  3.765866  0  0  0.288816  0  4.040929  0  0  0.301986  0  4.055394  0  0  0.213038  0.280291  0  4.03077  0
C  C38  1  0.82470832  0.11911067  0.13374688  1  0  0.000118  0  3.805629  0  0  0.020178  0  4.038047  0  0  0.018425  0  4.060342  0  0  -0.002682  0.021185  0  4.022886  0
C  C39  1  0.17528753  0.88089129  0.86625221  1  0  0.000153  0  3.805748  0  0  0.020222  0  4.038104  0  0  0.01847  0  4.060403  0  0  -0.002702  0.021234  0  4.022936  0
C  C40  1  0.03903832  0.06399439  0.12516184  1  0  -0.082911  0  3.721565  0  0  -0.108661  0  3.973397  0  0  -0.110197  0  3.993814  0  0  -0.086886  -0.107428  0  3.959481  0
C  C41  1  0.96095573  0.93600347  0.87483575  1  0  -0.082858  0  3.721595  0  0  -0.108597  0  3.973402  0  0  -0.110133  0  3.993818  0  0  -0.086838  -0.107363  0  3.959492  0
C  C42  1  0.71525216  0.24939024  0.06679638  1  0  -0.088108  0  3.732931  0  0  -0.112092  0  3.983895  0  0  -0.113998  0  4.004861  0  0  -0.087195  -0.110553  0  3.969494  0
C  C43  1  0.28474363  0.75061721  0.93320351  1  0  -0.088122  0  3.73298  0  0  -0.112146  0  3.983946  0  0  -0.114046  0  4.004911  0  0  -0.087208  -0.110613  0  3.969559  0
C  C44  1  0.13924917  0.13642383  0.05292443  1  0  -0.091366  0  3.733957  0  0  -0.11181  0  3.985264  0  0  -0.113878  0  4.005791  0  0  -0.084582  -0.110339  0  3.97132  0
C  C45  1  0.86074674  0.86357264  0.94707324  1  0  -0.091332  0  3.73382  0  0  -0.111742  0  3.985145  0  0  -0.113809  0  4.005672  0  0  -0.084562  -0.110268  0  3.971201  0
C  C46  1  0.81658411  0.31984609  0.99421826  1  0  -0.102667  0  3.74467  0  0  -0.122513  0  3.993936  0  0  -0.125097  0  4.01584  0  0  -0.087064  -0.120569  0  3.978872  0
C  C47  1  0.18341058  0.68016000  0.00578114  1  0  -0.102578  0  3.744588  0  0  -0.122351  0  3.993865  0  0  -0.124939  0  4.015768  0  0  -0.086988  -0.120416  0  3.978788  0
C  C48  1  0.03165367  0.26455793  0.98490808  1  0  0.038464  0  3.763975  0  0  0.054244  0  3.991877  0  0  0.05371  0  4.015168  0  0  -0.008584  0.054645  0  3.975892  0
C  C49  1  0.96834255  0.73544266  0.01509113  1  0  0.038416  0  3.763929  0  0  0.054147  0  3.991879  0  0  0.053613  0  4.01517  0  0  -0.008607  0.054549  0  3.975892  0
C  C50  1  0.14168036  0.33881049  0.90817623  1  0  0.097035  0  3.75981  0  0  0.108157  0  3.990053  0  0  0.112882  0  4.012358  0  0  0.009644  0.105182  0  3.974802  0
C  C51  1  0.85831958  0.66118732  0.09182376  1  0  0.09697  0  3.759826  0  0  0.108114  0  3.990055  0  0  0.112839  0  4.01236  0  0  0.009672  0.105137  0  3.9748  0
C  C52  1  0.35548893  0.27487136  0.89747959  1  0  -0.163548  0  3.714291  0  0  -0.181573  0  3.963567  0  0  -0.189673  0  3.986274  0  0  -0.089841  -0.176289  0  3.948243  0
C  C53  1  0.64451352  0.72512784  0.10252469  1  0  -0.163313  0  3.714179  0  0  -0.181311  0  3.963467  0  0  -0.18941  0  3.986174  0  0  -0.089764  -0.176031  0  3.948142  0
C  C54  1  0.04259414  0.47848688  0.84225645  1  0  -0.15808  0  3.690798  0  0  -0.176807  0  3.940004  0  0  -0.184118  0  3.96059  0  0  -0.084483  -0.172148  0  3.926292  0
C  C55  1  0.95741170  0.52151634  0.15774354  1  0  -0.158019  0  3.690884  0  0  -0.176707  0  3.940063  0  0  -0.184018  0  3.960652  0  0  -0.084494  -0.172047  0  3.926353  0
C  C56  1  0.45680379  0.35349229  0.82723358  1  0  0.119741  0  3.748786  0  0  0.089618  0  4.007822  0  0  0.096119  0  4.025254  0  0  0.041705  0.085454  0  3.995998  0
C  C57  1  0.54320387  0.64650411  0.17277081  1  0  0.119567  0  3.749113  0  0  0.089366  0  4.008184  0  0  0.09587  0  4.025613  0  0  0.041645  0.085199  0  3.996355  0
C  C58  1  0.15656020  0.54977119  0.77408237  1  0  0.128706  0  3.7127  0  0  0.097212  0  3.972523  0  0  0.104183  0  3.9886  0  0  0.044753  0.092778  0  3.961544  0
C  C59  1  0.84344862  0.45022653  0.22591931  1  0  0.128683  0  3.712905  0  0  0.097215  0  3.972666  0  0  0.104186  0  3.988744  0  0  0.044769  0.09277  0  3.961692  0
N  N60  1  0.80937749  0.90971835  0.27397637  1  0  -0.34129  0  3.404169  0  0  -0.283069  0  3.635298  0  0  -0.298886  0  3.650742  0  0  -0.368026  -0.272401  0  3.624892  0
N  N61  1  0.19061949  0.09028495  0.72602130  1  0  -0.341475  0  3.404302  0  0  -0.283287  0  3.635388  0  0  -0.299097  0  3.650807  0  0  -0.368055  -0.272618  0  3.624984  0
N  N62  1  0.51149782  0.08642611  0.22010883  1  0  -0.421174  0  2.960754  0  0  -0.401795  0  3.239819  0  0  -0.414516  0  3.25298  0  0  -0.339411  -0.393139  0  3.230769  0
N  N63  1  0.48849695  0.91357448  0.77988914  1  0  -0.421214  0  2.960871  0  0  -0.401855  0  3.239925  0  0  -0.414575  0  3.253091  0  0  -0.339431  -0.393198  0  3.230879  0
N  N64  1  0.36147088  0.49133001  0.76623634  1  0  -0.315813  0  3.169582  0  0  -0.255648  0  3.423344  0  0  -0.26975  0  3.438765  0  0  -0.307212  -0.246158  0  3.412841  0
N  N65  1  0.63854203  0.50866357  0.23376625  1  0  -0.31575  0  3.169793  0  0  -0.255541  0  3.423512  0  0  -0.269643  0  3.438933  0  0  -0.30716  -0.246047  0  3.413007  0
O  O66  1  0.89022637  0.63304069  0.42506265  1  0  -0.750914  0  1.956965  0  0  -0.686467  0  2.199027  0  0  -0.714002  0  2.185129  0  0  -0.388696  -0.666755  0  2.207937  0
O  O67  1  0.10976802  0.36696128  0.57493520  1  0  -0.750858  0  1.957032  0  0  -0.686407  0  2.199054  0  0  -0.713944  0  2.185156  0  0  -0.388649  -0.666694  0  2.20796  0
O  O68  1  0.55735499  0.65323899  0.44316439  1  0  -0.73714  0  2.037228  0  0  -0.67045  0  2.285798  0  0  -0.700575  0  2.276094  0  0  -0.392378  -0.649022  0  2.291833  0
O  O69  1  0.44263862  0.34676572  0.55683388  1  0  -0.737031  0  2.037255  0  0  -0.670396  0  2.285835  0  0  -0.700521  0  2.276129  0  0  -0.392397  -0.648969  0  2.29187  0
O  O70  1  0.19489560  0.84223341  0.33302393  1  0  -0.711183  0  2.018213  0  0  -0.657881  0  2.272506  0  0  -0.684716  0  2.259436  0  0  -0.368268  -0.63848  0  2.280734  0
O  O71  1  0.80509582  0.15776858  0.66697336  1  0  -0.711145  0  2.018312  0  0  -0.65792  0  2.272522  0  0  -0.68476  0  2.259449  0  0  -0.368259  -0.638521  0  2.280751  0
O  O72  1  0.16014294  0.13738432  0.34762504  1  0  -0.604745  0  1.971275  0  0  -0.538378  0  2.181145  0  0  -0.564629  0  2.170128  0  0  -0.275836  -0.519935  0  2.188311  0
O  O73  1  0.83986031  0.86261211  0.65237691  1  0  -0.604726  0  1.971403  0  0  -0.538365  0  2.181139  0  0  -0.564617  0  2.170119  0  0  -0.275875  -0.519924  0  2.188301  0
O  O74  1  0.20022584  0.79120707  0.55427747  1  0  -0.878981  0  1.779796  0  0  -0.824239  0  1.954806  0  0  -0.84421  0  1.920834  0  0  -0.623974  -0.809865  0  1.97875  0
O  O75  1  0.79977854  0.20879069  0.44572304  1  0  -0.879079  0  1.779733  0  0  -0.824323  0  1.954761  0  0  -0.844293  0  1.920789  0  0  -0.624071  -0.809954  0  1.978705  0
O  O76  1  0.40248708  0.37292776  0.36125028  1  0  -0.898121  0  1.871055  0  0  -0.83232  0  2.066274  0  0  -0.85491  0  2.03229  0  0  -0.616072  -0.815973  0  2.08993  0
O  O77  1  0.59751395  0.62707141  0.63875020  1  0  -0.8981  0  1.871075  0  0  -0.832299  0  2.066297  0  0  -0.85489  0  2.03231  0  0  -0.616065  -0.815951  0  2.089953  0
