# generated using pymatgen
data_CuH14C18S(N2O3)2
_symmetry_space_group_name_H-M   'P 1'
_cell_length_a   10.97594538
_cell_length_b   11.94665027
_cell_length_c   17.52892323
_cell_angle_alpha   90.00008793
_cell_angle_beta   99.97049686
_cell_angle_gamma   90.00021244
_symmetry_Int_Tables_number   1
_chemical_formula_structural   CuH14C18S(N2O3)2
_chemical_formula_sum   'Cu4 H56 C72 S4 N16 O24'
_cell_volume   2263.77968274
_cell_formula_units_Z   4
loop_
 _symmetry_equiv_pos_site_id
 _symmetry_equiv_pos_as_xyz
  1  'x, y, z'
loop_
 _atom_site_type_symbol
 _atom_site_label
 _atom_site_symmetry_multiplicity
 _atom_site_fract_x
 _atom_site_fract_y
 _atom_site_fract_z
 _atom_site_occupancy
 _atom_site_pbe_bader_charge
 _atom_site_pbe_bader_spin_density
 _atom_site_pbe_cm5_charge
 _atom_site_pbe_ddec_charge
 _atom_site_pbe_ddec_spin_density
 _atom_site_pbe_ddec_sum_bond_order
 _atom_site_pbe_magmom
Cu  Cu0  1  0.57641667  0.33831985  0.54389426  1  1.07832  -0.552778  0.757091  0.784903  -0.744395  2.240665  -0.551
Cu  Cu1  1  0.42358352  0.83832381  0.95610395  1  1.078435  0.552767  0.757117  0.784848  0.744385  2.240827  0.551
Cu  Cu2  1  0.42358535  0.66167708  0.45610706  1  1.078414  -0.552766  0.757104  0.784854  -0.744379  2.240796  -0.551
Cu  Cu3  1  0.57641209  0.16167731  0.04389433  1  1.078379  0.552768  0.757097  0.784852  0.744384  2.24082  0.551
H  H4  1  0.82535122  0.18824514  0.90862904  1  0.544346  -1.6e-05  0.305995  0.296665  -9e-06  0.986724  0.0
H  H5  1  0.17464452  0.68824576  0.59137135  1  0.544385  1.6e-05  0.305912  0.296441  8e-06  0.986875  0.0
H  H6  1  0.17464800  0.81175347  0.09137309  1  0.544235  -1.6e-05  0.305974  0.296584  -9e-06  0.986847  0.0
H  H7  1  0.82535484  0.31175368  0.40862510  1  0.544263  1.6e-05  0.305932  0.296526  9e-06  0.986853  0.0
H  H8  1  0.92447040  0.50519346  0.05279790  1  0.542068  1.4e-05  0.305751  0.280866  1.7e-05  1.00738  0.0
H  H9  1  0.07553184  0.00519706  0.44720619  1  0.542032  -1.4e-05  0.305771  0.280824  -1.7e-05  1.00764  0.0
H  H10  1  0.07553249  0.49480516  0.94720581  1  0.542091  1.4e-05  0.305773  0.280894  1.7e-05  1.007415  0.0
H  H11  1  0.92446557  0.99480490  0.55279402  1  0.542085  -1.4e-05  0.305772  0.280894  -1.7e-05  1.007399  0.0
H  H12  1  0.52790138  0.30237682  0.70398300  1  0.105459  -0.002303  0.127463  0.107571  -0.001157  0.974629  -0.001
H  H13  1  0.47209777  0.80237975  0.79601334  1  0.105092  0.002304  0.127498  0.107602  0.001158  0.974616  0.001
H  H14  1  0.47209693  0.69761844  0.29601846  1  0.105125  -0.002304  0.127479  0.107576  -0.001158  0.974602  -0.001
H  H15  1  0.52790057  0.19761719  0.20398698  1  0.105096  0.002304  0.127491  0.107642  0.001158  0.97453  0.001
H  H16  1  0.65761292  0.28843521  0.83669046  1  0.137401  -0.000816  0.116828  0.134914  -0.000396  1.007012  -0.001
H  H17  1  0.34237588  0.78843321  0.66330922  1  0.137474  0.000815  0.116859  0.134945  0.000395  1.007023  0.001
H  H18  1  0.34237793  0.71156592  0.16331240  1  0.137439  -0.000816  0.116861  0.13496  -0.000396  1.007013  -0.001
H  H19  1  0.65762527  0.21156373  0.33669029  1  0.13745  0.000815  0.116855  0.134983  0.000396  1.007034  0.001
H  H20  1  0.97719884  0.35416368  0.72993719  1  0.112897  -0.001024  0.111677  0.120265  -0.000553  1.012827  -0.001
H  H21  1  0.02279847  0.85417087  0.77006754  1  0.112778  0.001024  0.111754  0.120314  0.000553  1.01279  0.001
H  H22  1  0.02279849  0.64583326  0.27006643  1  0.112808  -0.001024  0.111728  0.120337  -0.000553  1.012835  -0.001
H  H23  1  0.97720180  0.14583108  0.22992958  1  0.112789  0.001024  0.111759  0.120299  0.000553  1.012815  0.001
H  H24  1  0.83527688  0.35424616  0.60102030  1  0.143546  -0.00187  0.118021  0.092262  -0.000845  1.03362  -0.002
H  H25  1  0.16472604  0.85424911  0.89898282  1  0.143486  0.001869  0.118041  0.092254  0.000844  1.033648  0.002
H  H26  1  0.16472139  0.64574910  0.39898286  1  0.143819  -0.001869  0.118106  0.092387  -0.000845  1.033649  -0.002
H  H27  1  0.83527050  0.14575285  0.10101501  1  0.143551  0.001869  0.11806  0.092308  0.000844  1.033663  0.002
H  H28  1  0.04335798  0.08284698  0.98056714  1  0.092249  0.00013  0.109316  0.121891  0.000109  0.994072  0.0
H  H29  1  0.95664752  0.58284760  0.51943258  1  0.092267  -0.000131  0.109314  0.121917  -0.00011  0.994056  0.0
H  H30  1  0.95665133  0.91715330  0.01943961  1  0.09208  0.00013  0.109343  0.121965  0.000109  0.994063  0.0
H  H31  1  0.04335740  0.41715269  0.48056452  1  0.092108  -0.000131  0.109344  0.121933  -0.00011  0.994115  0.0
H  H32  1  0.18297358  0.07911550  0.10890108  1  0.136809  2.5e-05  0.100935  0.113442  6.3e-05  1.045784  0.0
H  H33  1  0.81703002  0.57910725  0.39109868  1  0.136814  -2.6e-05  0.100917  0.113435  -6.3e-05  1.045808  0.0
H  H34  1  0.81703298  0.92089148  0.89110421  1  0.136783  2.5e-05  0.100891  0.113389  6.3e-05  1.045814  0.0
H  H35  1  0.18297490  0.42088968  0.60889785  1  0.136782  -2.6e-05  0.100918  0.113415  -6.3e-05  1.045784  0.0
H  H36  1  0.19619106  0.24732762  0.19440043  1  0.087518  1e-05  0.106816  0.106898  -0.0  0.976543  0.0
H  H37  1  0.80380867  0.74732249  0.30559905  1  0.087486  -1e-05  0.106797  0.106845  0.0  0.976573  0.0
H  H38  1  0.80381187  0.75268103  0.80560158  1  0.087597  1e-05  0.106859  0.106967  -0.0  0.976629  0.0
H  H39  1  0.19619156  0.25267696  0.69439979  1  0.087527  -1e-05  0.106807  0.106892  0.0  0.976545  0.0
H  H40  1  0.05553318  0.41002818  0.15645269  1  0.111725  1e-06  0.106025  0.122336  -0.0  1.008008  0.0
H  H41  1  0.94445991  0.91002947  0.34354502  1  0.111739  -1e-06  0.106039  0.12234  0.0  1.007995  0.0
H  H42  1  0.94446425  0.58997546  0.84354695  1  0.111788  1e-06  0.106002  0.122278  -0.0  1.008019  0.0
H  H43  1  0.05553201  0.08997500  0.65645226  1  0.111763  -1e-06  0.105996  0.122315  0.0  1.008031  0.0
H  H44  1  0.81801392  0.64165078  0.05756781  1  0.141376  0.000796  0.109802  0.123036  0.000429  1.051319  0.001
H  H45  1  0.18198906  0.14165055  0.44243137  1  0.141414  -0.000796  0.109801  0.123016  -0.000429  1.051333  -0.001
H  H46  1  0.18198909  0.35834700  0.94243135  1  0.141402  0.000796  0.109808  0.123032  0.000429  1.05128  0.001
H  H47  1  0.81801311  0.85835141  0.55756427  1  0.141525  -0.000796  0.109808  0.123048  -0.000429  1.051324  -0.001
H  H48  1  0.67258869  0.80287393  0.02856046  1  0.14749  0.002092  0.128507  0.113263  0.001084  0.975985  0.002
H  H49  1  0.32741866  0.30287343  0.47144111  1  0.147517  -0.002093  0.128496  0.113248  -0.001085  0.975994  -0.002
H  H50  1  0.32741419  0.19712468  0.97144382  1  0.147538  0.002092  0.128489  0.113241  0.001084  0.976014  0.002
H  H51  1  0.67258709  0.69712853  0.52855952  1  0.147548  -0.002094  0.128523  0.113287  -0.001085  0.975972  -0.002
H  H52  1  0.41893298  0.61197156  0.88117383  1  0.105287  0.002327  0.122425  0.092316  0.001167  0.986082  0.001
H  H53  1  0.58106513  0.11197282  0.61882961  1  0.105544  -0.002326  0.122392  0.092286  -0.001166  0.986149  -0.001
H  H54  1  0.58107270  0.38803039  0.11882964  1  0.10548  0.002327  0.122418  0.092322  0.001167  0.986078  0.001
H  H55  1  0.41892951  0.88802412  0.38117027  1  0.105467  -0.002326  0.122384  0.092331  -0.001166  0.986117  -0.001
H  H56  1  0.55272092  0.44034296  0.90525114  1  0.142509  0.000935  0.116739  0.130742  0.000509  0.988479  0.001
H  H57  1  0.44727966  0.94034033  0.59474951  1  0.142451  -0.000935  0.116728  0.130698  -0.000509  0.988584  -0.001
H  H58  1  0.44728308  0.55965900  0.09474529  1  0.142346  0.000936  0.116747  0.130748  0.000509  0.988568  0.001
H  H59  1  0.55271687  0.05965745  0.40524888  1  0.14245  -0.000935  0.11674  0.130721  -0.000509  0.988563  -0.001
C  C60  1  0.62831006  0.30954303  0.71281275  1  0.53518  0.00223  0.054098  0.096763  0.000847  3.916346  0.001
C  C61  1  0.37168811  0.80954894  0.78718691  1  0.535796  -0.002231  0.054036  0.096651  -0.000848  3.916544  -0.001
C  C62  1  0.37168635  0.69045307  0.28719020  1  0.53597  0.002231  0.05405  0.096677  0.000848  3.916365  0.001
C  C63  1  0.62831026  0.19044800  0.21281227  1  0.535775  -0.00223  0.054052  0.096673  -0.000847  3.916418  -0.001
C  C64  1  0.70066357  0.30418106  0.78621757  1  -0.066915  -0.005037  -0.070795  -0.132197  -0.003445  3.901563  -0.004
C  C65  1  0.29933364  0.80418907  0.71378254  1  -0.067073  0.005037  -0.070881  -0.132311  0.003445  3.901406  0.004
C  C66  1  0.29933101  0.69581420  0.21378459  1  -0.067071  -0.005038  -0.07091  -0.132297  -0.003446  3.901429  -0.004
C  C67  1  0.70066565  0.19580786  0.28621675  1  -0.067004  0.005037  -0.070904  -0.132427  0.003445  3.901371  0.004
C  C68  1  0.82853288  0.31981161  0.79302906  1  -0.012388  0.003945  0.011175  0.029643  0.002699  3.946519  0.003
C  C69  1  0.17146158  0.81981666  0.70697245  1  -0.01282  -0.003945  0.011219  0.029677  -0.0027  3.946305  -0.003
C  C70  1  0.17146263  0.68018533  0.20697320  1  -0.012768  0.003945  0.011197  0.029635  0.0027  3.946287  0.003
C  C71  1  0.82853868  0.18018195  0.29302525  1  -0.012974  -0.003944  0.011232  0.029712  -0.002699  3.946153  -0.003
C  C72  1  0.87843660  0.34003904  0.72619317  1  0.048031  -0.005494  -0.07371  -0.137286  -0.003912  3.934764  -0.004
C  C73  1  0.12155980  0.84004491  0.77380859  1  0.048499  0.005494  -0.073789  -0.13728  0.003911  3.934759  0.004
C  C74  1  0.12155791  0.65996124  0.27381183  1  0.048447  -0.005494  -0.073727  -0.137304  -0.003912  3.934724  -0.004
C  C75  1  0.87843861  0.15995537  0.22618889  1  0.048696  0.005494  -0.073784  -0.137217  0.003911  3.934616  0.004
C  C76  1  0.80080392  0.34054860  0.65485190  1  0.426777  0.00111  0.048948  0.10273  6.3e-05  3.912164  0.001
C  C77  1  0.19919619  0.84055656  0.84514973  1  0.426848  -0.001112  0.048937  0.102658  -6.5e-05  3.912123  -0.001
C  C78  1  0.19919248  0.65944750  0.34515162  1  0.42634  0.001108  0.048834  0.102506  6.2e-05  3.912303  0.001
C  C79  1  0.80080128  0.15944288  0.15484820  1  0.426615  -0.00111  0.048945  0.10264  -6.4e-05  3.912203  -0.001
C  C80  1  0.91554894  0.32223176  0.86880780  1  1.412386  -7.6e-05  0.246537  0.47702  -8.2e-05  4.118809  0.0
C  C81  1  0.08445109  0.82223133  0.63119381  1  1.412328  7.6e-05  0.246575  0.477179  8.2e-05  4.118743  0.0
C  C82  1  0.08444746  0.67776685  0.13119572  1  1.412377  -7.6e-05  0.246565  0.477101  -8.2e-05  4.118917  0.0
C  C83  1  0.91555011  0.17776896  0.36880343  1  1.412335  7.6e-05  0.246533  0.47723  8.2e-05  4.118886  0.0
C  C84  1  0.96937597  0.24532174  0.99764650  1  0.385563  1.4e-05  0.092055  0.145711  1e-05  3.995524  0.0
C  C85  1  0.03061912  0.74532585  0.50235330  1  0.385734  -1.4e-05  0.092062  0.145733  -1e-05  3.995355  0.0
C  C86  1  0.03062698  0.75467687  0.00235493  1  0.385098  1.4e-05  0.091978  0.145512  1e-05  3.995478  0.0
C  C87  1  0.96937744  0.25467778  0.49764396  1  0.38513  -1.4e-05  0.092073  0.145797  -1e-05  3.995311  0.0
C  C88  1  0.04479646  0.15278184  0.02065273  1  -0.085463  0.000193  -0.086044  -0.154772  0.000207  3.964108  0.0
C  C89  1  0.95520376  0.65278263  0.47934728  1  -0.085433  -0.000194  -0.086031  -0.15484  -0.000207  3.963989  0.0
C  C90  1  0.95521013  0.84722179  0.97935142  1  -0.08544  0.000193  -0.085998  -0.154749  0.000207  3.963909  0.0
C  C91  1  0.04479835  0.34721765  0.52065064  1  -0.085348  -0.000194  -0.086063  -0.154852  -0.000207  3.964069  0.0
C  C92  1  0.12449201  0.15170309  0.09189918  1  -0.018149  -7.5e-05  -0.092277  -0.078264  -4e-06  3.995064  0.0
C  C93  1  0.87550828  0.65169760  0.40809798  1  -0.01785  7.4e-05  -0.092269  -0.078234  3e-06  3.994893  0.0
C  C94  1  0.87551463  0.84830389  0.90810326  1  -0.018155  -7.5e-05  -0.092232  -0.078077  -4e-06  3.994878  0.0
C  C95  1  0.12449384  0.34830101  0.59189937  1  -0.017783  7.4e-05  -0.092201  -0.078127  3e-06  3.994941  0.0
C  C96  1  0.13118097  0.24585088  0.13974540  1  -0.069987  2.1e-05  -0.090705  -0.075673  -8e-06  4.033399  0.0
C  C97  1  0.86881690  0.74584693  0.36025385  1  -0.069902  -2e-05  -0.09071  -0.075643  8e-06  4.033421  0.0
C  C98  1  0.86881916  0.75415526  0.86025741  1  -0.069911  2e-05  -0.090831  -0.075977  -8e-06  4.033623  0.0
C  C99  1  0.13118242  0.25415251  0.63974431  1  -0.070391  -2e-05  -0.090816  -0.075797  9e-06  4.033453  0.0
C  C100  1  0.05394700  0.33736927  0.11867437  1  -0.041332  -7e-06  -0.093857  -0.174268  -1.3e-05  3.986142  0.0
C  C101  1  0.94604572  0.83737065  0.38132494  1  -0.041893  7e-06  -0.093866  -0.174259  1.4e-05  3.986229  0.0
C  C102  1  0.94605128  0.66263269  0.88132823  1  -0.041289  -7e-06  -0.09375  -0.174029  -1.4e-05  3.986073  0.0
C  C103  1  0.05394900  0.16263214  0.61867154  1  -0.041281  7e-06  -0.093772  -0.174155  1.4e-05  3.986092  0.0
C  C104  1  0.96978383  0.33687354  0.04865125  1  0.330157  2.5e-05  0.093523  0.150928  1.9e-05  4.006876  0.0
C  C105  1  0.03021078  0.83687866  0.45134656  1  0.330166  -2.5e-05  0.093403  0.150731  -1.8e-05  4.006944  0.0
C  C106  1  0.03021819  0.66312507  0.95135007  1  0.330091  2.5e-05  0.093465  0.150857  1.8e-05  4.006969  0.0
C  C107  1  0.96978489  0.16312414  0.54864945  1  0.330119  -2.5e-05  0.093472  0.150816  -1.8e-05  4.006824  0.0
C  C108  1  0.76679173  0.41994664  0.00146103  1  1.3843  -0.000322  0.239147  0.467986  -0.000167  4.112246  0.0
C  C109  1  0.23321253  0.91994083  0.49853687  1  1.384176  0.000322  0.239166  0.468013  0.000167  4.112689  0.0
C  C110  1  0.23321032  0.58005616  0.99853916  1  1.38437  -0.000322  0.239144  0.467922  -0.000167  4.112295  0.0
C  C111  1  0.76678871  0.08005694  0.50145866  1  1.384349  0.000322  0.239128  0.467946  0.000167  4.112347  0.0
C  C112  1  0.69580726  0.52697343  0.98340686  1  -0.04434  -0.003665  0.0053  0.019235  -0.002498  3.958307  -0.002
C  C113  1  0.30419244  0.02697183  0.51659212  1  -0.044335  0.003664  0.005311  0.019269  0.002498  3.958213  0.002
C  C114  1  0.30419944  0.47302518  0.01659274  1  -0.04437  -0.003664  0.005322  0.019393  -0.002498  3.958231  -0.002
C  C115  1  0.69580227  0.97302761  0.48340492  1  -0.043849  0.003665  0.005322  0.019395  0.002498  3.958163  0.002
C  C116  1  0.73086153  0.63039973  0.01776018  1  -0.021837  0.005493  -0.077403  -0.150019  0.003818  3.918918  0.004
C  C117  1  0.26914136  0.13040073  0.48224011  1  -0.021709  -0.005492  -0.077386  -0.149984  -0.003817  3.918846  -0.004
C  C118  1  0.26914048  0.36959972  0.98224171  1  -0.021712  0.005491  -0.077429  -0.150064  0.003817  3.918959  0.004
C  C119  1  0.73086078  0.86960039  0.51775666  1  -0.022289  -0.005493  -0.077405  -0.150074  -0.003818  3.919014  -0.004
C  C120  1  0.65093805  0.72109529  0.00209661  1  0.480197  -0.001493  0.059465  0.119159  -0.00034  3.878459  -0.001
C  C121  1  0.34906714  0.22109492  0.49790234  1  0.480133  0.001491  0.059505  0.119157  0.000339  3.878392  0.001
C  C122  1  0.34906488  0.27890750  0.99790539  1  0.480117  -0.001492  0.059554  0.119237  -0.00034  3.878386  -0.001
C  C123  1  0.65093684  0.77890620  0.50209522  1  0.480128  0.001491  0.059504  0.119168  0.000338  3.878486  0.001
C  C124  1  0.50866104  0.61438917  0.91917788  1  0.438843  -0.001528  0.048351  0.08437  -0.000409  3.965447  -0.001
C  C125  1  0.49134087  0.11438669  0.58082260  1  0.438339  0.001527  0.048398  0.084448  0.000408  3.965416  0.001
C  C126  1  0.49134569  0.38561278  0.08082058  1  0.438914  -0.001527  0.048403  0.084508  -0.000408  3.965416  -0.001
C  C127  1  0.50865565  0.88560941  0.41917637  1  0.438926  0.001528  0.048415  0.084382  0.000409  3.96547  0.001
C  C128  1  0.58310973  0.52012607  0.93204245  1  -0.014434  0.004665  -0.07549  -0.141612  0.003299  3.947211  0.004
C  C129  1  0.41689272  0.02012163  0.56795628  1  -0.014072  -0.004665  -0.075532  -0.141669  -0.003299  3.947254  -0.004
C  C130  1  0.41689427  0.47987589  0.06795397  1  -0.014508  0.004665  -0.075549  -0.141804  0.003299  3.947429  0.004
C  C131  1  0.58310473  0.97987615  0.43204222  1  -0.014661  -0.004666  -0.075559  -0.141709  -0.003299  3.947308  -0.004
S  S132  1  0.62450856  0.45086097  0.42520586  1  3.762915  0.003601  0.532326  1.372775  0.001123  6.370862  0.004
S  S133  1  0.37549209  0.95086391  0.07479336  1  3.763044  -0.003603  0.532431  1.372942  -0.001127  6.37074  -0.004
S  S134  1  0.37549346  0.54913764  0.57479547  1  3.763121  0.003602  0.532226  1.372607  0.001125  6.371178  0.004
S  S135  1  0.62450719  0.04913553  0.92520650  1  3.763112  -0.003602  0.53239  1.372884  -0.001126  6.370878  -0.004
N  N136  1  0.67772010  0.32577437  0.64850205  1  -1.230267  -0.075823  -0.347694  -0.22739  -0.052924  3.622738  -0.065
N  N137  1  0.32228090  0.82577942  0.85149853  1  -1.230357  0.075809  -0.347649  -0.227194  0.052914  3.622732  0.065
N  N138  1  0.32227909  0.67422090  0.35150122  1  -1.230421  -0.075816  -0.347556  -0.227113  -0.05292  3.622759  -0.065
N  N139  1  0.67771748  0.17422170  0.14850009  1  -1.230376  0.075811  -0.34764  -0.22725  0.052917  3.622876  0.065
N  N140  1  0.89672256  0.24660055  0.92220591  1  -1.276536  0.000263  -0.389411  -0.365149  0.000169  3.594376  0.0
N  N141  1  0.10327528  0.74660424  0.57779536  1  -1.276632  -0.000263  -0.389323  -0.364902  -0.000169  3.594386  0.0
N  N142  1  0.10327942  0.75339722  0.07779712  1  -1.275963  0.000263  -0.38943  -0.365122  0.000169  3.594445  0.0
N  N143  1  0.89672407  0.25339604  0.42220166  1  -1.275953  -0.000262  -0.389424  -0.365197  -0.000169  3.594654  0.0
N  N144  1  0.88991911  0.42934115  0.03060171  1  -1.286081  -0.000436  -0.399014  -0.374954  -0.000272  3.578644  0.0
N  N145  1  0.11007495  0.92934657  0.46939785  1  -1.285688  0.000437  -0.398975  -0.374802  0.000272  3.578576  0.0
N  N146  1  0.11008016  0.57065830  0.96939872  1  -1.286062  -0.000437  -0.399039  -0.37498  -0.000272  3.578689  0.0
N  N147  1  0.88992160  0.07065706  0.53059998  1  -1.286027  0.000437  -0.399019  -0.375013  0.000272  3.578715  0.0
N  N148  1  0.54083337  0.71242595  0.95482765  1  -1.197311  0.075141  -0.346965  -0.223118  0.052609  3.628195  0.064
N  N149  1  0.45916985  0.21242244  0.54517479  1  -1.197481  -0.075149  -0.346956  -0.223092  -0.052614  3.628193  -0.064
N  N150  1  0.45917326  0.28757684  0.04517479  1  -1.197505  0.075138  -0.347031  -0.223234  0.052607  3.628302  0.064
N  N151  1  0.54083032  0.78757450  0.45482632  1  -1.197446  -0.075151  -0.346973  -0.223112  -0.052615  3.628268  -0.064
O  O152  1  0.00151803  0.39281820  0.87782241  1  -1.178336  0.000516  -0.300966  -0.518142  0.000337  2.213043  0.0
O  O153  1  0.99847668  0.89282170  0.62218206  1  -1.178406  -0.000516  -0.301033  -0.518323  -0.000337  2.212835  0.0
O  O154  1  0.99847750  0.60718208  0.12217872  1  -1.178444  0.000517  -0.300937  -0.51813  0.000338  2.213201  0.0
O  O155  1  0.00152542  0.10717858  0.37781642  1  -1.178414  -0.000516  -0.300969  -0.518297  -0.000337  2.212995  0.0
O  O156  1  0.71227647  0.32900081  0.98881477  1  -1.134379  -0.001503  -0.284488  -0.51306  -0.001229  2.267354  -0.001
O  O157  1  0.28771447  0.82900499  0.51118063  1  -1.134564  0.001503  -0.284462  -0.513024  0.001228  2.268043  0.001
O  O158  1  0.28772288  0.67099863  0.01118225  1  -1.134426  -0.001502  -0.284462  -0.512965  -0.001228  2.267503  -0.001
O  O159  1  0.71227939  0.17099697  0.48881345  1  -1.13443  0.001503  -0.284462  -0.512997  0.001229  2.267579  0.001
O  O160  1  0.68642766  0.45666782  0.51038757  1  -1.239671  -0.125122  -0.37066  -0.633283  -0.083785  2.177819  -0.11
O  O161  1  0.31357303  0.95667148  0.98961197  1  -1.239749  0.125148  -0.370681  -0.63334  0.083803  2.177842  0.11
O  O162  1  0.31357528  0.54332744  0.48961443  1  -1.239667  -0.125125  -0.370612  -0.633255  -0.083789  2.177942  -0.11
O  O163  1  0.68642437  0.04333048  0.01038881  1  -1.239701  0.125145  -0.370655  -0.633308  0.083801  2.177813  0.11
O  O164  1  0.52470742  0.36317681  0.42816984  1  -1.245402  -0.121209  -0.370485  -0.627867  -0.081254  2.166235  -0.107
O  O165  1  0.47529290  0.86318176  0.07182696  1  -1.245482  0.121225  -0.370581  -0.627959  0.081266  2.166161  0.107
O  O166  1  0.47529278  0.63682263  0.57183013  1  -1.245558  -0.121212  -0.370472  -0.627814  -0.081257  2.166287  -0.107
O  O167  1  0.52470923  0.13681936  0.92817038  1  -1.245509  0.121217  -0.370545  -0.62789  0.08126  2.166218  0.107
O  O168  1  0.57057437  0.55930548  0.39861286  1  -1.334171  -0.018433  -0.354759  -0.660348  -0.012636  2.281336  -0.017
O  O169  1  0.42942638  0.05931036  0.10138597  1  -1.334279  0.018437  -0.3548  -0.660402  0.012641  2.281433  0.017
O  O170  1  0.42943222  0.44069397  0.60139129  1  -1.33427  -0.018444  -0.354705  -0.660282  -0.012644  2.281333  -0.017
O  O171  1  0.57057201  0.94069076  0.89861208  1  -1.334306  0.01844  -0.354784  -0.660401  0.012642  2.281486  0.017
O  O172  1  0.71432162  0.41354434  0.37695594  1  -1.336275  -0.017651  -0.349601  -0.620272  -0.011897  2.16806  -0.016
O  O173  1  0.28567979  0.91354540  0.12304332  1  -1.336334  0.017646  -0.3496  -0.620295  0.011895  2.168119  0.016
O  O174  1  0.28567767  0.58645344  0.62304335  1  -1.336251  -0.017651  -0.349583  -0.620212  -0.011896  2.16817  -0.016
O  O175  1  0.71432226  0.08645237  0.87695687  1  -1.336228  0.017648  -0.349595  -0.620286  0.011896  2.168114  0.016
