# generated using pymatgen
data_Zn2H8C27N11O6
_symmetry_space_group_name_H-M   'P 1'
_cell_length_a   18.55213247
_cell_length_b   18.49492826
_cell_length_c   18.53698851
_cell_angle_alpha   100.25801707
_cell_angle_beta   111.81497823
_cell_angle_gamma   110.25937928
_symmetry_Int_Tables_number   1
_chemical_formula_structural   Zn2H8C27N11O6
_chemical_formula_sum   'Zn4 H16 C54 N22 O12'
_cell_volume   5184.65424996
_cell_formula_units_Z   2
loop_
 _symmetry_equiv_pos_site_id
 _symmetry_equiv_pos_as_xyz
  1  'x, y, z'
loop_
 _atom_site_type_symbol
 _atom_site_label
 _atom_site_symmetry_multiplicity
 _atom_site_fract_x
 _atom_site_fract_y
 _atom_site_fract_z
 _atom_site_occupancy
 _atom_site_pbe_bader_charge
 _atom_site_pbe_bader_spin_density
 _atom_site_pbe_cm5_charge
 _atom_site_pbe_ddec_charge
 _atom_site_pbe_ddec_spin_density
 _atom_site_pbe_ddec_sum_bond_order
 _atom_site_pbe_magmom
Zn  Zn0  1  0.86282179  0.00250799  0.36013330  1  1.272918  0  0.715237  0.638564  0  2.473801  0
Zn  Zn1  1  0.12801998  0.99863983  0.63277019  1  1.265965  0  0.718583  0.669486  0  2.399208  0
Zn  Zn2  1  0.09424703  0.10914708  0.48767430  1  1.204788  0  0.753764  0.621258  0  2.443887  0
Zn  Zn3  1  0.89579684  0.91611052  0.52032379  1  1.202093  0  0.756983  0.631541  0  2.42173  0
H  H4  1  0.87092268  0.02170124  0.19219503  1  0.156078  0  0.129069  0.128413  0  0.985399  0
H  H5  1  0.14102747  0.10614362  0.79952064  1  0.132442  0  0.125954  0.118014  0  1.004795  0
H  H6  1  0.12800159  0.01143499  0.36294643  1  0.118297  0  0.12396  0.117092  0  1.001657  0
H  H7  1  0.70870079  0.86708195  0.52231479  1  0.103858  0  0.125383  0.116627  0  0.987219  0
H  H8  1  0.84593487  0.73479136  0.41249156  1  0.113114  0  0.124648  0.116727  0  1.010534  0
H  H9  1  0.24553831  0.31277378  0.62311432  1  0.135363  0  0.13357  0.128229  0  0.969459  0
H  H10  1  0.19509664  0.89416975  0.54304296  1  0.116952  0  0.126262  0.123234  0  0.999281  0
H  H11  1  0.66193762  0.96599564  0.32356397  1  0.138168  0  0.13094  0.131286  0  0.97919  0
H  H12  1  0.83706757  0.72638283  0.54753749  1  0.141484  0  0.135237  0.128637  0  0.969094  0
H  H13  1  0.09866976  0.25863342  0.62406701  1  0.110059  0  0.125423  0.117368  0  1.009801  0
H  H14  1  0.14574277  0.18225147  0.35459025  1  0.082037  0  0.126916  0.119162  0  0.98165  0
H  H15  1  0.87006198  0.03295085  0.63760254  1  0.101555  0  0.12541  0.119705  0  0.993536  0
H  H16  1  0.62819717  0.57403299  0.01379831  1  0.129576  0  0.125543  0.134281  0  0.949837  0
H  H17  1  0.37041833  0.43289095  0.04549559  1  0.109068  0  0.125601  0.133997  0  0.950289  0
H  H18  1  0.46798192  0.58235614  0.93856463  1  0.136135  0  0.122978  0.132123  0  0.956655  0
H  H19  1  0.52937067  0.42346803  0.12062357  1  0.097202  0  0.123499  0.132859  0  0.957474  0
C  C20  1  0.93632567  0.05767144  0.24351185  1  0.445722  0  0.025566  -0.028325  0  3.919119  0
C  C21  1  0.07723618  0.08358974  0.74728228  1  0.446126  0  0.021116  -0.030468  0  3.91624  0
C  C22  1  0.04848133  0.81653720  0.62289815  1  0.824416  0  0.193845  0.101025  0  3.970405  0
C  C23  1  0.90326367  0.16536869  0.46596535  1  0.816003  0  0.195702  0.104328  0  3.946885  0
C  C24  1  0.13713706  0.98768404  0.41346714  1  0.407331  0  0.018617  -0.038819  0  3.9145  0
C  C25  1  0.71141484  0.89388668  0.47523158  1  0.38768  0  0.014464  -0.054015  0  3.961323  0
C  C26  1  0.83859966  0.77362978  0.37558450  1  0.451118  0  0.023587  -0.04211  0  3.885095  0
C  C27  1  0.24513555  0.26357369  0.64759183  1  0.383525  0  0.026413  -0.049508  0  3.905425  0
C  C28  1  0.17042100  0.92707036  0.50532448  1  0.455224  0  0.024408  -0.027312  0  3.910065  0
C  C29  1  0.68767246  0.94443199  0.37344101  1  0.450036  0  0.021933  -0.032171  0  3.920174  0
C  C30  1  0.80101081  0.82757114  0.28011174  1  0.849487  0  0.192294  0.094554  0  3.954685  0
C  C31  1  0.26171609  0.18507609  0.72213752  1  0.850341  0  0.190117  0.090229  0  3.993528  0
C  C32  1  0.90630513  0.76408434  0.57145205  1  0.407704  0  0.029971  -0.044833  0  3.908357  0
C  C33  1  0.03562839  0.21979589  0.57018105  1  0.45824  0  0.030121  -0.02944  0  3.872178  0
C  C34  1  0.07693250  0.14027691  0.32656089  1  0.454708  0  0.017844  -0.054181  0  3.959138  0
C  C35  1  0.93805008  0.04575936  0.66529384  1  0.431031  0  0.016811  -0.046048  0  3.92099  0
C  C36  1  0.01264288  0.10983477  0.24307898  1  0.117622  0  -0.027074  0.031273  0  4.213612  0
C  C37  1  0.00249041  0.08563715  0.74908192  1  0.077167  0  -0.02532  0.037285  0  4.199975  0
C  C38  1  0.97435911  0.74153511  0.59929989  1  0.156461  0  -0.003012  0.013697  0  4.165212  0
C  C39  1  0.96614445  0.23904402  0.53470517  1  0.16421  0  -0.001785  0.013725  0  4.153412  0
C  C40  1  0.17874753  0.93808630  0.43484434  1  0.116114  0  -0.024914  0.036895  0  4.194427  0
C  C41  1  0.64762429  0.90879983  0.41852089  1  0.127705  0  -0.026239  0.033375  0  4.208408  0
C  C42  1  0.77939622  0.75062271  0.29191336  1  0.079709  0  0.00074  0.036615  0  4.133096  0
C  C43  1  0.28386010  0.26905832  0.73082922  1  0.173873  0  -0.001908  0.026257  0  4.14032  0
C  C44  1  0.52192780  0.44843672  0.99867478  1  0.317504  0  0.099545  0.058138  0  3.61869  0
C  C45  1  0.47799024  0.55812469  0.06139852  1  0.322122  0  0.099255  0.057845  0  3.606878  0
C  C46  1  0.57017292  0.54255688  0.01987960  1  -0.013679  0  -0.051954  -0.090145  0  3.587019  0
C  C47  1  0.42811266  0.46320137  0.03838621  1  -0.014327  0  -0.050125  -0.09332  0  3.57367  0
C  C48  1  0.70883081  0.67504118  0.23487846  1  0.310984  0  -0.039043  -0.073509  0  4.147419  0
C  C49  1  0.32948152  0.33720615  0.80453322  1  0.017184  0  -0.036555  -0.065108  0  4.155672  0
C  C50  1  0.51634338  0.45919997  0.08086606  1  0.011379  0  -0.056543  -0.103165  0  3.602808  0
C  C51  1  0.48229478  0.54703166  0.97843518  1  -0.038645  0  -0.057696  -0.103634  0  3.600952  0
C  C52  1  0.56864259  0.55570247  0.10625796  1  0.128417  0  0.023018  0.117791  0  3.771408  0
C  C53  1  0.43076794  0.45044369  0.95244195  1  0.12692  0  0.025962  0.125231  0  3.76219  0
C  C54  1  0.64229559  0.61579536  0.18021101  1  -0.529268  0  -0.036356  -0.088856  0  4.070856  0
C  C55  1  0.36871881  0.39201378  0.87233070  1  -0.290126  0  -0.042214  -0.102397  0  4.066485  0
C  C56  1  0.96941789  0.66483546  0.59961823  1  -0.106394  0  -0.016079  -0.048224  0  4.069168  0
C  C57  1  0.96402284  0.31404551  0.55622603  1  0.07195  0  -0.011857  -0.037769  0  4.058012  0
C  C58  1  0.96595304  0.59655653  0.59623140  1  -0.037586  0  -0.01829  -0.018687  0  4.278067  0
C  C59  1  0.96378243  0.38153494  0.57066618  1  -0.130871  0  -0.019791  -0.024434  0  4.274915  0
C  C60  1  0.96401672  0.52284588  0.59042803  1  0.138532  0  -0.005611  -0.000781  0  4.202248  0
C  C61  1  0.96365728  0.45484955  0.58264574  1  -0.190253  0  -0.003805  0.005753  0  4.200659  0
C  C62  1  0.56500420  0.89529991  0.40886175  1  -0.075031  0  -0.024087  -0.056963  0  4.065533  0
C  C63  1  0.22918720  0.91411983  0.40488628  1  -0.340473  0  -0.02916  -0.067223  0  4.060173  0
C  C64  1  0.49328970  0.88877953  0.39872406  1  -0.099776  0  -0.042596  -0.054195  0  4.323672  0
C  C65  1  0.28461331  0.89935719  0.39323970  1  0.193829  0  -0.04324  -0.051645  0  4.325714  0
C  C66  1  0.41781185  0.88661703  0.39130422  1  0.122476  0  -0.02322  -0.012996  0  4.241458  0
C  C67  1  0.35126942  0.88981133  0.38826841  1  -0.197943  0  -0.025467  -0.019288  0  4.241706  0
C  C68  1  0.01877785  0.12514348  0.17384622  1  -0.372222  0  -0.02414  -0.055528  0  4.070653  0
C  C69  1  0.99678323  0.11140716  0.82174352  1  -0.431072  0  -0.031302  -0.069132  0  4.058853  0
C  C70  1  0.01621083  0.13261232  0.10838451  1  0.196681  0  -0.044866  -0.06184  0  4.328558  0
C  C71  1  0.00088810  0.12577195  0.89101804  1  0.317994  0  -0.042441  -0.048152  0  4.3243  0
C  C72  1  0.01193420  0.13628885  0.03544978  1  -0.209443  0  -0.022842  -0.005913  0  4.243184  0
C  C73  1  0.00572275  0.13443376  0.96626412  1  0.071804  0  -0.028563  -0.028389  0  4.245947  0
N  N74  1  0.95394334  0.05738949  0.32025636  1  -0.790682  0  -0.263794  -0.183733  0  3.534766  0
N  N75  1  0.05803624  0.04458931  0.66949732  1  -0.781685  0  -0.27385  -0.187925  0  3.624354  0
N  N76  1  0.02624996  0.87620341  0.60947331  1  -0.6956  0  -0.232831  -0.216531  0  3.473386  0
N  N77  1  0.93317260  0.10918922  0.46259316  1  -0.728579  0  -0.248357  -0.206806  0  3.59171  0
N  N78  1  0.10867496  0.00596272  0.46832504  1  -0.796384  0  -0.280301  -0.189361  0  3.581163  0
N  N79  1  0.78262801  0.91876225  0.46394577  1  -0.80751  0  -0.282499  -0.190825  0  3.616928  0
N  N80  1  0.88860666  0.85686912  0.40947706  1  -0.711671  0  -0.245164  -0.141806  0  3.479766  0
N  N81  1  0.20346583  0.18329945  0.59682439  1  -0.736263  0  -0.244546  -0.128603  0  3.53949  0
N  N82  1  0.12936186  0.96822399  0.52474058  1  -0.793424  0  -0.275974  -0.183957  0  3.642229  0
N  N83  1  0.76794937  0.95034603  0.40122503  1  -0.780219  0  -0.262518  -0.192063  0  3.519593  0
N  N84  1  0.86566023  0.88952979  0.35041610  1  -0.738381  0  -0.246406  -0.209764  0  3.54382  0
N  N85  1  0.21360176  0.13539286  0.64269665  1  -0.706122  0  -0.229498  -0.222729  0  3.411033  0
N  N86  1  0.93910741  0.84406663  0.57788090  1  -0.745774  0  -0.242706  -0.126184  0  3.540379  0
N  N87  1  0.01453294  0.14243735  0.52526361  1  -0.727527  0  -0.245575  -0.141307  0  3.528643  0
N  N88  1  0.04088588  0.10885882  0.37194383  1  -0.814529  0  -0.278583  -0.182839  0  3.59959  0
N  N89  1  0.97213995  0.02082059  0.61856149  1  -0.802168  0  -0.28215  -0.189965  0  3.598373  0
N  N90  1  0.53913101  0.38621933  0.95738364  1  0.382934  0  0.053332  0.512163  0  4.238825  0
N  N91  1  0.45696905  0.61786714  0.10187128  1  0.382712  0  0.056452  0.511452  0  4.23325  0
N  N92  1  0.13794956  0.83514313  0.65515359  1  0.283816  0  0.058512  0.503247  0  4.215451  0
N  N93  1  0.82361298  0.14920983  0.39844157  1  0.306099  0  0.05823  0.503414  0  4.208671  0
N  N94  1  0.75615117  0.84637514  0.21111305  1  0.287863  0  0.058907  0.504926  0  4.19627  0
N  N95  1  0.27885500  0.14828067  0.78337909  1  0.31481  0  0.058297  0.501177  0  4.19409  0
O  O96  1  0.53420914  0.32698621  0.98108469  1  -0.440225  0  -0.131588  -0.323451  0  1.857006  0
O  O97  1  0.55312048  0.39638933  0.89855343  1  -0.45155  0  -0.143378  -0.341637  0  1.848326  0
O  O98  1  0.44175397  0.66664318  0.06808362  1  -0.430518  0  -0.131883  -0.323246  0  1.841803  0
O  O99  1  0.45789186  0.61485926  0.16852817  1  -0.442019  0  -0.139404  -0.335808  0  1.845253  0
O  O100  1  0.15926061  0.77981098  0.66403845  1  -0.406241  0  -0.109089  -0.290687  0  1.860564  0
O  O101  1  0.19095488  0.90855734  0.67214212  1  -0.49956  0  -0.137974  -0.337162  0  1.996347  0
O  O102  1  0.79279794  0.19808275  0.40386437  1  -0.413854  0  -0.111239  -0.293104  0  1.858483  0
O  O103  1  0.79013249  0.08584231  0.33499741  1  -0.502335  0  -0.13737  -0.337659  0  1.984068  0
O  O104  1  0.70498598  0.79065667  0.14317806  1  -0.402696  0  -0.110125  -0.292507  0  1.872858  0
O  O105  1  0.76979099  0.92084644  0.22412855  1  -0.523424  0  -0.136313  -0.331669  0  2.006666  0
O  O106  1  0.32614100  0.19226585  0.85708546  1  -0.397038  0  -0.10118  -0.279888  0  1.890835  0
O  O107  1  0.24240212  0.06978804  0.75881306  1  -0.561629  0  -0.147625  -0.339256  0  2.037916  0
