# generated using pymatgen
data_CuH16C16S2Br
_symmetry_space_group_name_H-M   'P 1'
_cell_length_a   7.02625271
_cell_length_b   12.07574948
_cell_length_c   20.68141410
_cell_angle_alpha   90.00023024
_cell_angle_beta   90.00016323
_cell_angle_gamma   90.00024478
_symmetry_Int_Tables_number   1
_chemical_formula_structural   CuH16C16S2Br
_chemical_formula_sum   'Cu4 H64 C64 S8 Br4'
_cell_volume   1754.76147476
_cell_formula_units_Z   4
loop_
 _symmetry_equiv_pos_site_id
 _symmetry_equiv_pos_as_xyz
  1  'x, y, z'
loop_
 _atom_site_type_symbol
 _atom_site_label
 _atom_site_symmetry_multiplicity
 _atom_site_fract_x
 _atom_site_fract_y
 _atom_site_fract_z
 _atom_site_occupancy
 _atom_site_hle17_bader_spin_density
 _atom_site_hle17_ddec_charge
 _atom_site_hle17_ddec_spin_density
 _atom_site_hle17_ddec_sum_bond_order
 _atom_site_hle17_magmom
 _atom_site_hse06_10hf_bader_spin_density
 _atom_site_hse06_10hf_ddec_charge
 _atom_site_hse06_10hf_ddec_spin_density
 _atom_site_hse06_10hf_ddec_sum_bond_order
 _atom_site_hse06_10hf_magmom
 _atom_site_hse06_bader_spin_density
 _atom_site_hse06_ddec_charge
 _atom_site_hse06_ddec_spin_density
 _atom_site_hse06_ddec_sum_bond_order
 _atom_site_hse06_magmom
 _atom_site_pbe_bader_spin_density
 _atom_site_pbe_cm5_charge
 _atom_site_pbe_ddec_charge
 _atom_site_pbe_ddec_spin_density
 _atom_site_pbe_ddec_sum_bond_order
 _atom_site_pbe_magmom
Cu  Cu0  1  0.24478996  0.33227701  0.24999937  1  0  0.227373  0  2.195578  0  0  0.14756  0  2.695965  0  0  0.153625  0  2.648499  0  0  0.264095  0.145709  0  2.72634  0
Cu  Cu1  1  0.25523476  0.83228332  0.75000059  1  0  0.227416  0  2.195573  0  0  0.147614  0  2.695944  0  0  0.153716  0  2.648453  0  0  0.264124  0.14576  0  2.726326  0
Cu  Cu2  1  0.74476709  0.16771558  0.25000039  1  0  0.227479  0  2.195479  0  0  0.14768  0  2.695861  0  0  0.153782  0  2.648369  0  0  0.264149  0.145837  0  2.726198  0
Cu  Cu3  1  0.75522897  0.66772437  0.75000112  1  0  0.227454  0  2.195591  0  0  0.147655  0  2.695983  0  0  0.153745  0  2.648518  0  0  0.264133  0.145811  0  2.726328  0
H  H4  1  0.47097669  0.23674954  0.51187991  1  0  0.084563  0  0.987127  0  0  0.093922  0  1.054627  0  0  0.095752  0  1.055524  0  0  0.093042  0.092555  0  1.054155  0
H  H5  1  0.02902113  0.73675683  0.01188014  1  0  0.084632  0  0.987214  0  0  0.093994  0  1.05468  0  0  0.095825  0  1.055575  0  0  0.093083  0.092623  0  1.054216  0
H  H6  1  0.47097014  0.23675118  0.98812008  1  0  0.084564  0  0.987211  0  0  0.093912  0  1.054719  0  0  0.095745  0  1.055609  0  0  0.093017  0.092551  0  1.054243  0
H  H7  1  0.97097304  0.26324871  0.51188116  1  0  0.084561  0  0.987242  0  0  0.093913  0  1.05474  0  0  0.095747  0  1.055629  0  0  0.093014  0.092547  0  1.054266  0
H  H8  1  0.52902658  0.76324853  0.48812445  1  0  0.084559  0  0.987225  0  0  0.09391  0  1.054727  0  0  0.09574  0  1.055625  0  0  0.093031  0.092547  0  1.054252  0
H  H9  1  0.97097218  0.26324787  0.98812083  1  0  0.084559  0  0.987225  0  0  0.093915  0  1.054726  0  0  0.095748  0  1.055617  0  0  0.093031  0.092562  0  1.054238  0
H  H10  1  0.52902459  0.76325020  0.01187558  1  0  0.08454  0  0.987187  0  0  0.093893  0  1.054695  0  0  0.095723  0  1.055593  0  0  0.093015  0.092537  0  1.054214  0
H  H11  1  0.02902454  0.73675516  0.48811595  1  0  0.084562  0  0.987259  0  0  0.093914  0  1.054759  0  0  0.095747  0  1.055649  0  0  0.093018  0.092551  0  1.054277  0
H  H12  1  0.62505525  0.31457547  0.60940919  1  0  0.0903  0  0.937739  0  0  0.103562  0  0.991597  0  0  0.106479  0  0.99046  0  0  0.098818  0.101414  0  0.992546  0
H  H13  1  0.87494500  0.81457945  0.10941073  1  0  0.090272  0  0.937698  0  0  0.103525  0  0.991573  0  0  0.106442  0  0.990437  0  0  0.098801  0.101377  0  0.992522  0
H  H14  1  0.62504647  0.31457478  0.89058871  1  0  0.090254  0  0.937753  0  0  0.103514  0  0.991616  0  0  0.106431  0  0.99048  0  0  0.098799  0.101368  0  0.992563  0
H  H15  1  0.12504713  0.18542345  0.60941170  1  0  0.090269  0  0.937696  0  0  0.103525  0  0.991568  0  0  0.106444  0  0.99043  0  0  0.098802  0.101376  0  0.992516  0
H  H16  1  0.37494802  0.68542924  0.39059178  1  0  0.09023  0  0.937587  0  0  0.103516  0  0.991438  0  0  0.106434  0  0.990301  0  0  0.098799  0.101365  0  0.992389  0
H  H17  1  0.12505400  0.18542525  0.89059025  1  0  0.090256  0  0.937715  0  0  0.103511  0  0.991586  0  0  0.106429  0  0.990449  0  0  0.098791  0.10136  0  0.992536  0
H  H18  1  0.37494827  0.68542744  0.10940791  1  0  0.090316  0  0.93765  0  0  0.103579  0  0.991512  0  0  0.106496  0  0.990375  0  0  0.098829  0.101431  0  0.99246  0
H  H19  1  0.87494760  0.81458125  0.39058686  1  0  0.09023  0  0.937719  0  0  0.103486  0  0.991598  0  0  0.106402  0  0.990462  0  0  0.098769  0.101336  0  0.992548  0
H  H20  1  0.85444120  0.57937133  0.49444311  1  0  0.085057  0  0.9718  0  0  0.096951  0  1.033716  0  0  0.098919  0  1.034044  0  0  0.096219  0.095477  0  1.033645  0
H  H21  1  0.64555339  0.07937237  0.99444256  1  0  0.085022  0  0.971805  0  0  0.096927  0  1.033718  0  0  0.098891  0  1.03405  0  0  0.096204  0.095462  0  1.03364  0
H  H22  1  0.85444200  0.57936717  0.00555729  1  0  0.084966  0  0.971907  0  0  0.096867  0  1.033815  0  0  0.09883  0  1.034148  0  0  0.096168  0.095413  0  1.033727  0
H  H23  1  0.35443627  0.92063402  0.49444085  1  0  0.085041  0  0.971837  0  0  0.096952  0  1.033727  0  0  0.098915  0  1.034059  0  0  0.09622  0.095501  0  1.033634  0
H  H24  1  0.14555781  0.42063171  0.50555835  1  0  0.085011  0  0.971884  0  0  0.096924  0  1.033782  0  0  0.098887  0  1.034113  0  0  0.096201  0.095485  0  1.033678  0
H  H25  1  0.35443423  0.92062819  0.00555842  1  0  0.085046  0  0.971828  0  0  0.096956  0  1.033721  0  0  0.09892  0  1.034052  0  0  0.09621  0.095494  0  1.03364  0
H  H26  1  0.14556127  0.42062842  0.99444078  1  0  0.085057  0  0.971779  0  0  0.096956  0  1.033697  0  0  0.09892  0  1.034028  0  0  0.09622  0.095489  0  1.033621  0
H  H27  1  0.64556131  0.07936903  0.50556013  1  0  0.08505  0  0.971822  0  0  0.096952  0  1.033744  0  0  0.098915  0  1.034075  0  0  0.096204  0.095501  0  1.033653  0
H  H28  1  0.71197478  0.49708773  0.39609038  1  0  0.091035  0  0.957465  0  0  0.099854  0  1.020732  0  0  0.102743  0  1.019769  0  0  0.094832  0.09771  0  1.021591  0
H  H29  1  0.78802639  0.99708915  0.89609018  1  0  0.090988  0  0.95748  0  0  0.099815  0  1.020741  0  0  0.102705  0  1.019778  0  0  0.094819  0.097672  0  1.021598  0
H  H30  1  0.71197071  0.49708755  0.10391017  1  0  0.090972  0  0.957503  0  0  0.099804  0  1.020768  0  0  0.102693  0  1.019806  0  0  0.094816  0.097661  0  1.021626  0
H  H31  1  0.21196387  0.00291573  0.39608859  1  0  0.090959  0  0.957423  0  0  0.0998  0  1.020685  0  0  0.102692  0  1.019717  0  0  0.094795  0.097658  0  1.021543  0
H  H32  1  0.28803561  0.50290620  0.60391205  1  0  0.090967  0  0.957424  0  0  0.099791  0  1.02071  0  0  0.10268  0  1.019749  0  0  0.094809  0.097647  0  1.021568  0
H  H33  1  0.21196122  0.00291058  0.10391128  1  0  0.091029  0  0.957456  0  0  0.099845  0  1.020739  0  0  0.102735  0  1.019773  0  0  0.094824  0.097695  0  1.021607  0
H  H34  1  0.28803541  0.50290473  0.89608742  1  0  0.090966  0  0.957405  0  0  0.099791  0  1.020693  0  0  0.102679  0  1.019732  0  0  0.094813  0.097646  0  1.021552  0
H  H35  1  0.78802944  0.99708235  0.60391093  1  0  0.090995  0  0.957462  0  0  0.099827  0  1.020721  0  0  0.102717  0  1.019758  0  0  0.094818  0.097685  0  1.021578  0
H  H36  1  0.35872732  0.26221247  0.40462804  1  0  0.096794  0  0.963563  0  0  0.111514  0  1.02727  0  0  0.112082  0  1.0292  0  0  0.094442  0.11107  0  1.026028  0
H  H37  1  0.14127113  0.76220939  0.90462963  1  0  0.096823  0  0.963435  0  0  0.111555  0  1.027142  0  0  0.112122  0  1.029078  0  0  0.09444  0.111086  0  1.025924  0
H  H38  1  0.35872318  0.26221306  0.09537259  1  0  0.09679  0  0.963543  0  0  0.111519  0  1.027264  0  0  0.112085  0  1.029201  0  0  0.094462  0.11108  0  1.026017  0
H  H39  1  0.85872632  0.23779472  0.40462825  1  0  0.096728  0  0.963523  0  0  0.111476  0  1.027221  0  0  0.112048  0  1.029145  0  0  0.094412  0.111007  0  1.026003  0
H  H40  1  0.64128023  0.73778478  0.59537439  1  0  0.09677  0  0.963575  0  0  0.111462  0  1.027296  0  0  0.112025  0  1.029237  0  0  0.094475  0.111026  0  1.026041  0
H  H41  1  0.85872503  0.23778951  0.09537232  1  0  0.096756  0  0.963537  0  0  0.111498  0  1.027237  0  0  0.112066  0  1.029174  0  0  0.094417  0.11103  0  1.026018  0
H  H42  1  0.64127582  0.73778750  0.90462597  1  0  0.096768  0  0.963561  0  0  0.111475  0  1.027275  0  0  0.112038  0  1.029216  0  0  0.094456  0.111032  0  1.026033  0
H  H43  1  0.14127268  0.76220667  0.59536983  1  0  0.096822  0  0.963529  0  0  0.111581  0  1.027184  0  0  0.112161  0  1.029108  0  0  0.094428  0.11111  0  1.025966  0
H  H44  1  0.56485552  0.27140701  0.35590469  1  0  0.098051  0  0.96996  0  0  0.108774  0  1.04564  0  0  0.112029  0  1.041792  0  0  0.087231  0.106122  0  1.048708  0
H  H45  1  0.93513367  0.77140796  0.85590705  1  0  0.097976  0  0.970069  0  0  0.108712  0  1.045729  0  0  0.111976  0  1.041878  0  0  0.087176  0.106062  0  1.048795  0
H  H46  1  0.56485463  0.27141539  0.14409374  1  0  0.097993  0  0.970057  0  0  0.108756  0  1.045691  0  0  0.11203  0  1.041827  0  0  0.087198  0.106103  0  1.04876  0
H  H47  1  0.06486195  0.22859084  0.35590536  1  0  0.098051  0  0.970051  0  0  0.108784  0  1.045703  0  0  0.112047  0  1.041848  0  0  0.087238  0.106132  0  1.048769  0
H  H48  1  0.43514491  0.72858858  0.64409629  1  0  0.098017  0  0.970007  0  0  0.108711  0  1.045682  0  0  0.111988  0  1.041822  0  0  0.087213  0.106057  0  1.04875  0
H  H49  1  0.06486107  0.22858929  0.14409490  1  0  0.097903  0  0.969988  0  0  0.108652  0  1.045672  0  0  0.111931  0  1.041807  0  0  0.08712  0.105998  0  1.048741  0
H  H50  1  0.43514153  0.72858600  0.85590289  1  0  0.097958  0  0.970035  0  0  0.108667  0  1.045712  0  0  0.111948  0  1.041852  0  0  0.087165  0.106016  0  1.048782  0
H  H51  1  0.93513990  0.77140806  0.64409271  1  0  0.097969  0  0.969959  0  0  0.108698  0  1.045652  0  0  0.111967  0  1.041797  0  0  0.087176  0.106047  0  1.048713  0
H  H52  1  0.11458945  0.54185590  0.34640882  1  0  0.107528  0  0.912886  0  0  0.127141  0  0.963178  0  0  0.128566  0  0.962336  0  0  0.10244  0.126002  0  0.963936  0
H  H53  1  0.38541112  0.04185254  0.84640948  1  0  0.107595  0  0.912809  0  0  0.127196  0  0.963111  0  0  0.128621  0  0.962267  0  0  0.102434  0.126058  0  0.963866  0
H  H54  1  0.11458011  0.54185855  0.15358883  1  0  0.107517  0  0.912941  0  0  0.127153  0  0.963197  0  0  0.128577  0  0.962353  0  0  0.102447  0.126015  0  0.963954  0
H  H55  1  0.61457730  0.95814868  0.34641052  1  0  0.107492  0  0.912882  0  0  0.12716  0  0.963162  0  0  0.128587  0  0.962317  0  0  0.102442  0.126018  0  0.963918  0
H  H56  1  0.88541951  0.45814466  0.65359119  1  0  0.107548  0  0.91287  0  0  0.127166  0  0.963151  0  0  0.128591  0  0.962307  0  0  0.102433  0.126027  0  0.963907  0
H  H57  1  0.61457934  0.95814636  0.15359005  1  0  0.107537  0  0.91287  0  0  0.127181  0  0.963127  0  0  0.128606  0  0.962284  0  0  0.102445  0.126042  0  0.963885  0
H  H58  1  0.88542459  0.45814450  0.84640972  1  0  0.10752  0  0.912873  0  0  0.127181  0  0.963146  0  0  0.128605  0  0.962305  0  0  0.10244  0.126042  0  0.963903  0
H  H59  1  0.38542028  0.04185354  0.65359046  1  0  0.107522  0  0.912878  0  0  0.127168  0  0.963147  0  0  0.128593  0  0.962303  0  0  0.102442  0.126028  0  0.963906  0
H  H60  1  0.07703576  0.42227255  0.39417474  1  0  0.101729  0  0.950014  0  0  0.115414  0  1.015454  0  0  0.116464  0  1.016142  0  0  0.09622  0.114599  0  1.015103  0
H  H61  1  0.42295953  0.92227099  0.89417515  1  0  0.101751  0  0.950006  0  0  0.115419  0  1.015459  0  0  0.116467  0  1.016151  0  0  0.096193  0.114605  0  1.015106  0
H  H62  1  0.07703455  0.42227238  0.10582357  1  0  0.101753  0  0.949967  0  0  0.115429  0  1.015408  0  0  0.116478  0  1.016096  0  0  0.096206  0.114615  0  1.015055  0
H  H63  1  0.57703641  0.07773222  0.39417796  1  0  0.101665  0  0.949889  0  0  0.115386  0  1.015352  0  0  0.116436  0  1.016039  0  0  0.096193  0.114569  0  1.015  0
H  H64  1  0.92296325  0.57772801  0.60582624  1  0  0.101759  0  0.950006  0  0  0.115431  0  1.015448  0  0  0.116479  0  1.016139  0  0  0.096221  0.114616  0  1.015092  0
H  H65  1  0.57703378  0.07772957  0.10582534  1  0  0.101708  0  0.949979  0  0  0.115371  0  1.015449  0  0  0.116419  0  1.016141  0  0  0.096183  0.114558  0  1.015095  0
H  H66  1  0.92296587  0.57772818  0.89417693  1  0  0.101729  0  0.949962  0  0  0.115449  0  1.015392  0  0  0.116498  0  1.016083  0  0  0.096213  0.114636  0  1.015038  0
H  H67  1  0.42296544  0.92227248  0.60582108  1  0  0.101705  0  0.94997  0  0  0.115398  0  1.015416  0  0  0.116446  0  1.016108  0  0  0.096217  0.114586  0  1.015059  0
C  C68  1  0.56181199  0.30967348  0.50743015  1  0  -0.125157  0  3.751325  0  0  -0.145732  0  4.002936  0  0  -0.148365  0  4.024348  0  0  -0.098502  -0.143916  0  3.9885  0
C  C69  1  0.93819307  0.80967348  0.00743175  1  0  -0.125343  0  3.751395  0  0  -0.145911  0  4.002998  0  0  -0.148545  0  4.024412  0  0  -0.098555  -0.144093  0  3.988565  0
C  C70  1  0.56179979  0.30967184  0.99256816  1  0  -0.125251  0  3.751346  0  0  -0.145798  0  4.002945  0  0  -0.148434  0  4.024361  0  0  -0.098431  -0.14399  0  3.988506  0
C  C71  1  0.06180534  0.19033204  0.50743267  1  0  -0.125271  0  3.751309  0  0  -0.145843  0  4.002904  0  0  -0.148477  0  4.024317  0  0  -0.09847  -0.14403  0  3.98847  0
C  C72  1  0.43819412  0.69032791  0.49257034  1  0  -0.125228  0  3.751415  0  0  -0.145794  0  4.003048  0  0  -0.148431  0  4.024466  0  0  -0.098456  -0.14398  0  3.988604  0
C  C73  1  0.06180167  0.19032874  0.99256923  1  0  -0.125198  0  3.751302  0  0  -0.145776  0  4.002889  0  0  -0.14841  0  4.024303  0  0  -0.09844  -0.14397  0  3.988443  0
C  C74  1  0.43819495  0.69032790  0.00742943  1  0  -0.125201  0  3.75149  0  0  -0.145773  0  4.003114  0  0  -0.148409  0  4.024531  0  0  -0.098444  -0.143969  0  3.988669  0
C  C75  1  0.93819794  0.80967266  0.49256637  1  0  -0.12524  0  3.751333  0  0  -0.145801  0  4.002921  0  0  -0.148438  0  4.024336  0  0  -0.098453  -0.143985  0  3.988474  0
C  C76  1  0.64725765  0.35411573  0.56252996  1  0  -0.117446  0  3.764418  0  0  -0.136627  0  4.014602  0  0  -0.138781  0  4.035264  0  0  -0.095674  -0.1351  0  4.000602  0
C  C77  1  0.85273966  0.85412132  0.06253051  1  0  -0.117291  0  3.764368  0  0  -0.136457  0  4.014546  0  0  -0.138609  0  4.03521  0  0  -0.095609  -0.134931  0  4.00055  0
C  C78  1  0.64725068  0.35411454  0.93746902  1  0  -0.117379  0  3.764409  0  0  -0.136546  0  4.014597  0  0  -0.1387  0  4.035261  0  0  -0.09569  -0.135021  0  4.000604  0
C  C79  1  0.14725493  0.14588540  0.56253093  1  0  -0.117297  0  3.764368  0  0  -0.136463  0  4.014569  0  0  -0.138617  0  4.035233  0  0  -0.095666  -0.134938  0  4.000573  0
C  C80  1  0.35274135  0.64588151  0.43747295  1  0  -0.11725  0  3.764459  0  0  -0.136448  0  4.014646  0  0  -0.138605  0  4.035314  0  0  -0.095637  -0.13492  0  4.000642  0
C  C81  1  0.14725792  0.14588089  0.93746999  1  0  -0.117297  0  3.764445  0  0  -0.136465  0  4.014624  0  0  -0.13862  0  4.035292  0  0  -0.095622  -0.134938  0  4.00063  0
C  C82  1  0.35274548  0.64588354  0.06252712  1  0  -0.117443  0  3.764608  0  0  -0.136631  0  4.014805  0  0  -0.138789  0  4.035473  0  0  -0.095725  -0.135104  0  4.000806  0
C  C83  1  0.85274265  0.85412096  0.43746812  1  0  -0.117256  0  3.764507  0  0  -0.136439  0  4.014692  0  0  -0.138592  0  4.035357  0  0  -0.095624  -0.134914  0  4.000698  0
C  C84  1  0.75000979  0.45337925  0.55885485  1  0  0.084287  0  3.783991  0  0  0.103371  0  4.020812  0  0  0.102534  0  4.0463  0  0  -0.022898  0.103826  0  4.003535  0
C  C85  1  0.74998681  0.95338045  0.05885626  1  0  0.084087  0  3.784082  0  0  0.103157  0  4.020942  0  0  0.102316  0  4.046429  0  0  -0.022979  0.103609  0  4.003671  0
C  C86  1  0.75000997  0.45337560  0.94114350  1  0  0.084253  0  3.783844  0  0  0.103313  0  4.020762  0  0  0.102478  0  4.046247  0  0  -0.022946  0.103766  0  4.003494  0
C  C87  1  0.25000775  0.04662376  0.55885751  1  0  0.084122  0  3.783957  0  0  0.10319  0  4.020839  0  0  0.102351  0  4.046326  0  0  -0.02296  0.103644  0  4.003569  0
C  C88  1  0.24999490  0.54662545  0.44114226  1  0  0.084114  0  3.78398  0  0  0.103187  0  4.020847  0  0  0.102352  0  4.046332  0  0  -0.022944  0.103643  0  4.003578  0
C  C89  1  0.25000365  0.04662260  0.94114278  1  0  0.084188  0  3.783989  0  0  0.103264  0  4.020833  0  0  0.102424  0  4.046323  0  0  -0.022927  0.10372  0  4.003562  0
C  C90  1  0.24999473  0.54662414  0.05885699  1  0  0.08429  0  3.783874  0  0  0.103361  0  4.020726  0  0  0.102525  0  4.046212  0  0  -0.022848  0.10382  0  4.003452  0
C  C91  1  0.74999268  0.95337845  0.44114201  1  0  0.083921  0  3.78422  0  0  0.103052  0  4.021089  0  0  0.102214  0  4.046573  0  0  -0.023002  0.103501  0  4.003818  0
C  C92  1  0.77546284  0.50201870  0.49802204  1  0  -0.10807  0  3.760606  0  0  -0.124076  0  4.004876  0  0  -0.126209  0  4.026953  0  0  -0.091448  -0.122479  0  3.989891  0
C  C93  1  0.72453832  0.00201993  0.99802012  1  0  -0.107993  0  3.760807  0  0  -0.124006  0  4.005075  0  0  -0.126133  0  4.027154  0  0  -0.091433  -0.122416  0  3.990087  0
C  C94  1  0.77546361  0.50201782  0.00197665  1  0  -0.107951  0  3.760616  0  0  -0.123923  0  4.004849  0  0  -0.126051  0  4.026928  0  0  -0.091368  -0.122345  0  3.989859  0
C  C95  1  0.27545849  0.99798400  0.49801947  1  0  -0.108075  0  3.760607  0  0  -0.124067  0  4.004877  0  0  -0.126193  0  4.026953  0  0  -0.091446  -0.12249  0  3.989886  0
C  C96  1  0.22454044  0.49797937  0.50198087  1  0  -0.108021  0  3.760711  0  0  -0.124032  0  4.004974  0  0  -0.12616  0  4.027053  0  0  -0.091429  -0.122466  0  3.989975  0
C  C97  1  0.27545784  0.99797981  0.00198086  1  0  -0.10807  0  3.76071  0  0  -0.124076  0  4.004975  0  0  -0.126203  0  4.027054  0  0  -0.091449  -0.122488  0  3.989987  0
C  C98  1  0.22454393  0.49797777  0.99801755  1  0  -0.108098  0  3.760795  0  0  -0.124108  0  4.005074  0  0  -0.126238  0  4.027153  0  0  -0.091466  -0.122519  0  3.990085  0
C  C99  1  0.72454194  0.00201905  0.50198150  1  0  -0.108024  0  3.760752  0  0  -0.124048  0  4.005009  0  0  -0.126174  0  4.027084  0  0  -0.091458  -0.122473  0  3.99002  0
C  C100  1  0.69535430  0.45606102  0.44272592  1  0  -0.111377  0  3.749255  0  0  -0.131311  0  3.994989  0  0  -0.134017  0  4.016478  0  0  -0.093747  -0.129479  0  3.980558  0
C  C101  1  0.80464553  0.95606165  0.94272863  1  0  -0.111363  0  3.749334  0  0  -0.131294  0  3.995059  0  0  -0.134004  0  4.016555  0  0  -0.093752  -0.129461  0  3.980629  0
C  C102  1  0.69534984  0.45605969  0.05727113  1  0  -0.111343  0  3.749245  0  0  -0.131296  0  3.995003  0  0  -0.134006  0  4.016499  0  0  -0.093719  -0.129464  0  3.980574  0
C  C103  1  0.19534796  0.04394438  0.44272858  1  0  -0.11122  0  3.749214  0  0  -0.131206  0  3.994979  0  0  -0.133913  0  4.01647  0  0  -0.093698  -0.129376  0  3.980554  0
C  C104  1  0.30465325  0.54393540  0.55727071  1  0  -0.11136  0  3.749254  0  0  -0.131302  0  3.995031  0  0  -0.134016  0  4.01653  0  0  -0.093777  -0.129471  0  3.980603  0
C  C105  1  0.19534493  0.04393642  0.05727089  1  0  -0.111348  0  3.749423  0  0  -0.131299  0  3.995154  0  0  -0.134009  0  4.016652  0  0  -0.093751  -0.129462  0  3.980726  0
C  C106  1  0.30465343  0.54393342  0.94272984  1  0  -0.111378  0  3.749398  0  0  -0.131329  0  3.995159  0  0  -0.13404  0  4.016658  0  0  -0.093805  -0.129496  0  3.980725  0
C  C107  1  0.80465104  0.95605950  0.55727143  1  0  -0.111316  0  3.749291  0  0  -0.131269  0  3.995032  0  0  -0.133981  0  4.016528  0  0  -0.093739  -0.129435  0  3.980601  0
C  C108  1  0.58068544  0.36159885  0.44707700  1  0  0.094432  0  3.761176  0  0  0.117495  0  3.991792  0  0  0.117629  0  4.016571  0  0  -0.017942  0.117293  0  3.975083  0
C  C109  1  0.91931372  0.86159893  0.94707886  1  0  0.094565  0  3.760855  0  0  0.117614  0  3.991496  0  0  0.117745  0  4.016285  0  0  -0.017923  0.117412  0  3.974787  0
C  C110  1  0.58067810  0.36160163  0.05292359  1  0  0.09451  0  3.760972  0  0  0.117547  0  3.991656  0  0  0.117679  0  4.016447  0  0  -0.017993  0.117346  0  3.97495  0
C  C111  1  0.08067981  0.13840216  0.44707746  1  0  0.094386  0  3.76094  0  0  0.117486  0  3.991555  0  0  0.117617  0  4.016337  0  0  -0.017964  0.117284  0  3.974844  0
C  C112  1  0.41932068  0.63840088  0.55292591  1  0  0.094486  0  3.76093  0  0  0.117483  0  3.991608  0  0  0.117616  0  4.016402  0  0  -0.017993  0.117282  0  3.974892  0
C  C113  1  0.08067532  0.13839749  0.05292211  1  0  0.094406  0  3.760976  0  0  0.117508  0  3.991572  0  0  0.11764  0  4.016363  0  0  -0.017992  0.117305  0  3.974864  0
C  C114  1  0.41931805  0.63840058  0.94707401  1  0  0.094473  0  3.760935  0  0  0.117507  0  3.991578  0  0  0.117639  0  4.016372  0  0  -0.017974  0.117308  0  3.97487  0
C  C115  1  0.91932204  0.86159923  0.55292110  1  0  0.094543  0  3.760841  0  0  0.117622  0  3.991455  0  0  0.117756  0  4.016248  0  0  -0.01792  0.11742  0  3.974738  0
C  C116  1  0.47294767  0.31839789  0.38943577  1  0  -0.18472  0  3.633168  0  0  -0.221343  0  3.87375  0  0  -0.222149  0  3.884622  0  0  -0.149703  -0.220604  0  3.866543  0
C  C117  1  0.02704680  0.81839868  0.88943725  1  0  -0.184654  0  3.632956  0  0  -0.221305  0  3.873554  0  0  -0.222097  0  3.884361  0  0  -0.149618  -0.220548  0  3.866361  0
C  C118  1  0.47294935  0.31839941  0.11056413  1  0  -0.184611  0  3.63311  0  0  -0.221293  0  3.873754  0  0  -0.222105  0  3.884585  0  0  -0.149644  -0.220557  0  3.866544  0
C  C119  1  0.97294767  0.18160367  0.38943634  1  0  -0.184554  0  3.633122  0  0  -0.221224  0  3.873718  0  0  -0.222045  0  3.884598  0  0  -0.149652  -0.220459  0  3.866511  0
C  C120  1  0.52705418  0.68160102  0.61056520  1  0  -0.184537  0  3.633134  0  0  -0.221031  0  3.873587  0  0  -0.221827  0  3.884379  0  0  -0.149587  -0.220316  0  3.866429  0
C  C121  1  0.97294793  0.18160106  0.11056227  1  0  -0.184464  0  3.632897  0  0  -0.221151  0  3.873487  0  0  -0.22196  0  3.884295  0  0  -0.149526  -0.220392  0  3.866287  0
C  C122  1  0.52705250  0.68159701  0.88943492  1  0  -0.184418  0  3.633029  0  0  -0.22096  0  3.873483  0  0  -0.221761  0  3.884276  0  0  -0.149501  -0.220226  0  3.866281  0
C  C123  1  0.02705418  0.81839606  0.61056125  1  0  -0.184594  0  3.633003  0  0  -0.221282  0  3.873622  0  0  -0.222088  0  3.884421  0  0  -0.149549  -0.220538  0  3.866469  0
C  C124  1  0.18132056  0.48663469  0.38212540  1  0  -0.187849  0  3.662262  0  0  -0.228581  0  3.916746  0  0  -0.228478  0  3.927323  0  0  -0.146903  -0.228532  0  3.909517  0
C  C125  1  0.31867939  0.98663204  0.88212571  1  0  -0.187996  0  3.662246  0  0  -0.228718  0  3.916745  0  0  -0.22862  0  3.927334  0  0  -0.146909  -0.228667  0  3.909515  0
C  C126  1  0.18132088  0.48663378  0.11787509  1  0  -0.187941  0  3.662351  0  0  -0.228664  0  3.916804  0  0  -0.22856  0  3.927382  0  0  -0.146925  -0.228616  0  3.909576  0
C  C127  1  0.68131645  0.01336943  0.38212702  1  0  -0.187637  0  3.661973  0  0  -0.228542  0  3.91665  0  0  -0.228445  0  3.927236  0  0  -0.146882  -0.228476  0  3.9094  0
C  C128  1  0.81867845  0.51336753  0.61787558  1  0  -0.18804  0  3.66242  0  0  -0.228771  0  3.916924  0  0  -0.228675  0  3.927511  0  0  -0.146945  -0.228713  0  3.90968  0
C  C129  1  0.68132104  0.01336935  0.11787381  1  0  -0.187905  0  3.662322  0  0  -0.228653  0  3.916836  0  0  -0.228557  0  3.927427  0  0  -0.146903  -0.228598  0  3.909599  0
C  C130  1  0.81867528  0.51336679  0.88212588  1  0  -0.187902  0  3.662151  0  0  -0.228759  0  3.916804  0  0  -0.228665  0  3.927395  0  0  -0.146918  -0.228704  0  3.909568  0
C  C131  1  0.31868255  0.98663196  0.61787299  1  0  -0.187848  0  3.662211  0  0  -0.228637  0  3.916775  0  0  -0.228542  0  3.927368  0  0  -0.146899  -0.22858  0  3.909537  0
S  S132  1  0.37576232  0.42393969  0.33554157  1  0  0.033884  0  2.721341  0  0  0.050306  0  3.141726  0  0  0.051345  0  3.126953  0  0  -0.035964  0.049246  0  3.151623  0
S  S133  1  0.12423961  0.92393905  0.83553927  1  0  0.033879  0  2.721302  0  0  0.050324  0  3.14167  0  0  0.051348  0  3.126917  0  0  -0.035973  0.049265  0  3.151563  0
S  S134  1  0.37575876  0.42393993  0.16445800  1  0  0.033905  0  2.721373  0  0  0.050339  0  3.141772  0  0  0.051372  0  3.127008  0  0  -0.035957  0.049278  0  3.151673  0
S  S135  1  0.87575584  0.07606292  0.33554043  1  0  0.033801  0  2.721205  0  0  0.050272  0  3.141663  0  0  0.051299  0  3.126907  0  0  -0.035956  0.049212  0  3.151524  0
S  S136  1  0.62424380  0.57606004  0.66446183  1  0  0.03388  0  2.721395  0  0  0.050266  0  3.141731  0  0  0.051289  0  3.12698  0  0  -0.035979  0.049208  0  3.151612  0
S  S137  1  0.87575655  0.07605985  0.16445977  1  0  0.033874  0  2.721259  0  0  0.050328  0  3.14164  0  0  0.051352  0  3.126892  0  0  -0.035958  0.049274  0  3.151503  0
S  S138  1  0.62424309  0.57605732  0.83553862  1  0  0.033744  0  2.721326  0  0  0.050157  0  3.141747  0  0  0.05118  0  3.127001  0  0  -0.036042  0.049098  0  3.151628  0
S  S139  1  0.12424743  0.92393598  0.66445813  1  0  0.033844  0  2.721288  0  0  0.050283  0  3.141716  0  0  0.05131  0  3.126963  0  0  -0.03599  0.049225  0  3.151609  0
Br  Br140  1  0.89066348  0.35465571  0.24999246  1  0  -0.493355  0  1.275196  0  0  -0.428721  0  1.643318  0  0  -0.446607  0  1.610944  0  0  -0.284972  -0.416022  0  1.664445  0
Br  Br141  1  0.60936387  0.85466663  0.75001529  1  0  -0.493363  0  1.275136  0  0  -0.428755  0  1.643295  0  0  -0.446655  0  1.610932  0  0  -0.285011  -0.41605  0  1.664427  0
Br  Br142  1  0.39064083  0.14532068  0.24999971  1  0  -0.493362  0  1.274993  0  0  -0.4288  0  1.643218  0  0  -0.446685  0  1.610843  0  0  -0.285011  -0.416097  0  1.664342  0
Br  Br143  1  0.10935118  0.64534568  0.75001045  1  0  -0.493343  0  1.275235  0  0  -0.428689  0  1.64333  0  0  -0.446586  0  1.610961  0  0  -0.284979  -0.415983  0  1.664461  0
