# generated using pymatgen
data_AlH5C7O5
_symmetry_space_group_name_H-M   'P 1'
_cell_length_a   6.68881979
_cell_length_b   13.10848786
_cell_length_c   16.93679572
_cell_angle_alpha   90.00088693
_cell_angle_beta   90.00062483
_cell_angle_gamma   100.18687087
_symmetry_Int_Tables_number   1
_chemical_formula_structural   AlH5C7O5
_chemical_formula_sum   'Al4 H20 C28 O20'
_cell_volume   1461.61387599
_cell_formula_units_Z   4
loop_
 _symmetry_equiv_pos_site_id
 _symmetry_equiv_pos_as_xyz
  1  'x, y, z'
loop_
 _atom_site_type_symbol
 _atom_site_label
 _atom_site_symmetry_multiplicity
 _atom_site_fract_x
 _atom_site_fract_y
 _atom_site_fract_z
 _atom_site_occupancy
 _atom_site_pbe_bader_charge
 _atom_site_pbe_bader_spin_density
 _atom_site_pbe_cm5_charge
 _atom_site_pbe_ddec_charge
 _atom_site_pbe_ddec_spin_density
 _atom_site_pbe_ddec_sum_bond_order
 _atom_site_pbe_magmom
Al  Al0  1  0.16400462  0.75286965  0.74999500  1  2.484446  0  0.399908  1.654867  0  2.577358  0
Al  Al1  1  0.83600085  0.24713012  0.25000985  1  2.484593  0  0.399952  1.654886  0  2.577338  0
Al  Al2  1  0.66355217  0.75128940  0.74999253  1  2.481992  0  0.399169  1.652316  0  2.573906  0
Al  Al3  1  0.33645155  0.24870959  0.25000877  1  2.482071  0  0.399238  1.6523  0  2.573843  0
H  H4  1  0.17671287  0.97298781  0.92386394  1  0.095712  0  0.107981  0.111058  0  1.003803  0
H  H5  1  0.82329933  0.02699648  0.07614268  1  0.095228  0  0.107946  0.111024  0  1.003779  0
H  H6  1  0.82328228  0.02702914  0.42387257  1  0.096355  0  0.108018  0.111053  0  1.003949  0
H  H7  1  0.17669264  0.97297754  0.57613937  1  0.095992  0  0.107911  0.110992  0  1.00395  0
H  H8  1  0.21444302  0.08330524  0.04653515  1  0.072351  0  0.109159  0.112976  0  1.002557  0
H  H9  1  0.78556608  0.91668757  0.95347383  1  0.072248  0  0.109148  0.112894  0  1.00269  0
H  H10  1  0.78554759  0.91669365  0.54653027  1  0.072407  0  0.109118  0.112953  0  1.002763  0
H  H11  1  0.21441274  0.08330524  0.45347576  1  0.072193  0  0.109215  0.113005  0  1.002812  0
H  H12  1  0.30532294  0.45955433  0.04786193  1  0.094001  0  0.109279  0.12622  0  0.993004  0
H  H13  1  0.69468138  0.54045086  0.95213230  1  0.094445  0  0.109268  0.12628  0  0.993027  0
H  H14  1  0.69469128  0.54045239  0.54786043  1  0.094098  0  0.109298  0.126324  0  0.992899  0
H  H15  1  0.30531435  0.45955667  0.45213202  1  0.094457  0  0.109307  0.126306  0  0.992973  0
H  H16  1  0.83982056  0.44164977  0.05964975  1  0.094737  0  0.114596  0.114638  0  0.974587  0
H  H17  1  0.16019218  0.55836706  0.94034920  1  0.094537  0  0.114553  0.114518  0  0.974632  0
H  H18  1  0.16018817  0.55836185  0.55964200  1  0.094694  0  0.114608  0.114568  0  0.974598  0
H  H19  1  0.83980825  0.44163325  0.44034395  1  0.094652  0  0.114629  0.114641  0  0.974627  0
H  H20  1  0.36480826  0.61494785  0.75007196  1  0.610786  0  0.358644  0.436966  0  0.840985  0
H  H21  1  0.63519747  0.38505270  0.24988802  1  0.610929  0  0.358633  0.436983  0  0.841004  0
H  H22  1  0.95910657  0.88963064  0.75008434  1  0.615225  0  0.358335  0.436447  0  0.841274  0
H  H23  1  0.04089681  0.11036293  0.24987328  1  0.614784  0  0.358342  0.436453  0  0.841097  0
C  C24  1  0.45636436  0.87326079  0.85925433  1  1.582178  0  0.268552  0.640804  0  4.098968  0
C  C25  1  0.54364669  0.12672893  0.14075229  1  1.582939  0  0.268643  0.641143  0  4.097898  0
C  C26  1  0.54363231  0.12674382  0.35925998  1  1.583453  0  0.268565  0.640708  0  4.099018  0
C  C27  1  0.45634878  0.87325899  0.64074310  1  1.58291  0  0.268554  0.640813  0  4.09894  0
C  C28  1  0.52062438  0.06075132  0.06829481  1  -0.050246  0  -0.010751  -0.035466  0  3.964158  0
C  C29  1  0.47939168  0.93923995  0.93171122  1  -0.050326  0  -0.010695  -0.035436  0  3.963854  0
C  C30  1  0.47937490  0.93925816  0.56829419  1  -0.050472  0  -0.010742  -0.035401  0  3.964132  0
C  C31  1  0.52059307  0.06075005  0.43171066  1  -0.050059  0  -0.010745  -0.035401  0  3.96395  0
C  C32  1  0.31731711  0.98535183  0.95784241  1  -0.008548  0  -0.080646  -0.094476  0  3.975154  0
C  C33  1  0.68269207  0.01464562  0.04216657  1  -0.008921  0  -0.080551  -0.094397  0  3.97523  0
C  C34  1  0.68267523  0.01464964  0.45783611  1  -0.00966  0  -0.080721  -0.094586  0  3.975228  0
C  C35  1  0.31729936  0.98535162  0.54216933  1  -0.009548  0  -0.080607  -0.094524  0  3.975325  0
C  C36  1  0.87263648  0.63027019  0.64101238  1  1.55296  0  0.25819  0.678829  0  4.115591  0
C  C37  1  0.12736777  0.36973036  0.35898243  1  1.552896  0  0.258119  0.678724  0  4.115904  0
C  C38  1  0.12737259  0.36974023  0.14102266  1  1.553331  0  0.258182  0.678771  0  4.115632  0
C  C39  1  0.87264036  0.63025956  0.85897687  1  1.553313  0  0.258119  0.678818  0  4.115664  0
C  C40  1  0.33779227  0.04585517  0.02577153  1  -0.025626  0  -0.080176  -0.092905  0  3.973512  0
C  C41  1  0.66221656  0.95413686  0.97423450  1  -0.025099  0  -0.080137  -0.09279  0  3.973341  0
C  C42  1  0.66221485  0.95414559  0.52577600  1  -0.025357  0  -0.080143  -0.092858  0  3.973217  0
C  C43  1  0.33775050  0.04585486  0.47422944  1  -0.025469  0  -0.080082  -0.092759  0  3.973148  0
C  C44  1  0.84902540  0.56314767  0.92966571  1  -0.046984  0  -0.084935  -0.237661  0  3.877623  0
C  C45  1  0.15098940  0.43685754  0.07033442  1  -0.046703  0  -0.084964  -0.237488  0  3.877372  0
C  C46  1  0.15097495  0.43683999  0.42966921  1  -0.046901  0  -0.084987  -0.237752  0  3.877633  0
C  C47  1  0.84902630  0.56316054  0.57032619  1  -0.04652  0  -0.08493  -0.237697  0  3.877542  0
C  C48  1  0.00901288  0.53231594  0.96544555  1  -0.010785  0  -0.067443  -0.022835  0  4.003843  0
C  C49  1  0.99099997  0.46769237  0.03455516  1  -0.064718  0  -0.067488  -0.023109  0  4.003904  0
C  C50  1  0.99097287  0.46767872  0.46544363  1  -0.010871  0  -0.067425  -0.022883  0  4.003705  0
C  C51  1  0.00901686  0.53231869  0.53455000  1  -0.064646  0  -0.067433  -0.022793  0  4.003477  0
O  O52  1  0.61650410  0.84664767  0.66848349  1  -1.255278  0  -0.23675  -0.595402  0  2.34839  0
O  O53  1  0.38349315  0.15336758  0.33152609  1  -1.25543  0  -0.236783  -0.59542  0  2.348606  0
O  O54  1  0.38348505  0.15333701  0.16850115  1  -1.255831  0  -0.236773  -0.595652  0  2.347999  0
O  O55  1  0.61651465  0.84664571  0.83151491  1  -1.255404  0  -0.236741  -0.595437  0  2.348363  0
O  O56  1  0.27810140  0.84888806  0.83065157  1  -1.251827  0  -0.236276  -0.595645  0  2.348852  0
O  O57  1  0.72191148  0.15110708  0.16935505  1  -1.252176  0  -0.236349  -0.595846  0  2.348508  0
O  O58  1  0.72189073  0.15111433  0.33066301  1  -1.252959  0  -0.236209  -0.59542  0  2.348752  0
O  O59  1  0.27809417  0.84887765  0.66934184  1  -1.252349  0  -0.236205  -0.595592  0  2.349009  0
O  O60  1  0.05094358  0.65751528  0.83087666  1  -1.252258  0  -0.239056  -0.602815  0  2.336031  0
O  O61  1  0.94906654  0.34249380  0.16912819  1  -1.25207  0  -0.239087  -0.602838  0  2.335939  0
O  O62  1  0.94906893  0.34246780  0.33087838  1  -1.251984  0  -0.239032  -0.602779  0  2.33633  0
O  O63  1  0.05094694  0.65752735  0.66912351  1  -1.251987  0  -0.23913  -0.602872  0  2.336056  0
O  O64  1  0.39191692  0.68991159  0.74999807  1  -1.4128  0  -0.448868  -0.998936  0  2.212796  0
O  O65  1  0.60809137  0.31009206  0.24999969  1  -1.412966  0  -0.448901  -0.998933  0  2.212812  0
O  O66  1  0.71012741  0.65533571  0.66858528  1  -1.244203  0  -0.241503  -0.599716  0  2.295557  0
O  O67  1  0.28987557  0.34467877  0.33140717  1  -1.244231  0  -0.241456  -0.599569  0  2.295691  0
O  O68  1  0.28988044  0.34467766  0.16858829  1  -1.244367  0  -0.241567  -0.5997  0  2.29556  0
O  O69  1  0.71012418  0.65531514  0.83140179  1  -1.244224  0  -0.241505  -0.599716  0  2.295445  0
O  O70  1  0.93471983  0.81465199  0.74999941  1  -1.418741  0  -0.447687  -0.996883  0  2.208301  0
O  O71  1  0.06527966  0.18534777  0.24999777  1  -1.41837  0  -0.447701  -0.996893  0  2.208134  0
