# generated using pymatgen
data_CdH12C12Br2(NF)2
_symmetry_space_group_name_H-M   'P 1'
_cell_length_a   6.81143679
_cell_length_b   7.40519944
_cell_length_c   14.95585303
_cell_angle_alpha   84.81674224
_cell_angle_beta   80.05139226
_cell_angle_gamma   73.72507831
_symmetry_Int_Tables_number   1
_chemical_formula_structural   CdH12C12Br2(NF)2
_chemical_formula_sum   'Cd2 H24 C24 Br4 N4 F4'
_cell_volume   712.55428042
_cell_formula_units_Z   2
loop_
 _symmetry_equiv_pos_site_id
 _symmetry_equiv_pos_as_xyz
  1  'x, y, z'
loop_
 _atom_site_type_symbol
 _atom_site_label
 _atom_site_symmetry_multiplicity
 _atom_site_fract_x
 _atom_site_fract_y
 _atom_site_fract_z
 _atom_site_occupancy
 _atom_site_hle17_bader_spin_density
 _atom_site_hle17_ddec_charge
 _atom_site_hle17_ddec_spin_density
 _atom_site_hle17_ddec_sum_bond_order
 _atom_site_hle17_magmom
 _atom_site_hse06_10hf_bader_spin_density
 _atom_site_hse06_10hf_ddec_charge
 _atom_site_hse06_10hf_ddec_spin_density
 _atom_site_hse06_10hf_ddec_sum_bond_order
 _atom_site_hse06_10hf_magmom
 _atom_site_hse06_bader_spin_density
 _atom_site_hse06_ddec_charge
 _atom_site_hse06_ddec_spin_density
 _atom_site_hse06_ddec_sum_bond_order
 _atom_site_hse06_magmom
 _atom_site_pbe_bader_spin_density
 _atom_site_pbe_cm5_charge
 _atom_site_pbe_ddec_charge
 _atom_site_pbe_ddec_spin_density
 _atom_site_pbe_ddec_sum_bond_order
 _atom_site_pbe_magmom
Cd  Cd0  1  0.23880437  0.43465591  0.05952557  1  0  0.884244  0  1.917482  0  0  0.73495  0  2.347759  0  0  0.780617  0  2.31172  0  0  0.541186  0.703194  0  2.371827  0
Cd  Cd1  1  0.76121750  0.56535685  0.94046805  1  0  0.884217  0  1.917608  0  0  0.734939  0  2.347867  0  0  0.780595  0  2.311847  0  0  0.541173  0.70319  0  2.371922  0
H  H2  1  0.50378047  0.02902853  0.17425825  1  0  0.132743  0  0.969779  0  0  0.138533  0  1.040476  0  0  0.142483  0  1.037973  0  0  0.090893  0.135651  0  1.042447  0
H  H3  1  0.49624404  0.97098007  0.82573740  1  0  0.132751  0  0.969671  0  0  0.138579  0  1.040328  0  0  0.142541  0  1.037804  0  0  0.090866  0.135692  0  1.042316  0
H  H4  1  0.25288121  0.79701493  0.42808281  1  0  0.125823  0  0.962764  0  0  0.130098  0  1.029887  0  0  0.13422  0  1.027242  0  0  0.102237  0.127112  0  1.031915  0
H  H5  1  0.74716545  0.20300807  0.57191861  1  0  0.125924  0  0.962608  0  0  0.130263  0  1.02966  0  0  0.134377  0  1.027033  0  0  0.102277  0.127266  0  1.031699  0
H  H6  1  0.90099200  0.89265587  0.37985990  1  0  0.093716  0  0.957417  0  0  0.101095  0  1.021557  0  0  0.103712  0  1.019723  0  0  0.099902  0.099246  0  1.022886  0
H  H7  1  0.09905445  0.10734750  0.62014519  1  0  0.093769  0  0.957253  0  0  0.101352  0  1.021143  0  0  0.103963  0  1.019332  0  0  0.100029  0.0995  0  1.022463  0
H  H8  1  0.85229234  0.05411356  0.22965209  1  0  0.110909  0  0.954109  0  0  0.116687  0  1.024827  0  0  0.120212  0  1.022748  0  0  0.096727  0.114119  0  1.026515  0
H  H9  1  0.14773517  0.94588836  0.77035438  1  0  0.110821  0  0.953932  0  0  0.116624  0  1.024658  0  0  0.120147  0  1.022582  0  0  0.096709  0.114049  0  1.026362  0
H  H10  1  0.99827992  0.17338412  0.09398090  1  0  0.293717  0  0.926389  0  0  0.279845  0  0.991305  0  0  0.286286  0  0.986922  0  0  0.268987  0.275072  0  0.994735  0
H  H11  1  0.00173616  0.82662184  0.90602148  1  0  0.293984  0  0.925994  0  0  0.280035  0  0.991042  0  0  0.286485  0  0.986628  0  0  0.269048  0.275261  0  0.994479  0
H  H12  1  0.23944269  0.06252814  0.05458723  1  0  0.29583  0  0.928302  0  0  0.281625  0  0.995541  0  0  0.288617  0  0.990042  0  0  0.264121  0.276565  0  0.99961  0
H  H13  1  0.76057408  0.93748062  0.94541430  1  0  0.295864  0  0.92838  0  0  0.281678  0  0.995506  0  0  0.288668  0  0.990011  0  0  0.264126  0.27662  0  0.999572  0
H  H14  1  0.97904542  0.48694843  0.29920699  1  0  0.109454  0  0.947218  0  0  0.118268  0  1.01174  0  0  0.122001  0  1.009673  0  0  0.096753  0.115536  0  1.013477  0
H  H15  1  0.02092027  0.51309798  0.70078753  1  0  0.109303  0  0.94741  0  0  0.118124  0  1.011948  0  0  0.121843  0  1.009885  0  0  0.096691  0.115391  0  1.01368  0
H  H16  1  0.98967660  0.31784197  0.44984560  1  0  0.09377  0  0.957328  0  0  0.102581  0  1.017041  0  0  0.105073  0  1.015861  0  0  0.099701  0.10078  0  1.017914  0
H  H17  1  0.01025199  0.68216590  0.55014070  1  0  0.093689  0  0.957319  0  0  0.102415  0  1.017126  0  0  0.104913  0  1.015944  0  0  0.099606  0.100613  0  1.017998  0
H  H18  1  0.32645737  0.20324192  0.51249893  1  0  0.124269  0  0.95657  0  0  0.128055  0  1.026984  0  0  0.132523  0  1.023573  0  0  0.101974  0.124845  0  1.029555  0
H  H19  1  0.67345915  0.79671544  0.48749805  1  0  0.124153  0  0.956849  0  0  0.128014  0  1.027159  0  0  0.132467  0  1.023761  0  0  0.101965  0.12481  0  1.029715  0
H  H20  1  0.63693000  0.42427580  0.26990764  1  0  0.132171  0  0.954457  0  0  0.138167  0  1.024335  0  0  0.142372  0  1.021459  0  0  0.10005  0.135061  0  1.026651  0
H  H21  1  0.36305300  0.57567534  0.73010576  1  0  0.132155  0  0.954343  0  0  0.138144  0  1.02423  0  0  0.142345  0  1.021366  0  0  0.100049  0.135041  0  1.026545  0
H  H22  1  0.43473398  0.60329830  0.16624216  1  0  0.300066  0  0.91602  0  0  0.285089  0  0.981668  0  0  0.291093  0  0.977843  0  0  0.276362  0.280593  0  0.984775  0
H  H23  1  0.56528032  0.39669242  0.83376913  1  0  0.300134  0  0.915899  0  0  0.285173  0  0.981535  0  0  0.291178  0  0.97771  0  0  0.27643  0.280678  0  0.984641  0
H  H24  1  0.17994126  0.68550699  0.19288341  1  0  0.297682  0  0.914735  0  0  0.285753  0  0.975066  0  0  0.290673  0  0.973452  0  0  0.285306  0.282177  0  0.976395  0
H  H25  1  0.82007302  0.31451020  0.80711721  1  0  0.297518  0  0.914785  0  0  0.285604  0  0.975097  0  0  0.290524  0  0.973486  0  0  0.285253  0.282027  0  0.976426  0
C  C26  1  0.30658712  0.46553834  0.27491911  1  0  0.304882  0  3.801151  0  0  0.306455  0  4.043781  0  0  0.314707  0  4.067232  0  0  0.0819  0.300857  0  4.027686  0
C  C27  1  0.69339271  0.53446464  0.72508326  1  0  0.304824  0  3.801067  0  0  0.306186  0  4.044002  0  0  0.314458  0  4.06742  0  0  0.081728  0.300584  0  4.027923  0
C  C28  1  0.12485039  0.43524270  0.32596351  1  0  -0.185073  0  3.716123  0  0  -0.209497  0  3.971091  0  0  -0.216496  0  3.993014  0  0  -0.106076  -0.204894  0  3.956373  0
C  C29  1  0.87511741  0.56476701  0.67403068  1  0  -0.184711  0  3.716098  0  0  -0.209082  0  3.971051  0  0  -0.21607  0  3.992955  0  0  -0.105848  -0.204478  0  3.956337  0
C  C30  1  0.13141818  0.34123231  0.41080992  1  0  -0.013359  0  3.787383  0  0  -0.025054  0  4.042847  0  0  -0.023436  0  4.064714  0  0  -0.084347  -0.025862  0  4.027842  0
C  C31  1  0.86852750  0.65875745  0.58918143  1  0  -0.013246  0  3.787187  0  0  -0.024837  0  4.04267  0  0  -0.023231  0  4.064492  0  0  -0.084279  -0.025651  0  4.027672  0
C  C32  1  0.31695887  0.27643659  0.44627135  1  0  -0.216737  0  3.767886  0  0  -0.249225  0  4.036158  0  0  -0.255933  0  4.054567  0  0  -0.114449  -0.244755  0  4.023808  0
C  C33  1  0.68297342  0.72352785  0.55372419  1  0  -0.216832  0  3.767832  0  0  -0.249446  0  4.036227  0  0  -0.256144  0  4.054624  0  0  -0.114602  -0.244987  0  4.023889  0
C  C34  1  0.49341653  0.30813425  0.39335206  1  0  0.328284  0  3.805501  0  0  0.313772  0  4.088142  0  0  0.326506  0  4.098183  0  0  0.092252  0.304971  0  4.081437  0
C  C35  1  0.50653319  0.69182496  0.60665390  1  0  0.328181  0  3.805229  0  0  0.313756  0  4.087738  0  0  0.326488  0  4.097781  0  0  0.092308  0.304963  0  4.08104  0
C  C36  1  0.49480319  0.39954488  0.30818772  1  0  -0.294092  0  3.71778  0  0  -0.325106  0  3.97404  0  0  -0.333297  0  3.992013  0  0  -0.115053  -0.319543  0  3.962011  0
C  C37  1  0.50516533  0.60043012  0.69182351  1  0  -0.293809  0  3.717552  0  0  -0.324804  0  3.973916  0  0  -0.332994  0  3.991874  0  0  -0.114894  -0.319229  0  3.961851  0
C  C38  1  0.17350700  0.05393161  0.19242080  1  0  0.300257  0  3.788762  0  0  0.303  0  4.031351  0  0  0.310938  0  4.05364  0  0  0.078245  0.297541  0  4.016185  0
C  C39  1  0.82652080  0.94608002  0.80758049  1  0  0.300422  0  3.78843  0  0  0.303134  0  4.030995  0  0  0.311069  0  4.053289  0  0  0.078329  0.297685  0  4.01582  0
C  C40  1  0.37033444  0.00049924  0.21865819  1  0  -0.290735  0  3.710947  0  0  -0.319682  0  3.964808  0  0  -0.327703  0  3.98409  0  0  -0.118663  -0.31432  0  3.952047  0
C  C41  1  0.62969373  0.99951217  0.78133640  1  0  -0.290908  0  3.710834  0  0  -0.31992  0  3.964796  0  0  -0.327954  0  3.984096  0  0  -0.118645  -0.314565  0  3.952043  0
C  C42  1  0.39057381  0.91040677  0.30322228  1  0  0.330594  0  3.793492  0  0  0.317006  0  4.07472  0  0  0.328713  0  4.086313  0  0  0.093195  0.308891  0  4.066948  0
C  C43  1  0.60945998  0.08961037  0.69677431  1  0  0.330752  0  3.793599  0  0  0.31713  0  4.074879  0  0  0.328835  0  4.086479  0  0  0.093262  0.309015  0  4.067104  0
C  C44  1  0.22681495  0.86972581  0.36295205  1  0  -0.209568  0  3.772074  0  0  -0.236446  0  4.033097  0  0  -0.243345  0  4.053244  0  0  -0.109605  -0.231736  0  4.019429  0
C  C45  1  0.77322561  0.13029291  0.63704867  1  0  -0.209954  0  3.771997  0  0  -0.236864  0  4.033042  0  0  -0.24376  0  4.053185  0  0  -0.109802  -0.232146  0  4.019368  0
C  C46  1  0.03264895  0.92363452  0.33534975  1  0  -0.016707  0  3.785555  0  0  -0.03356  0  4.048553  0  0  -0.031243  0  4.067402  0  0  -0.088673  -0.034956  0  4.0356  0
C  C47  1  0.96738271  0.07637863  0.66465454  1  0  -0.016691  0  3.785445  0  0  -0.033665  0  4.048423  0  0  -0.031345  0  4.067245  0  0  -0.088625  -0.035049  0  4.035463  0
C  C48  1  0.00462782  0.01494192  0.25072390  1  0  -0.201288  0  3.728208  0  0  -0.227112  0  3.989925  0  0  -0.232109  0  4.008113  0  0  -0.11078  -0.223872  0  3.97786  0
C  C49  1  0.99540251  0.98506562  0.74928142  1  0  -0.201178  0  3.727926  0  0  -0.226956  0  3.989598  0  0  -0.23195  0  4.007794  0  0  -0.110852  -0.223718  0  3.977532  0
Br  Br50  1  0.17437372  0.35826338  0.88924734  1  0  -0.529413  0  1.023352  0  0  -0.472288  0  1.324146  0  0  -0.491238  0  1.30312  0  0  -0.261241  -0.458614  0  1.338572  0
Br  Br51  1  0.82564192  0.64174079  0.11074379  1  0  -0.529416  0  1.023416  0  0  -0.472297  0  1.324204  0  0  -0.491252  0  1.303191  0  0  -0.261243  -0.458627  0  1.338638  0
Br  Br52  1  0.34225155  0.76476130  0.97108845  1  0  -0.529879  0  1.044094  0  0  -0.46604  0  1.339502  0  0  -0.484819  0  1.317954  0  0  -0.247139  -0.452382  0  1.354468  0
Br  Br53  1  0.65776598  0.23525457  0.02891468  1  0  -0.529845  0  1.04409  0  0  -0.466006  0  1.339408  0  0  -0.48478  0  1.317864  0  0  -0.247119  -0.452353  0  1.354369  0
N  N54  1  0.30033226  0.56528095  0.18895847  1  0  -0.656754  0  3.176157  0  0  -0.596772  0  3.395364  0  0  -0.6182  0  3.397879  0  0  -0.609673  -0.581714  0  3.393456  0
N  N55  1  0.69967336  0.43472501  0.81104531  1  0  -0.65673  0  3.176133  0  0  -0.596682  0  3.395378  0  0  -0.618121  0  3.397886  0  0  -0.609671  -0.581625  0  3.393471  0
N  N56  1  0.14843889  0.14711183  0.10553115  1  0  -0.654774  0  3.159698  0  0  -0.595998  0  3.380966  0  0  -0.617631  0  3.381423  0  0  -0.612849  -0.580707  0  3.38046  0
N  N57  1  0.85157788  0.85289693  0.89447038  1  0  -0.655079  0  3.159399  0  0  -0.596345  0  3.380915  0  0  -0.617974  0  3.381366  0  0  -0.612948  -0.581067  0  3.380416  0
F  F58  1  0.67729186  0.24793274  0.42696456  1  0  -0.228027  0  1.221232  0  0  -0.159449  0  1.373393  0  0  -0.17002  0  1.363894  0  0  -0.091795  -0.151744  0  1.379801  0
F  F59  1  0.32264939  0.75199973  0.57304464  1  0  -0.228042  0  1.221101  0  0  -0.15944  0  1.373204  0  0  -0.170011  0  1.36371  0  0  -0.091851  -0.151739  0  1.379608  0
F  F60  1  0.58321803  0.85792615  0.32893145  1  0  -0.232043  0  1.199358  0  0  -0.164794  0  1.352486  0  0  -0.175307  0  1.343814  0  0  -0.099452  -0.157146  0  1.358328  0
F  F61  1  0.41682488  0.14209090  0.67106116  1  0  -0.231982  0  1.199387  0  0  -0.164762  0  1.352594  0  0  -0.175278  0  1.343928  0  0  -0.099468  -0.157117  0  1.358435  0
