# generated using pymatgen
data_Cd3H12C16(NO8)2
_symmetry_space_group_name_H-M   'P 1'
_cell_length_a   6.57580414
_cell_length_b   8.35896380
_cell_length_c   10.07644097
_cell_angle_alpha   109.14084940
_cell_angle_beta   98.66542306
_cell_angle_gamma   98.67596421
_symmetry_Int_Tables_number   1
_chemical_formula_structural   Cd3H12C16(NO8)2
_chemical_formula_sum   'Cd3 H12 C16 N2 O16'
_cell_volume   505.24701925
_cell_formula_units_Z   1
loop_
 _symmetry_equiv_pos_site_id
 _symmetry_equiv_pos_as_xyz
  1  'x, y, z'
loop_
 _atom_site_type_symbol
 _atom_site_label
 _atom_site_symmetry_multiplicity
 _atom_site_fract_x
 _atom_site_fract_y
 _atom_site_fract_z
 _atom_site_occupancy
 _atom_site_hle17_bader_spin_density
 _atom_site_hle17_ddec_charge
 _atom_site_hle17_ddec_spin_density
 _atom_site_hle17_ddec_sum_bond_order
 _atom_site_hle17_magmom
 _atom_site_hse06_10hf_bader_spin_density
 _atom_site_hse06_10hf_ddec_charge
 _atom_site_hse06_10hf_ddec_spin_density
 _atom_site_hse06_10hf_ddec_sum_bond_order
 _atom_site_hse06_10hf_magmom
 _atom_site_hse06_bader_spin_density
 _atom_site_hse06_ddec_charge
 _atom_site_hse06_ddec_spin_density
 _atom_site_hse06_ddec_sum_bond_order
 _atom_site_hse06_magmom
 _atom_site_pbe_bader_spin_density
 _atom_site_pbe_cm5_charge
 _atom_site_pbe_ddec_charge
 _atom_site_pbe_ddec_spin_density
 _atom_site_pbe_ddec_sum_bond_order
 _atom_site_pbe_magmom
Cd  Cd0  1  0.92796382  0.93689618  0.67674409  1  0  1.244421  0  1.569646  0  0  1.054403  0  2.010828  0  0  1.112926  0  1.955034  0  0  0.786635  1.011527  0  2.049826  0
Cd  Cd1  1  0.07203643  0.06310501  0.32325554  1  0  1.244406  0  1.569653  0  0  1.054375  0  2.010865  0  0  1.112917  0  1.955032  0  0  0.786638  1.011502  0  2.049865  0
Cd  Cd2  1  0.50000136  0.50000010  0.99999936  1  0  1.335534  0  1.581668  0  0  1.167496  0  2.042313  0  0  1.219678  0  1.980643  0  0  0.806203  1.127996  0  2.088475  0
H  H3  1  0.71115867  0.32900526  0.21531566  1  0  0.137852  0  0.94853  0  0  0.142267  0  1.016884  0  0  0.147016  0  1.01344  0  0  0.116345  0.138949  0  1.019196  0
H  H4  1  0.28883703  0.67099599  0.78468557  1  0  0.137869  0  0.948498  0  0  0.142258  0  1.01688  0  0  0.147006  0  1.013436  0  0  0.116352  0.138944  0  1.01919  0
H  H5  1  0.62279090  0.27985479  0.61757180  1  0  0.142992  0  0.924046  0  0  0.147109  0  0.98994  0  0  0.152194  0  0.985843  0  0  0.118973  0.143344  0  0.993094  0
H  H6  1  0.37721089  0.72014638  0.38242796  1  0  0.142984  0  0.924021  0  0  0.147099  0  0.989918  0  0  0.152184  0  0.98582  0  0  0.118973  0.143334  0  0.993075  0
H  H7  1  0.03111472  0.26335920  0.87499268  1  0  0.414523  0  0.896227  0  0  0.381124  0  0.964116  0  0  0.392711  0  0.947371  0  0  0.287621  0.372351  0  0.977008  0
H  H8  1  0.96888791  0.73663934  0.12500842  1  0  0.41455  0  0.896182  0  0  0.381157  0  0.964061  0  0  0.392744  0  0.947317  0  0  0.287647  0.372385  0  0.976951  0
H  H9  1  0.02468799  0.16811050  0.98803779  1  0  0.428305  0  0.86937  0  0  0.398387  0  0.929399  0  0  0.409909  0  0.912795  0  0  0.294618  0.389965  0  0.941542  0
H  H10  1  0.97531579  0.83188672  0.01196205  1  0  0.428332  0  0.869331  0  0  0.398408  0  0.929369  0  0  0.40993  0  0.912766  0  0  0.294628  0.389987  0  0.941509  0
H  H11  1  0.46246132  0.14742912  0.88909893  1  0  0.427317  0  0.875556  0  0  0.393992  0  0.942571  0  0  0.405707  0  0.925644  0  0  0.288435  0.385636  0  0.954658  0
H  H12  1  0.53753857  0.85257077  0.11090031  1  0  0.427329  0  0.875538  0  0  0.394  0  0.94256  0  0  0.405716  0  0.925631  0  0  0.288439  0.385646  0  0.954645  0
H  H13  1  0.70964488  0.22095672  0.93622979  1  0  0.435937  0  0.858268  0  0  0.405392  0  0.919768  0  0  0.41673  0  0.903446  0  0  0.289753  0.397201  0  0.931556  0
H  H14  1  0.29035737  0.77904053  0.06376992  1  0  0.435946  0  0.858259  0  0  0.405398  0  0.919763  0  0  0.416737  0  0.90344  0  0  0.289755  0.397209  0  0.931549  0
C  C15  1  0.79080089  0.56336154  0.40447756  1  0  0.100991  0  3.744154  0  0  0.105556  0  3.990953  0  0  0.105808  0  4.010495  0  0  0.111209  0.104939  0  3.978166  0
C  C16  1  0.20919664  0.43664099  0.59552121  1  0  0.10087  0  3.744331  0  0  0.105553  0  3.990979  0  0  0.105804  0  4.010525  0  0  0.11122  0.104937  0  3.97819  0
C  C17  1  0.71926768  0.38513927  0.33056288  1  0  -0.108501  0  3.639325  0  0  -0.148501  0  3.899107  0  0  -0.150398  0  3.91602  0  0  -0.069772  -0.146516  0  3.887413  0
C  C18  1  0.28072989  0.61486326  0.66943788  1  0  -0.108485  0  3.639311  0  0  -0.148499  0  3.899109  0  0  -0.150391  0  3.916017  0  0  -0.069788  -0.146522  0  3.887423  0
C  C19  1  0.65835796  0.28067862  0.40725426  1  0  -0.010529  0  3.712654  0  0  0.006597  0  3.960063  0  0  0.004161  0  3.976288  0  0  0.004649  0.00803  0  3.948902  0
C  C20  1  0.34164076  0.71932259  0.59274524  1  0  -0.010542  0  3.71264  0  0  0.006552  0  3.960106  0  0  0.004121  0  3.976329  0  0  0.004621  0.007985  0  3.948943  0
C  C21  1  0.66933742  0.35731526  0.55439159  1  0  -0.088577  0  3.627718  0  0  -0.124813  0  3.882679  0  0  -0.125602  0  3.898586  0  0  -0.064813  -0.123609  0  3.871668  0
C  C22  1  0.33066248  0.64268463  0.44560865  1  0  -0.088551  0  3.627692  0  0  -0.124766  0  3.882657  0  0  -0.125556  0  3.898563  0  0  -0.064806  -0.123563  0  3.871648  0
C  C23  1  0.74858199  0.53563671  0.62072137  1  0  0.090184  0  3.756801  0  0  0.094168  0  4.002631  0  0  0.09372  0  4.023393  0  0  0.108516  0.09408  0  3.988883  0
C  C24  1  0.25141638  0.46436319  0.37927873  1  0  0.090147  0  3.756811  0  0  0.094131  0  4.002652  0  0  0.093683  0  4.023413  0  0  0.108517  0.094043  0  3.988906  0
C  C25  1  0.77275224  0.62280893  0.78130171  1  0  0.639569  0  3.918628  0  0  0.585098  0  4.217539  0  0  0.618383  0  4.211634  0  0  0.213466  0.562252  0  4.22076  0
C  C26  1  0.22724803  0.37719226  0.21869892  1  0  0.639566  0  3.918555  0  0  0.5851  0  4.217468  0  0  0.61839  0  4.211557  0  0  0.213499  0.562255  0  4.220687  0
C  C27  1  0.86114355  0.68194049  0.32732105  1  0  0.646117  0  3.880059  0  0  0.589871  0  4.175259  0  0  0.624051  0  4.168387  0  0  0.220308  0.566331  0  4.179269  0
C  C28  1  0.13885633  0.31805940  0.67267820  1  0  0.646155  0  3.880088  0  0  0.589871  0  4.175298  0  0  0.624052  0  4.168424  0  0  0.220303  0.566329  0  4.179305  0
C  C29  1  0.58477041  0.08805321  0.33191522  1  0  0.68112  0  3.868514  0  0  0.627079  0  4.160412  0  0  0.662534  0  4.151092  0  0  0.223282  0.602709  0  4.166169  0
C  C30  1  0.41523139  0.91194795  0.66808554  1  0  0.681148  0  3.868425  0  0  0.627107  0  4.160355  0  0  0.662552  0  4.151046  0  0  0.223342  0.602742  0  4.166102  0
N  N31  1  0.80840819  0.63574911  0.54702570  1  0  -0.371918  0  3.325253  0  0  -0.309438  0  3.574004  0  0  -0.325969  0  3.596207  0  0  -0.315495  -0.298037  0  3.559436  0
N  N32  1  0.19159089  0.36425340  0.45297420  1  0  -0.371872  0  3.325331  0  0  -0.309435  0  3.574071  0  0  -0.325971  0  3.59628  0  0  -0.315496  -0.298036  0  3.559504  0
O  O33  1  0.96328037  0.83404581  0.40522088  1  0  -0.629917  0  2.067024  0  0  -0.557436  0  2.324417  0  0  -0.588789  0  2.315471  0  0  -0.303887  -0.534898  0  2.329778  0
O  O34  1  0.03671991  0.16595537  0.59477975  1  0  -0.62991  0  2.067088  0  0  -0.557431  0  2.324503  0  0  -0.588782  0  2.315549  0  0  -0.303882  -0.534894  0  2.329864  0
O  O35  1  0.82004315  0.61852900  0.19067329  1  0  -0.641391  0  2.049349  0  0  -0.574658  0  2.292772  0  0  -0.601464  0  2.280043  0  0  -0.307553  -0.555415  0  2.302382  0
O  O36  1  0.17995676  0.38147089  0.80932694  1  0  -0.641386  0  2.049286  0  0  -0.574656  0  2.292736  0  0  -0.601461  0  2.280006  0  0  -0.307555  -0.555412  0  2.302345  0
O  O37  1  0.70252483  0.01267126  0.25227350  1  0  -0.651476  0  2.025599  0  0  -0.577869  0  2.264091  0  0  -0.607565  0  2.250731  0  0  -0.312963  -0.556841  0  2.272734  0
O  O38  1  0.29747615  0.98733252  0.74772692  1  0  -0.651483  0  2.025579  0  0  -0.577871  0  2.26406  0  0  -0.607561  0  2.25071  0  0  -0.312966  -0.556843  0  2.272698  0
O  O39  1  0.41554238  0.01229552  0.34888627  1  0  -0.61401  0  1.991631  0  0  -0.552717  0  2.241731  0  0  -0.581313  0  2.23007  0  0  -0.310729  -0.532382  0  2.249201  0
O  O40  1  0.58445938  0.98770565  0.65111250  1  0  -0.614032  0  1.991602  0  0  -0.552741  0  2.2417  0  0  -0.581341  0  2.23006  0  0  -0.310777  -0.53241  0  2.249167  0
O  O41  1  0.71082546  0.52469712  0.84599426  1  0  -0.644915  0  2.042386  0  0  -0.584051  0  2.303766  0  0  -0.61118  0  2.291245  0  0  -0.325973  -0.564354  0  2.312983  0
O  O42  1  0.28917596  0.47530275  0.15400511  1  0  -0.644907  0  2.042307  0  0  -0.584058  0  2.303709  0  0  -0.611189  0  2.291189  0  0  -0.32598  -0.564359  0  2.312924  0
O  O43  1  0.85550762  0.78409462  0.83797307  1  0  -0.620126  0  2.011657  0  0  -0.552773  0  2.242812  0  0  -0.580573  0  2.231631  0  0  -0.304874  -0.532404  0  2.249732  0
O  O44  1  0.14449570  0.21590652  0.16202682  1  0  -0.620082  0  2.011598  0  0  -0.552754  0  2.242776  0  0  -0.580557  0  2.231594  0  0  -0.304905  -0.532385  0  2.249697  0
O  O45  1  0.94326143  0.16874785  0.89581885  1  0  -0.827679  0  1.91402  0  0  -0.753345  0  2.094977  0  0  -0.778599  0  2.060633  0  0  -0.567134  -0.735362  0  2.119945  0
O  O46  1  0.05674117  0.83125070  0.10418125  1  0  -0.827722  0  1.913954  0  0  -0.753392  0  2.094924  0  0  -0.778647  0  2.060577  0  0  -0.567174  -0.735408  0  2.11989  0
O  O47  1  0.57428954  0.23758323  0.96770543  1  0  -0.848061  0  1.860414  0  0  -0.779163  0  2.056453  0  0  -0.804217  0  2.020165  0  0  -0.583708  -0.761468  0  2.082297  0
O  O48  1  0.42571154  0.76241534  0.03229455  1  0  -0.848093  0  1.860419  0  0  -0.779183  0  2.056459  0  0  -0.804239  0  2.020169  0  0  -0.583716  -0.761491  0  2.082302  0
