# generated using pymatgen
data_H3AuC3N2
_symmetry_space_group_name_H-M   'P 1'
_cell_length_a   8.24561152
_cell_length_b   10.94020630
_cell_length_c   14.24044746
_cell_angle_alpha   89.99996132
_cell_angle_beta   90.00021641
_cell_angle_gamma   107.14168060
_symmetry_Int_Tables_number   1
_chemical_formula_structural   H3AuC3N2
_chemical_formula_sum   'H36 Au12 C36 N24'
_cell_volume   1227.54818938
_cell_formula_units_Z   12
loop_
 _symmetry_equiv_pos_site_id
 _symmetry_equiv_pos_as_xyz
  1  'x, y, z'
loop_
 _atom_site_type_symbol
 _atom_site_label
 _atom_site_symmetry_multiplicity
 _atom_site_fract_x
 _atom_site_fract_y
 _atom_site_fract_z
 _atom_site_occupancy
 _atom_site_hle17_bader_spin_density
 _atom_site_hle17_ddec_charge
 _atom_site_hle17_ddec_spin_density
 _atom_site_hle17_ddec_sum_bond_order
 _atom_site_hle17_magmom
 _atom_site_hse06_10hf_bader_spin_density
 _atom_site_hse06_10hf_ddec_charge
 _atom_site_hse06_10hf_ddec_spin_density
 _atom_site_hse06_10hf_ddec_sum_bond_order
 _atom_site_hse06_10hf_magmom
 _atom_site_hse06_bader_spin_density
 _atom_site_hse06_ddec_charge
 _atom_site_hse06_ddec_spin_density
 _atom_site_hse06_ddec_sum_bond_order
 _atom_site_hse06_magmom
 _atom_site_pbe_bader_spin_density
 _atom_site_pbe_cm5_charge
 _atom_site_pbe_ddec_charge
 _atom_site_pbe_ddec_spin_density
 _atom_site_pbe_ddec_sum_bond_order
 _atom_site_pbe_magmom
H  H0  1  0.00505371  0.42866738  0.26521839  1  0  0.091347  0  0.969115  0  0  0.102565  0  1.037915  0  0  0.104185  0  1.036156  0  0  0.111417  0.101294  0  1.039438  0
H  H1  1  0.99494949  0.07133252  0.76521157  1  0  0.091441  0  0.969007  0  0  0.102604  0  1.037862  0  0  0.104223  0  1.036103  0  0  0.111432  0.101332  0  1.039385  0
H  H2  1  0.99495028  0.57133366  0.73478754  1  0  0.091432  0  0.969002  0  0  0.102589  0  1.037873  0  0  0.104208  0  1.036115  0  0  0.111428  0.101318  0  1.039396  0
H  H3  1  0.00505133  0.92866660  0.23478733  1  0  0.091419  0  0.969037  0  0  0.102575  0  1.037917  0  0  0.1042  0  1.036143  0  0  0.111414  0.101304  0  1.039441  0
H  H4  1  0.13450400  0.63094894  0.14498349  1  0  0.124145  0  0.988042  0  0  0.132555  0  1.048621  0  0  0.134348  0  1.050681  0  0  0.102571  0.131224  0  1.047393  0
H  H5  1  0.86549700  0.86905126  0.64497764  1  0  0.124118  0  0.988074  0  0  0.13253  0  1.048659  0  0  0.13432  0  1.050722  0  0  0.102557  0.131214  0  1.047413  0
H  H6  1  0.86549877  0.36905210  0.85502103  1  0  0.124136  0  0.988026  0  0  0.132547  0  1.048607  0  0  0.134339  0  1.050669  0  0  0.102559  0.131232  0  1.047359  0
H  H7  1  0.13450381  0.13094786  0.35502126  1  0  0.124112  0  0.988069  0  0  0.132524  0  1.048651  0  0  0.134316  0  1.050714  0  0  0.102554  0.13121  0  1.047405  0
H  H8  1  0.88497164  0.75412057  0.14195417  1  0  0.082263  0  0.989548  0  0  0.091427  0  1.064677  0  0  0.093787  0  1.060971  0  0  0.102019  0.089501  0  1.067727  0
H  H9  1  0.11502860  0.74587772  0.64195237  1  0  0.082276  0  0.989561  0  0  0.09149  0  1.064632  0  0  0.093853  0  1.060922  0  0  0.102034  0.089565  0  1.067682  0
H  H10  1  0.11502759  0.24587759  0.85804684  1  0  0.082271  0  0.989577  0  0  0.091471  0  1.064663  0  0  0.093833  0  1.060955  0  0  0.102032  0.089546  0  1.067711  0
H  H11  1  0.88497502  0.25412237  0.35804723  1  0  0.082285  0  0.989583  0  0  0.091477  0  1.06468  0  0  0.09384  0  1.06097  0  0  0.102034  0.089553  0  1.067729  0
H  H12  1  0.38872691  0.89211633  0.28040500  1  0  0.076689  0  1.008096  0  0  0.078295  0  1.097461  0  0  0.082049  0  1.091371  0  0  0.090404  0.075769  0  1.101528  0
H  H13  1  0.61127210  0.60788586  0.78040576  1  0  0.076702  0  1.008139  0  0  0.078324  0  1.097489  0  0  0.08208  0  1.091395  0  0  0.090409  0.075798  0  1.101554  0
H  H14  1  0.61127100  0.10788469  0.71959320  1  0  0.076681  0  1.008157  0  0  0.078315  0  1.097498  0  0  0.082069  0  1.091405  0  0  0.090407  0.075789  0  1.101562  0
H  H15  1  0.38872908  0.39211422  0.21959314  1  0  0.076701  0  1.008139  0  0  0.078326  0  1.097484  0  0  0.082077  0  1.091397  0  0  0.090411  0.0758  0  1.101548  0
H  H16  1  0.12362055  0.88807315  0.39854637  1  0  0.116809  0  0.983976  0  0  0.13166  0  1.035945  0  0  0.133573  0  1.03729  0  0  0.104672  0.130594  0  1.034496  0
H  H17  1  0.87638011  0.61192816  0.89854770  1  0  0.116753  0  0.984048  0  0  0.131607  0  1.036024  0  0  0.133518  0  1.037371  0  0  0.104659  0.13054  0  1.034572  0
H  H18  1  0.87637820  0.11192692  0.60145253  1  0  0.116797  0  0.983959  0  0  0.131649  0  1.035935  0  0  0.133561  0  1.037279  0  0  0.104663  0.130582  0  1.034484  0
H  H19  1  0.12362145  0.38807287  0.10145190  1  0  0.11683  0  0.984012  0  0  0.131683  0  1.035976  0  0  0.133597  0  1.037318  0  0  0.104688  0.130615  0  1.034527  0
H  H20  1  0.04862666  0.64922692  0.48323962  1  0  0.081489  0  0.982186  0  0  0.089401  0  1.061209  0  0  0.092321  0  1.056802  0  0  0.098769  0.087123  0  1.064542  0
H  H21  1  0.95137653  0.85077636  0.98323958  1  0  0.081471  0  0.982164  0  0  0.089378  0  1.061207  0  0  0.092298  0  1.056799  0  0  0.098734  0.087099  0  1.064539  0
H  H22  1  0.95137320  0.35077602  0.51676069  1  0  0.081472  0  0.9822  0  0  0.089396  0  1.061197  0  0  0.092315  0  1.056791  0  0  0.098752  0.087116  0  1.06453  0
H  H23  1  0.04862503  0.14922467  0.01676002  1  0  0.081472  0  0.982193  0  0  0.089384  0  1.061226  0  0  0.092304  0  1.056818  0  0  0.098735  0.087104  0  1.064558  0
H  H24  1  0.12686950  0.21367004  0.57419693  1  0  0.097552  0  0.980692  0  0  0.112373  0  1.038879  0  0  0.113614  0  1.038165  0  0  0.113636  0.111261  0  1.039606  0
H  H25  1  0.87312622  0.28633259  0.07419658  1  0  0.097585  0  0.980714  0  0  0.112405  0  1.038901  0  0  0.113642  0  1.038184  0  0  0.113653  0.111296  0  1.039623  0
H  H26  1  0.87312646  0.78632907  0.42580338  1  0  0.097575  0  0.980707  0  0  0.112408  0  1.038884  0  0  0.113646  0  1.038167  0  0  0.113637  0.111301  0  1.039609  0
H  H27  1  0.12686963  0.71366938  0.92580373  1  0  0.097583  0  0.980732  0  0  0.112407  0  1.038916  0  0  0.113647  0  1.0382  0  0  0.113643  0.111295  0  1.03964  0
H  H28  1  0.25542390  0.00914911  0.56364127  1  0  0.11529  0  0.997802  0  0  0.126237  0  1.057123  0  0  0.127862  0  1.059433  0  0  0.100275  0.125114  0  1.05578  0
H  H29  1  0.74457259  0.49085256  0.06364054  1  0  0.115293  0  0.997812  0  0  0.126251  0  1.057115  0  0  0.127876  0  1.059424  0  0  0.100268  0.125128  0  1.055772  0
H  H30  1  0.74457206  0.99084999  0.43635903  1  0  0.115255  0  0.997855  0  0  0.126233  0  1.057147  0  0  0.127857  0  1.059457  0  0  0.100257  0.12511  0  1.055804  0
H  H31  1  0.25542691  0.50914943  0.93635766  1  0  0.115299  0  0.997831  0  0  0.126268  0  1.057123  0  0  0.127893  0  1.059431  0  0  0.100271  0.125144  0  1.05578  0
H  H32  1  0.52651023  0.09301213  0.44055482  1  0  0.098472  0  0.960871  0  0  0.11164  0  1.022649  0  0  0.11318  0  1.021426  0  0  0.114183  0.110669  0  1.023042  0
H  H33  1  0.47348454  0.40698499  0.94055232  1  0  0.098482  0  0.960856  0  0  0.111651  0  1.022628  0  0  0.113189  0  1.021408  0  0  0.114193  0.110681  0  1.023015  0
H  H34  1  0.47348694  0.90698698  0.55944689  1  0  0.098475  0  0.960839  0  0  0.111651  0  1.022609  0  0  0.113209  0  1.021365  0  0  0.114182  0.11068  0  1.022999  0
H  H35  1  0.52651786  0.59301509  0.05944307  1  0  0.098477  0  0.960911  0  0  0.111672  0  1.022642  0  0  0.113223  0  1.021405  0  0  0.114202  0.110702  0  1.023029  0
Au  Au36  1  0.62653156  0.38416636  0.35788260  1  0  0.15066  0  2.285277  0  0  0.052921  0  2.811842  0  0  0.072242  0  2.773312  0  0  0.384151  0.039496  0  2.840887  0
Au  Au37  1  0.37346947  0.11583264  0.85788072  1  0  0.1507  0  2.285282  0  0  0.052941  0  2.811879  0  0  0.072266  0  2.773345  0  0  0.384179  0.039524  0  2.840923  0
Au  Au38  1  0.37346926  0.61583276  0.64211911  1  0  0.15072  0  2.285266  0  0  0.052952  0  2.811836  0  0  0.072264  0  2.773302  0  0  0.384184  0.039547  0  2.840888  0
Au  Au39  1  0.62653135  0.88416648  0.14211818  1  0  0.150683  0  2.285255  0  0  0.052923  0  2.811824  0  0  0.072245  0  2.773292  0  0  0.384167  0.03951  0  2.840873  0
Au  Au40  1  0.55734223  0.65801027  0.28243328  1  0  0.175913  0  2.172423  0  0  0.067805  0  2.673557  0  0  0.085993  0  2.641975  0  0  0.384755  0.05514  0  2.697522  0
Au  Au41  1  0.44265886  0.84199098  0.78243284  1  0  0.175878  0  2.172441  0  0  0.067744  0  2.673564  0  0  0.085942  0  2.641992  0  0  0.384742  0.055079  0  2.697525  0
Au  Au42  1  0.44265970  0.34199172  0.71756633  1  0  0.175837  0  2.172445  0  0  0.067725  0  2.673607  0  0  0.085932  0  2.642017  0  0  0.384748  0.055058  0  2.697568  0
Au  Au43  1  0.55734037  0.15800719  0.21756676  1  0  0.175882  0  2.172445  0  0  0.067786  0  2.673565  0  0  0.085991  0  2.641977  0  0  0.38476  0.055121  0  2.697529  0
Au  Au44  1  0.28844558  0.46593632  0.44162255  1  0  0.163841  0  2.138461  0  0  0.052045  0  2.633462  0  0  0.072363  0  2.599906  0  0  0.377479  0.037244  0  2.656366  0
Au  Au45  1  0.71155591  0.03406559  0.94162357  1  0  0.163902  0  2.138472  0  0  0.052119  0  2.633481  0  0  0.072436  0  2.599924  0  0  0.377514  0.037322  0  2.656385  0
Au  Au46  1  0.71155196  0.53406375  0.55837705  1  0  0.163882  0  2.13848  0  0  0.052105  0  2.633488  0  0  0.072426  0  2.599924  0  0  0.377513  0.037309  0  2.656393  0
Au  Au47  1  0.28844686  0.96593544  0.05837604  1  0  0.163896  0  2.138514  0  0  0.052111  0  2.633509  0  0  0.072421  0  2.599962  0  0  0.377512  0.037312  0  2.656414  0
C  C48  1  0.95110899  0.50326425  0.24331419  1  0  0.032257  0  3.717564  0  0  -0.009875  0  3.975985  0  0  -0.001783  0  3.993434  0  0  0.00304  -0.014905  0  3.963974  0
C  C49  1  0.04889315  0.99673411  0.74331071  1  0  0.032197  0  3.717568  0  0  -0.009882  0  3.976003  0  0  -0.001789  0  3.993452  0  0  0.003039  -0.014912  0  3.963991  0
C  C50  1  0.04889304  0.49673488  0.75668893  1  0  0.032184  0  3.717524  0  0  -0.009896  0  3.975955  0  0  -0.001803  0  3.993402  0  0  0.00302  -0.014929  0  3.963945  0
C  C51  1  0.95110925  0.00326597  0.25668890  1  0  0.032168  0  3.717574  0  0  -0.009919  0  3.976006  0  0  -0.001826  0  3.993459  0  0  0.003042  -0.01495  0  3.963999  0
C  C52  1  0.01489163  0.60609306  0.18231435  1  0  -0.195249  0  3.769893  0  0  -0.204313  0  4.019328  0  0  -0.213103  0  4.041232  0  0  -0.1223  -0.19856  0  4.004393  0
C  C53  1  0.98510851  0.89390430  0.68231086  1  0  -0.195233  0  3.769986  0  0  -0.204282  0  4.019395  0  0  -0.213072  0  4.041302  0  0  -0.122309  -0.198545  0  4.004446  0
C  C54  1  0.98511003  0.39390510  0.81768736  1  0  -0.195205  0  3.769908  0  0  -0.204254  0  4.019314  0  0  -0.213043  0  4.041218  0  0  -0.122256  -0.198517  0  4.00436  0
C  C55  1  0.01489352  0.10609483  0.31768734  1  0  -0.195187  0  3.769899  0  0  -0.204245  0  4.019322  0  0  -0.213034  0  4.041228  0  0  -0.122289  -0.198508  0  4.004375  0
C  C56  1  0.89142870  0.67026205  0.18072405  1  0  0.008328  0  3.747019  0  0  -0.02926  0  4.00293  0  0  -0.021764  0  4.019823  0  0  -0.003339  -0.033712  0  3.991242  0
C  C57  1  0.10857264  0.82973531  0.68072149  1  0  0.008263  0  3.747003  0  0  -0.029363  0  4.002913  0  0  -0.021869  0  4.019804  0  0  -0.003335  -0.033816  0  3.991227  0
C  C58  1  0.10857296  0.32973612  0.81927696  1  0  0.008188  0  3.747094  0  0  -0.029415  0  4.003029  0  0  -0.021921  0  4.019923  0  0  -0.003381  -0.033868  0  3.991338  0
C  C59  1  0.89143013  0.17026573  0.31927882  1  0  0.008283  0  3.746898  0  0  -0.029323  0  4.002822  0  0  -0.021827  0  4.019709  0  0  -0.003324  -0.033776  0  3.99114  0
C  C60  1  0.31844145  0.81737406  0.32782059  1  0  0.033346  0  3.73048  0  0  -0.004051  0  3.987736  0  0  0.003075  0  4.004829  0  0  0.000321  -0.009187  0  3.975824  0
C  C61  1  0.68155752  0.68262721  0.82782146  1  0  0.033314  0  3.730597  0  0  -0.004133  0  3.98784  0  0  0.003002  0  4.004945  0  0  0.000306  -0.009267  0  3.975922  0
C  C62  1  0.68155646  0.18262697  0.67217901  1  0  0.033312  0  3.730652  0  0  -0.004123  0  3.987893  0  0  0.003008  0  4.005006  0  0  0.000303  -0.009257  0  3.97597  0
C  C63  1  0.31844367  0.31737287  0.17217814  1  0  0.033298  0  3.730535  0  0  -0.004126  0  3.98777  0  0  0.002999  0  4.004899  0  0  0.000298  -0.009259  0  3.97585  0
C  C64  1  0.18301197  0.81314609  0.38775887  1  0  -0.216468  0  3.801227  0  0  -0.223774  0  4.043898  0  0  -0.233719  0  4.068203  0  0  -0.127041  -0.217025  0  4.025961  0
C  C65  1  0.81698741  0.68685522  0.88775933  1  0  -0.216474  0  3.801287  0  0  -0.223775  0  4.043955  0  0  -0.233721  0  4.068266  0  0  -0.127074  -0.217025  0  4.026012  0
C  C66  1  0.81698399  0.18685302  0.61224073  1  0  -0.21652  0  3.801242  0  0  -0.223825  0  4.043919  0  0  -0.233773  0  4.06823  0  0  -0.127063  -0.217075  0  4.025975  0
C  C67  1  0.18301452  0.31314677  0.11223957  1  0  -0.216544  0  3.801181  0  0  -0.223847  0  4.043867  0  0  -0.233794  0  4.068171  0  0  -0.12707  -0.217098  0  4.025926  0
C  C68  1  0.14541407  0.69400126  0.43183191  1  0  0.01629  0  3.749225  0  0  -0.02431  0  4.010177  0  0  -0.017504  0  4.028681  0  0  -0.004192  -0.027609  0  3.996641  0
C  C69  1  0.85458803  0.80600008  0.93183169  1  0  0.016377  0  3.749113  0  0  -0.024233  0  4.010068  0  0  -0.017422  0  4.028556  0  0  -0.004142  -0.027534  0  3.996531  0
C  C70  1  0.85458469  0.30599881  0.56816839  1  0  0.016347  0  3.749204  0  0  -0.024251  0  4.010158  0  0  -0.017441  0  4.028651  0  0  -0.00417  -0.027552  0  3.99662  0
C  C71  1  0.14541474  0.19400095  0.06816721  1  0  0.01637  0  3.74924  0  0  -0.024243  0  4.010191  0  0  -0.017431  0  4.028683  0  0  -0.004163  -0.027543  0  3.996652  0
C  C72  1  0.23253748  0.20252437  0.53368427  1  0  0.014449  0  3.752072  0  0  -0.025633  0  4.010576  0  0  -0.016797  0  4.025765  0  0  -0.004929  -0.030788  0  3.999825  0
C  C73  1  0.76745480  0.29747631  0.03368580  1  0  0.014298  0  3.75223  0  0  -0.025792  0  4.01077  0  0  -0.016952  0  4.025955  0  0  -0.004977  -0.030949  0  4.000023  0
C  C74  1  0.76746165  0.79747665  0.46631744  1  0  0.014339  0  3.751998  0  0  -0.02576  0  4.010532  0  0  -0.016916  0  4.025713  0  0  -0.004933  -0.030916  0  3.999788  0
C  C75  1  0.23253630  0.70252278  0.96631662  1  0  0.014433  0  3.752103  0  0  -0.025655  0  4.01061  0  0  -0.016816  0  4.025794  0  0  -0.004898  -0.030808  0  3.999855  0
C  C76  1  0.30021745  0.09995281  0.52750128  1  0  -0.208013  0  3.794206  0  0  -0.220266  0  4.050845  0  0  -0.229782  0  4.072423  0  0  -0.126607  -0.214313  0  4.035538  0
C  C77  1  0.69977879  0.40004883  0.02750050  1  0  -0.207903  0  3.794153  0  0  -0.220157  0  4.050769  0  0  -0.229669  0  4.072344  0  0  -0.126543  -0.214205  0  4.035461  0
C  C78  1  0.69978046  0.90004821  0.47250113  1  0  -0.207887  0  3.794119  0  0  -0.220159  0  4.050732  0  0  -0.229674  0  4.072314  0  0  -0.126541  -0.214204  0  4.035423  0
C  C79  1  0.30021912  0.59995219  0.97249911  1  0  -0.208055  0  3.794274  0  0  -0.220326  0  4.050908  0  0  -0.229841  0  4.072486  0  0  -0.12662  -0.214372  0  4.035595  0
C  C80  1  0.43738873  0.14093259  0.46594998  1  0  0.028885  0  3.721596  0  0  -0.012384  0  3.980887  0  0  -0.003894  0  3.997554  0  0  0.002499  -0.017498  0  3.96808  0
C  C81  1  0.56260733  0.35906741  0.96594910  1  0  0.028854  0  3.721624  0  0  -0.012427  0  3.980927  0  0  -0.003936  0  3.997595  0  0  0.002478  -0.017531  0  3.96812  0
C  C82  1  0.56260760  0.85906747  0.53405032  1  0  0.028883  0  3.721579  0  0  -0.012427  0  3.980867  0  0  -0.00396  0  3.997521  0  0  0.002482  -0.017518  0  3.968071  0
C  C83  1  0.43739264  0.64093266  0.03404840  1  0  0.028913  0  3.72162  0  0  -0.012379  0  3.980903  0  0  -0.003899  0  3.997563  0  0  0.002493  -0.01748  0  3.968102  0
N  N84  1  0.79876665  0.50635599  0.27633124  1  0  -0.147933  0  3.450606  0  0  -0.06692  0  3.726255  0  0  -0.083182  0  3.750521  0  0  -0.282448  -0.05565  0  3.709676  0
N  N85  1  0.20123608  0.99364334  0.77632880  1  0  -0.147911  0  3.450646  0  0  -0.066894  0  3.726278  0  0  -0.083156  0  3.750545  0  0  -0.282459  -0.055625  0  3.709697  0
N  N86  1  0.20123538  0.49364313  0.72367047  1  0  -0.147923  0  3.450563  0  0  -0.066893  0  3.726221  0  0  -0.083153  0  3.750483  0  0  -0.282453  -0.055624  0  3.709638  0
N  N87  1  0.79876595  0.00635578  0.22367081  1  0  -0.147924  0  3.450556  0  0  -0.066888  0  3.726184  0  0  -0.083153  0  3.750455  0  0  -0.282471  -0.055618  0  3.709604  0
N  N88  1  0.76168648  0.60933639  0.23790261  1  0  -0.154089  0  3.446244  0  0  -0.072062  0  3.719324  0  0  -0.08772  0  3.743406  0  0  -0.284091  -0.061474  0  3.703367  0
N  N89  1  0.23831562  0.89066197  0.73790100  1  0  -0.154083  0  3.44625  0  0  -0.072067  0  3.719352  0  0  -0.087727  0  3.743437  0  0  -0.284106  -0.061481  0  3.703394  0
N  N90  1  0.23831639  0.39066178  0.76209840  1  0  -0.153962  0  3.44619  0  0  -0.071999  0  3.71933  0  0  -0.087658  0  3.743416  0  0  -0.284087  -0.061412  0  3.703369  0
N  N91  1  0.76168678  0.10933811  0.26209790  1  0  -0.154073  0  3.446218  0  0  -0.072098  0  3.719367  0  0  -0.087757  0  3.743453  0  0  -0.284109  -0.06151  0  3.70341  0
N  N92  1  0.35942418  0.70712545  0.33576915  1  0  -0.137187  0  3.426167  0  0  -0.05465  0  3.693948  0  0  -0.069846  0  3.71791  0  0  -0.278166  -0.044399  0  3.678036  0
N  N93  1  0.64057606  0.79287582  0.83576988  1  0  -0.137162  0  3.426016  0  0  -0.054528  0  3.69369  0  0  -0.069761  0  3.717693  0  0  -0.278141  -0.044279  0  3.677773  0
N  N94  1  0.64057495  0.29287557  0.66423045  1  0  -0.137061  0  3.426135  0  0  -0.054482  0  3.693865  0  0  -0.069716  0  3.71787  0  0  -0.278126  -0.044232  0  3.677946  0
N  N95  1  0.35942634  0.20712426  0.16422903  1  0  -0.137104  0  3.426029  0  0  -0.054529  0  3.693763  0  0  -0.06976  0  3.717763  0  0  -0.278171  -0.04428  0  3.677849  0
N  N96  1  0.25302485  0.63123253  0.39994330  1  0  -0.146144  0  3.465396  0  0  -0.064021  0  3.737199  0  0  -0.080128  0  3.7621  0  0  -0.283081  -0.053361  0  3.719255  0
N  N97  1  0.74697741  0.86876974  0.89994282  1  0  -0.146178  0  3.465316  0  0  -0.064093  0  3.737126  0  0  -0.080188  0  3.762033  0  0  -0.283084  -0.053433  0  3.71918  0
N  N98  1  0.74697428  0.36876849  0.60005630  1  0  -0.146227  0  3.465456  0  0  -0.064129  0  3.737285  0  0  -0.080224  0  3.762192  0  0  -0.283111  -0.05347  0  3.719338  0
N  N99  1  0.25302536  0.13123130  0.10005538  1  0  -0.146244  0  3.465453  0  0  -0.064121  0  3.737246  0  0  -0.080218  0  3.762154  0  0  -0.283077  -0.053461  0  3.7193  0
N  N100  1  0.32323434  0.29863939  0.47817977  1  0  -0.153345  0  3.479425  0  0  -0.069717  0  3.753222  0  0  -0.085861  0  3.776455  0  0  -0.288146  -0.059044  0  3.736749  0
N  N101  1  0.67676338  0.20136158  0.97817852  1  0  -0.153309  0  3.479624  0  0  -0.069694  0  3.753421  0  0  -0.085837  0  3.776651  0  0  -0.288155  -0.059024  0  3.736964  0
N  N102  1  0.67676357  0.70136164  0.52182264  1  0  -0.153283  0  3.479457  0  0  -0.069702  0  3.753256  0  0  -0.085853  0  3.776483  0  0  -0.288155  -0.05902  0  3.736813  0
N  N103  1  0.32323659  0.79863849  0.02182039  1  0  -0.15331  0  3.479502  0  0  -0.069697  0  3.753294  0  0  -0.085842  0  3.776525  0  0  -0.288167  -0.059021  0  3.736836  0
N  N104  1  0.45009570  0.26098041  0.43711801  1  0  -0.149582  0  3.457561  0  0  -0.067686  0  3.726976  0  0  -0.083506  0  3.750497  0  0  -0.285837  -0.056898  0  3.711076  0
N  N105  1  0.54990100  0.23901862  0.93711786  1  0  -0.149653  0  3.457658  0  0  -0.067732  0  3.727057  0  0  -0.083553  0  3.750578  0  0  -0.285885  -0.056965  0  3.711176  0
N  N106  1  0.54990184  0.73901966  0.56288230  1  0  -0.149729  0  3.457639  0  0  -0.06773  0  3.726981  0  0  -0.083528  0  3.750486  0  0  -0.285895  -0.057002  0  3.711144  0
N  N107  1  0.45009860  0.76098049  0.06288104  1  0  -0.149669  0  3.45762  0  0  -0.067732  0  3.727  0  0  -0.083552  0  3.750526  0  0  -0.285863  -0.056977  0  3.711134  0
