# generated using pymatgen
data_CoH15C17Br(NO)4
_symmetry_space_group_name_H-M   'P 1'
_cell_length_a   7.74383151
_cell_length_b   11.36935666
_cell_length_c   11.36932937
_cell_angle_alpha   71.33970295
_cell_angle_beta   72.48125392
_cell_angle_gamma   72.48092083
_symmetry_Int_Tables_number   1
_chemical_formula_structural   CoH15C17Br(NO)4
_chemical_formula_sum   'Co2 H30 C34 Br2 N8 O8'
_cell_volume   880.85677619
_cell_formula_units_Z   2
loop_
 _symmetry_equiv_pos_site_id
 _symmetry_equiv_pos_as_xyz
  1  'x, y, z'
loop_
 _atom_site_type_symbol
 _atom_site_label
 _atom_site_symmetry_multiplicity
 _atom_site_fract_x
 _atom_site_fract_y
 _atom_site_fract_z
 _atom_site_occupancy
 _atom_site_hle17_ddec_charge
 _atom_site_hle17_ddec_spin_density
 _atom_site_hle17_ddec_sum_bond_order
 _atom_site_hle17_magmom
 _atom_site_hse06_10hf_ddec_charge
 _atom_site_hse06_10hf_ddec_spin_density
 _atom_site_hse06_10hf_ddec_sum_bond_order
 _atom_site_hse06_10hf_magmom
 _atom_site_hse06_ddec_charge
 _atom_site_hse06_ddec_spin_density
 _atom_site_hse06_ddec_sum_bond_order
 _atom_site_hse06_magmom
 _atom_site_pbe_cm5_charge
 _atom_site_pbe_ddec_charge
 _atom_site_pbe_ddec_spin_density
 _atom_site_pbe_ddec_sum_bond_order
 _atom_site_pbe_magmom
Co  Co0  1  0.62229411  0.37687683  0.03247295  1  0.954484  2.813258  2.026052  2.526  0.893212  2.820148  2.484678  2.58  0.986209  2.867282  2.3965  2.671  0.673045  0.820147  2.774017  2.550555  2.494
Co  Co1  1  0.37770104  0.96752520  0.62312963  1  0.954346  2.813234  2.026239  2.526  0.893208  2.820133  2.484727  2.58  0.986196  2.867269  2.396553  2.671  0.673045  0.820143  2.773999  2.550612  2.494
H  H2  1  0.58806469  0.77532441  0.97374973  1  0.108605  0.0  0.970701  0.0  0.114025  -0.0  1.042562  0.0  0.117772  -4.1e-05  1.039319  0.0  0.10335  0.111249  5.5e-05  1.044963  0.0
H  H3  1  0.41195203  0.02625466  0.22467156  1  0.108571  -0.0  0.970656  0.0  0.113991  -0.0  1.04253  0.0  0.117731  -4.1e-05  1.039295  0.0  0.103332  0.111213  5.5e-05  1.044937  0.0
H  H4  1  0.49998614  0.62065366  0.37935231  1  0.093443  -1.9e-05  0.979051  0.0  0.099273  3.7e-05  1.054072  0.0  0.103806  2e-06  1.048591  0.0  0.099482  0.095845  4.7e-05  1.05828  0.0
H  H5  1  0.82873580  0.90181137  0.34402944  1  0.11165  -0.000168  0.966415  0.0  0.117249  -0.000158  1.036179  0.0  0.120874  -0.000144  1.033596  0.0  0.103898  0.114535  -0.000161  1.038319  0.0
H  H6  1  0.17126455  0.65596722  0.09820206  1  0.11166  -0.000169  0.966391  0.0  0.117263  -0.000158  1.036141  0.0  0.12091  -0.000144  1.033494  0.0  0.10391  0.114549  -0.000161  1.03828  0.0
H  H7  1  0.99999599  0.05864331  0.94135314  1  0.089331  0.000114  0.988767  0.0  0.098989  -0.0  1.058536  0.0  0.102698  -8e-05  1.05392  0.0  0.096321  0.096194  0.000104  1.062006  0.0
H  H8  1  0.21211018  0.50080004  0.98105227  1  0.108519  0.000128  0.964843  0.001  0.117039  0.000314  1.026952  0.001  0.119323  0.000221  1.025842  0.001  0.119249  0.115312  0.000413  1.028003  0.001
H  H9  1  0.78788824  0.01894488  0.49920527  1  0.10847  0.000128  0.964669  0.001  0.116983  0.000314  1.02681  0.001  0.119277  0.000221  1.025686  0.0  0.119191  0.115262  0.000413  1.027866  0.001
H  H10  1  0.90981027  0.40567399  0.15256228  1  0.119477  -0.000233  0.995302  0.0  0.123927  0.000111  1.065407  0.0  0.127026  -1.4e-05  1.06334  0.0  0.121667  0.121443  0.000238  1.067313  0.0
H  H11  1  0.09018545  0.84743257  0.59432750  1  0.119422  -0.00023  0.995414  0.0  0.123863  0.000112  1.065533  0.0  0.126966  -1.4e-05  1.063457  0.0  0.12162  0.121379  0.000238  1.067437  0.0
H  H12  1  0.40537450  0.20191694  0.27744738  1  0.106427  -0.000212  0.975845  0.0  0.111793  -3.1e-05  1.045716  0.0  0.114556  -7e-05  1.041994  0.0  0.137249  0.109612  1.8e-05  1.048665  0.001
H  H13  1  0.59462692  0.72255311  0.79808944  1  0.106385  -0.000213  0.975964  0.0  0.11177  -3.1e-05  1.04579  0.0  0.114519  -7e-05  1.042105  0.0  0.137252  0.109583  1.8e-05  1.048748  0.001
H  H14  1  0.10642521  0.12836816  0.40391852  1  0.090166  -0.000239  0.932954  0.0  0.105859  -0.00016  0.992705  0.0  0.107182  -0.000195  0.99246  0.0  0.112586  0.1047  -9.8e-05  0.993057  0.0
H  H15  1  0.89357727  0.59607733  0.87163416  1  0.09014  -0.000244  0.933014  0.0  0.105874  -0.00016  0.992711  0.0  0.107199  -0.000194  0.992459  0.0  0.11259  0.104713  -9.8e-05  0.993065  0.0
H  H16  1  0.90130496  0.19919633  0.34207745  1  0.094297  9.7e-05  0.945601  0.0  0.110768  8.3e-05  1.002805  0.0  0.111922  4.2e-05  1.002642  0.0  0.113925  0.109763  0.000139  1.003191  0.0
H  H17  1  0.09869629  0.65791674  0.80080537  1  0.094288  9.4e-05  0.94557  0.0  0.110711  8.3e-05  1.002844  0.0  0.111865  4.3e-05  1.002681  0.0  0.113911  0.109709  0.000139  1.003232  0.0
H  H18  1  0.06035620  0.32751192  0.47428781  1  0.072146  -9.8e-05  0.964589  0.0  0.084878  -0.0001  1.034851  0.0  0.085139  -8.9e-05  1.036917  0.0  0.087981  0.084609  -0.0001  1.033547  0.0
H  H19  1  0.93964421  0.52570837  0.67248910  1  0.072099  -9.3e-05  0.964637  0.0  0.084849  -0.0001  1.03489  0.0  0.085111  -8.9e-05  1.036956  0.0  0.087975  0.084577  -0.0001  1.033587  0.0
H  H20  1  0.85904667  0.39543862  0.41065471  1  0.079718  1.8e-05  0.949299  0.0  0.094444  3.2e-05  1.016636  0.0  0.095774  1.6e-05  1.01626  0.0  0.09281  0.093436  4.6e-05  1.016901  0.0
H  H21  1  0.14095484  0.58933921  0.60456420  1  0.079664  2.5e-05  0.949383  0.0  0.094393  3.2e-05  1.016721  0.0  0.095724  1.5e-05  1.016345  0.0  0.092786  0.093383  4.6e-05  1.016983  0.0
H  H22  1  0.70870444  0.22050887  0.56613157  1  0.067895  -0.000153  0.956549  0.0  0.083929  -7.6e-05  1.019505  0.0  0.083619  -7.7e-05  1.021295  0.0  0.1054  0.083994  -8.5e-05  1.018408  0.0
H  H23  1  0.29130273  0.43385917  0.77949356  1  0.067944  -0.000158  0.956563  0.0  0.084012  -7.6e-05  1.019475  0.0  0.083706  -7.7e-05  1.021262  0.0  0.105431  0.084076  -8.5e-05  1.018374  0.0
H  H24  1  0.90650015  0.15693668  0.63431965  1  0.08081  -8.6e-05  0.915015  0.0  0.096876  1.6e-05  0.9764  0.0  0.097072  -2.9e-05  0.977021  0.0  0.114491  0.096517  8.8e-05  0.976259  0.0
H  H25  1  0.09350335  0.36567347  0.84306397  1  0.080822  -9.1e-05  0.914968  0.0  0.096873  1.6e-05  0.976374  0.0  0.09707  -2.9e-05  0.976997  0.0  0.114477  0.096512  8.8e-05  0.976235  0.0
H  H26  1  0.62567273  0.50749417  0.54488350  1  0.118406  0.000288  0.972784  0.0  0.126252  0.000318  1.039622  0.0  0.129506  0.000224  1.036717  0.0  0.122208  0.123706  0.000374  1.042066  0.0
H  H27  1  0.37433457  0.45511092  0.49250554  1  0.118415  0.000288  0.972731  0.0  0.126272  0.000318  1.039546  0.0  0.129526  0.000224  1.03664  0.0  0.122225  0.123725  0.000374  1.041989  0.0
H  H28  1  0.50334089  0.58384705  0.76792951  1  0.127224  6.9e-05  0.975816  0.001  0.13441  0.000188  1.037171  0.001  0.137325  0.000108  1.034979  0.0  0.123432  0.132234  0.000272  1.038957  0.001
H  H29  1  0.49667077  0.23206177  0.41615570  1  0.127208  6.7e-05  0.975798  0.001  0.134414  0.000188  1.037104  0.001  0.137329  0.000108  1.03492  0.0  0.123444  0.132247  0.000272  1.038892  0.001
H  H30  1  0.81586463  0.20350727  0.84232944  1  0.094632  -0.00018  0.975835  0.001  0.099549  -0.000104  1.050445  0.0  0.102844  -0.000131  1.045612  0.0  0.129785  0.096811  -7.8e-05  1.054399  0.0
H  H31  1  0.18413898  0.15766851  0.79649161  1  0.094668  -0.000179  0.975811  0.001  0.099545  -0.000104  1.050457  0.0  0.102838  -0.000131  1.045627  0.0  0.129772  0.096838  -7.8e-05  1.05438  0.0
C  C32  1  0.50000809  0.91091755  0.08908229  1  0.093326  -4.7e-05  3.712815  0.0  0.115651  -0.0005  3.976367  0.0  0.115325  -0.000476  4.000024  0.0  -0.013202  0.115454  -0.000677  3.960756  0.0
C  C33  1  0.55050060  0.78933190  0.06916846  1  -0.096694  -0.000535  3.699583  0.0  -0.131275  0.000747  3.94358  0.001  -0.129227  0.000525  3.962107  0.001  -0.083683  -0.1325  0.001111  3.931403  0.001
C  C34  1  0.44950454  0.93083203  0.21066825  1  -0.096589  -0.000537  3.699468  0.0  -0.131163  0.000746  3.94344  0.001  -0.129109  0.000522  3.961968  0.001  -0.08366  -0.132388  0.001111  3.931265  0.001
C  C35  1  0.54949706  0.68377559  0.17505115  1  -0.049922  0.002603  3.750166  0.004  -0.021119  0.00096  3.977856  0.001  -0.030244  0.000415  4.0003  0.001  -0.016703  -0.015371  0.001492  3.963212  0.002
C  C36  1  0.45050236  0.82495185  0.31622765  1  -0.050026  0.002604  3.750226  0.004  -0.021226  0.000961  3.977917  0.001  -0.030347  0.000417  4.00035  0.001  -0.016708  -0.015477  0.001492  3.96327  0.002
C  C37  1  0.49999253  0.70258107  0.29742165  1  -0.072164  -0.000252  3.722561  0.0  -0.116382  0.001172  3.978524  0.002  -0.112508  0.00082  3.995688  0.001  -0.079131  -0.118577  0.00175  3.966984  0.002
C  C38  1  0.59609519  0.55068232  0.15991023  1  0.62284  -0.003719  3.919507  -0.004  0.582239  0.002594  4.209554  0.001  0.61789  0.001455  4.205761  0.001  0.201312  0.556946  0.003779  4.21088  0.002
C  C39  1  0.40389725  0.84009353  0.44932532  1  0.622845  -0.00371  3.919545  -0.004  0.582251  0.002595  4.209588  0.001  0.617902  0.001454  4.20579  0.001  0.201267  0.556949  0.00378  4.210908  0.002
C  C40  1  0.00000060  0.76882104  0.23118137  1  0.094956  0.000838  3.718043  0.001  0.11537  0.000227  3.983321  0.0  0.115433  4.4e-05  4.006433  0.0  -0.014653  0.115025  0.00041  3.96795  0.001
C  C41  1  0.90438800  0.88870623  0.24986877  1  -0.104649  -0.000923  3.714622  0.0  -0.139065  0.000845  3.958814  0.001  -0.137782  0.000608  3.978645  0.001  -0.085181  -0.139832  0.001168  3.945785  0.002
C  C42  1  0.09561303  0.75013133  0.11129655  1  -0.104694  -0.000918  3.714635  0.0  -0.139085  0.000845  3.958805  0.001  -0.137796  0.000608  3.978649  0.001  -0.085191  -0.139856  0.001168  3.945782  0.002
C  C43  1  0.90496947  0.99431634  0.14418044  1  -0.057757  0.003774  3.753478  0.006  -0.029579  0.001552  3.983445  0.002  -0.039472  0.000873  4.006485  0.001  -0.0205  -0.023148  0.002281  3.968442  0.003
C  C44  1  0.09502367  0.85581960  0.00568630  1  -0.057731  0.003775  3.753391  0.006  -0.029579  0.001551  3.983386  0.002  -0.039471  0.000871  4.006425  0.001  -0.020488  -0.023143  0.002281  3.968387  0.003
C  C45  1  0.99999502  0.97686775  0.02313404  1  -0.070018  -0.000833  3.718181  -0.001  -0.113959  0.000873  3.971093  0.001  -0.108819  0.000544  3.987369  0.001  -0.085682  -0.117563  0.001156  3.960802  0.001
C  C46  1  0.79715660  0.12366855  0.16340869  1  0.644236  -0.003464  3.901467  -0.004  0.600502  0.002568  4.196946  0.002  0.637376  0.001502  4.190797  0.001  0.208466  0.574244  0.00367  4.200157  0.003
C  C47  1  0.20284071  0.83658891  0.87633652  1  0.644297  -0.003454  3.901269  -0.004  0.600553  0.002569  4.196777  0.002  0.637424  0.001504  4.190631  0.001  0.208536  0.574292  0.003671  4.199992  0.003
C  C48  1  0.20693054  0.42349765  0.06685422  1  -0.015318  -0.004773  3.750271  -0.003  -0.042432  0.000647  4.019356  0.002  -0.039925  0.000337  4.040534  0.001  -0.006234  -0.044411  0.000928  4.005038  0.002
C  C49  1  0.79306598  0.93314348  0.57650481  1  -0.015388  -0.004747  3.749959  -0.003  -0.042512  0.000647  4.019068  0.002  -0.040008  0.000336  4.04023  0.001  -0.00625  -0.044501  0.000929  4.004766  0.002
C  C50  1  0.05709653  0.37914084  0.15048105  1  -0.053923  0.004254  3.65324  0.006  -0.093679  0.002049  3.905708  0.003  -0.091686  0.001362  3.923386  0.002  0.002812  -0.09501  0.002781  3.894422  0.004
C  C51  1  0.94290006  0.84951538  0.62086071  1  -0.053784  0.004236  3.653368  0.006  -0.093524  0.002048  3.905811  0.003  -0.091528  0.001362  3.923482  0.002  0.002891  -0.094846  0.00278  3.894498  0.004
C  C52  1  0.31304257  0.27062027  0.21939507  1  0.159024  -0.004807  3.643586  -0.002  0.099605  0.002877  3.917236  0.004  0.115219  0.002271  3.930381  0.003  0.144138  0.088912  0.003305  3.908239  0.004
C  C53  1  0.68695625  0.78059917  0.72938211  1  0.159131  -0.00479  3.643595  -0.002  0.099704  0.002877  3.917266  0.004  0.115315  0.002271  3.9304  0.003  0.144124  0.089008  0.003305  3.908266  0.004
C  C54  1  0.01622334  0.21909095  0.36492535  1  -0.006026  0.000739  3.589777  0.001  -0.06152  0.00062  3.834128  0.001  -0.058553  0.000418  3.845622  0.001  -0.05082  -0.063328  0.000802  3.826539  0.001
C  C55  1  0.98377602  0.63507064  0.78091174  1  -0.005837  0.000755  3.58976  0.001  -0.061321  0.00062  3.834076  0.001  -0.05835  0.000417  3.845567  0.001  -0.050741  -0.063137  0.000802  3.826489  0.001
C  C56  1  0.94284335  0.30528485  0.45690153  1  -0.149265  2.2e-05  3.678234  0.0  -0.192873  0.000172  3.939566  0.0  -0.194938  0.000101  3.952695  0.0  -0.166351  -0.191208  0.000223  3.930402  0.0
C  C57  1  0.05715532  0.54309557  0.69471858  1  -0.149199  -2e-05  3.67832  0.0  -0.192823  0.000172  3.939629  0.0  -0.194894  0.000103  3.952768  0.0  -0.166337  -0.191159  0.000222  3.930461  0.0
C  C58  1  0.82512214  0.24478677  0.58269967  1  0.008082  0.000515  3.625713  0.001  -0.053142  0.000468  3.880788  0.001  -0.049178  0.00034  3.893198  0.001  -0.051263  -0.0556  0.00061  3.87233  0.001
C  C59  1  0.17488092  0.41729491  0.75521236  1  0.007929  0.000532  3.625882  0.001  -0.053318  0.000468  3.880974  0.001  -0.049366  0.000339  3.893402  0.001  -0.05136  -0.055779  0.000611  3.872504  0.001
C  C60  1  0.64719473  0.45548871  0.63914559  1  -0.057069  0.004626  3.654864  0.006  -0.099418  0.002425  3.914832  0.003  -0.096956  0.00185  3.930529  0.003  0.002501  -0.100847  0.003142  3.904665  0.004
C  C61  1  0.35281089  0.36084857  0.54451022  1  -0.056935  0.004617  3.654731  0.006  -0.099289  0.002426  3.914697  0.003  -0.096822  0.00185  3.930384  0.003  0.002553  -0.100704  0.003142  3.904515  0.004
C  C62  1  0.59010796  0.49359012  0.75070006  1  -0.001945  -0.005126  3.708869  -0.003  -0.029873  -0.000111  3.975107  0.001  -0.026242  -0.000495  3.993217  0.0  0.000462  -0.032731  0.000352  3.963004  0.001
C  C63  1  0.40990321  0.24929165  0.50641462  1  -0.002141  -0.005098  3.708949  -0.003  -0.030073  -0.000112  3.975233  0.001  -0.026439  -0.000495  3.993342  0.0  0.000353  -0.032944  0.000353  3.963143  0.001
C  C64  1  0.75011126  0.29699714  0.79267679  1  0.143963  -0.009651  3.676593  -0.006  0.085159  0.001225  3.947414  0.002  0.100141  0.000922  3.961092  0.002  0.132214  0.074725  0.001219  3.938321  0.002
C  C65  1  0.24989411  0.20732346  0.70299309  1  0.143912  -0.009644  3.676887  -0.006  0.085135  0.001225  3.947758  0.002  0.100117  0.000922  3.961434  0.002  0.132328  0.074674  0.00122  3.938645  0.002
Br  Br66  1  0.50000130  0.05516229  0.94484504  1  -0.070775  -0.000566  1.22932  0.0  -0.060986  -0.000425  1.467284  0.0  -0.066587  -0.000457  1.463881  0.0  0.039765  -0.057283  -0.000549  1.470076  0.0
Br  Br67  1  0.00000537  0.62511078  0.37488183  1  -0.066395  0.000589  1.285377  0.001  -0.05761  0.000389  1.542915  0.001  -0.063074  0.000215  1.539685  0.0  0.053732  -0.053608  0.000543  1.545273  0.001
N  N68  1  0.36598750  0.35483165  0.11098337  1  -0.387352  0.043156  3.387365  0.066  -0.343738  0.031608  3.714276  0.039  -0.375863  0.024849  3.729414  0.03  -0.372652  -0.319751  0.037485  3.703492  0.047
N  N69  1  0.63400885  0.88901410  0.64517221  1  -0.38728  0.043151  3.387088  0.066  -0.34368  0.031607  3.713994  0.039  -0.375798  0.024848  3.729114  0.03  -0.372592  -0.319694  0.037485  3.703212  0.047
N  N70  1  0.12696541  0.28241162  0.24584870  1  -0.048431  0.001306  3.553517  0.002  0.04723  0.001806  3.76628  0.003  0.03315  0.001297  3.791175  0.002  -0.240111  0.056326  0.002255  3.749645  0.004
N  N71  1  0.87303635  0.75414930  0.71758929  1  -0.0486  0.001304  3.553668  0.002  0.047048  0.001806  3.766443  0.003  0.032969  0.001297  3.791332  0.002  -0.24015  0.056144  0.002255  3.749804  0.004
N  N72  1  0.74764358  0.33067457  0.66748842  1  -0.061687  -0.00035  3.561056  0.001  0.03445  0.000802  3.777024  0.001  0.020433  0.000546  3.802242  0.001  -0.243639  0.04357  0.000969  3.760111  0.002
N  N73  1  0.25235647  0.33250755  0.66932109  1  -0.06172  -0.000354  3.56126  0.001  0.034419  0.000802  3.77723  0.001  0.020406  0.000547  3.802449  0.001  -0.243659  0.043542  0.000969  3.760317  0.002
N  N74  1  0.65641569  0.39385812  0.84591043  1  -0.377747  0.040715  3.326802  0.066  -0.329767  0.030563  3.641514  0.041  -0.359358  0.024486  3.654554  0.033  -0.367464  -0.30778  0.036192  3.632214  0.048
N  N75  1  0.34358041  0.15408616  0.60614040  1  -0.377597  0.040709  3.327092  0.066  -0.329646  0.030563  3.641794  0.041  -0.359233  0.024486  3.65483  0.033  -0.3675  -0.307668  0.03619  3.63253  0.048
O  O76  1  0.64106315  0.53969805  0.04252117  1  -0.639167  0.055993  2.051687  0.092  -0.599906  0.041274  2.33852  0.06  -0.644156  0.030349  2.325188  0.044  -0.3364  -0.564602  0.051764  2.345575  0.075
O  O77  1  0.35893224  0.95748620  0.46030672  1  -0.639112  0.055998  2.05152  0.092  -0.599865  0.041275  2.338312  0.06  -0.644124  0.030351  2.325001  0.044  -0.33638  -0.56456  0.051767  2.345366  0.075
O  O78  1  0.59112563  0.45763442  0.25516529  1  -0.593417  0.007324  1.900917  0.012  -0.555233  0.009313  2.128333  0.015  -0.581246  0.006762  2.121736  0.011  -0.31032  -0.535847  0.012377  2.131992  0.019
O  O79  1  0.40885802  0.74483825  0.54236907  1  -0.593361  0.007319  1.901039  0.012  -0.555193  0.009313  2.12846  0.015  -0.581202  0.006764  2.121865  0.011  -0.310247  -0.535812  0.012376  2.132128  0.019
O  O80  1  0.80269554  0.21582158  0.05953646  1  -0.655893  0.052296  2.109118  0.087  -0.618607  0.0389  2.409466  0.057  -0.662981  0.02864  2.395023  0.041  -0.33842  -0.582895  0.049282  2.41728  0.072
O  O81  1  0.19730128  0.94046324  0.78418228  1  -0.655954  0.052297  2.10912  0.087  -0.61867  0.038902  2.409429  0.057  -0.663056  0.028642  2.395013  0.041  -0.338474  -0.582946  0.049284  2.417217  0.072
O  O82  1  0.70921451  0.13535627  0.27257709  1  -0.602179  0.003617  1.940873  0.007  -0.56236  0.004635  2.171773  0.008  -0.585709  0.003183  2.162415  0.006  -0.311568  -0.545681  0.006291  2.177836  0.011
O  O83  1  0.29078472  0.72742290  0.86464337  1  -0.602132  0.003616  1.940779  0.007  -0.56232  0.004635  2.171705  0.008  -0.585666  0.003184  2.162347  0.006  -0.311578  -0.545642  0.006292  2.177766  0.011
