# generated using pymatgen
data_Zn3H13C31Cl3(O6F)2
_symmetry_space_group_name_H-M   'P 1'
_cell_length_a   18.56953254
_cell_length_b   18.74590197
_cell_length_c   18.78301517
_cell_angle_alpha   109.31173238
_cell_angle_beta   109.18898282
_cell_angle_gamma   109.68618992
_symmetry_Int_Tables_number   1
_chemical_formula_structural   Zn3H13C31Cl3(O6F)2
_chemical_formula_sum   'Zn6 H26 C62 Cl6 O24 F4'
_cell_volume   5047.23473318
_cell_formula_units_Z   2
loop_
 _symmetry_equiv_pos_site_id
 _symmetry_equiv_pos_as_xyz
  1  'x, y, z'
loop_
 _atom_site_type_symbol
 _atom_site_label
 _atom_site_symmetry_multiplicity
 _atom_site_fract_x
 _atom_site_fract_y
 _atom_site_fract_z
 _atom_site_occupancy
 _atom_site_pbe_bader_charge
 _atom_site_pbe_bader_spin_density
 _atom_site_pbe_cm5_charge
 _atom_site_pbe_ddec_charge
 _atom_site_pbe_ddec_spin_density
 _atom_site_pbe_ddec_sum_bond_order
 _atom_site_pbe_magmom
Zn  Zn0  1  0.94000207  0.49374313  0.94637712  1  1.31373  0  0.724835  0.955338  0  2.165725  0
Zn  Zn1  1  0.06909185  0.49978792  0.07376865  1  1.311565  0  0.723898  0.958134  0  2.112004  0
Zn  Zn2  1  0.48726515  0.05191604  0.05789241  1  1.318406  0  0.730174  0.973785  0  2.115724  0
Zn  Zn3  1  0.49666009  0.93739917  0.93211946  1  1.309912  0  0.720332  0.960705  0  2.131647  0
Zn  Zn4  1  0.06050808  0.06573741  0.49466388  1  1.313891  0  0.72685  0.963669  0  2.137942  0
Zn  Zn5  1  0.93487130  0.94024602  0.49658008  1  1.307773  0  0.725265  0.960288  0  2.112433  0
H  H6  1  0.26741584  0.76813449  0.15082335  1  0.068498  0  0.113563  0.119934  0  0.977869  0
H  H7  1  0.83705063  0.17809439  0.53505288  1  0.098246  0  0.108723  0.064933  0  0.946571  0
H  H8  1  0.91055162  0.37129486  0.65888566  1  0.077278  0  0.106819  0.132704  0  0.968851  0
H  H9  1  0.81989304  0.28315841  0.64551042  1  0.051471  0  0.104133  0.126288  0  0.973037  0
H  H10  1  0.91473348  0.37293790  0.19110018  1  0.088119  0  0.110853  0.115514  0  0.983705  0
H  H11  1  0.78752653  0.27072880  0.19015182  1  0.107308  0  0.105616  0.114081  0  1.01419  0
H  H12  1  0.62200895  0.10829564  0.84521571  1  0.087564  0  0.109561  0.094921  0  0.950754  0
H  H13  1  0.73807354  0.22647722  0.84470987  1  0.067481  0  0.100621  0.120379  0  0.972869  0
H  H14  1  0.69287023  0.29505622  0.87294429  1  0.084017  0  0.10219  0.125388  0  0.975791  0
H  H15  1  0.13158759  0.75181546  0.24680374  1  0.10974  0  0.110858  0.129888  0  0.990029  0
H  H16  1  0.81971212  0.80001427  0.16259845  1  0.094131  0  0.107747  0.090323  0  0.960428  0
H  H17  1  0.78279985  0.61169347  0.08580706  1  0.096992  0  0.104669  0.1277  0  0.975108  0
H  H18  1  0.80578348  0.67925180  0.03838627  1  0.079759  0  0.105556  0.125718  0  0.96825  0
H  H19  1  0.59228834  0.81874780  0.11082120  1  0.094357  0  0.109837  0.116634  0  0.980849  0
H  H20  1  0.69768245  0.82857783  0.24045458  1  0.117426  0  0.100297  0.104232  0  1.027115  0
H  H21  1  0.86787056  0.17775386  0.38923407  1  0.129574  0  0.099092  0.130292  0  1.011944  0
H  H22  1  0.93184180  0.15500520  0.34137131  1  0.078314  0  0.10145  0.125892  0  0.973513  0
H  H23  1  0.10482281  0.48904696  0.72698673  1  0.151092  0  0.128111  0.175134  0  0.958155  0
H  H24  1  0.82539818  0.13924520  0.20420089  1  0.069586  0  0.10315  0.0544  0  0.959338  0
H  H25  1  0.35175240  0.96158612  0.69730904  1  0.078257  0  0.106987  0.114085  0  0.990407  0
H  H26  1  0.22965272  0.96254895  0.59231915  1  0.099772  0  0.100477  0.105625  0  1.013992  0
H  H27  1  0.11758030  0.04167654  0.82106387  1  0.085713  0  0.091763  0.113908  0  1.012102  0
H  H28  1  0.06175853  0.92522718  0.77308127  1  0.066568  0  0.103113  0.125273  0  0.966742  0
H  H29  1  0.19250141  0.93869883  0.88582454  1  0.098631  0  0.099475  0.081617  0  0.983445  0
H  H30  1  0.35591369  0.89109939  0.13530204  1  0.123265  0  0.11547  0.123275  0  0.977016  0
H  H31  1  0.08918659  0.30955737  0.89746211  1  0.112259  0  0.114557  0.136564  0  0.981513  0
C  C32  1  0.98264342  0.37863629  0.87341663  1  1.535577  0  0.218898  0.605301  0  4.150514  0
C  C33  1  0.20171171  0.65803677  0.93488856  1  0.046635  0  -0.008015  -0.05426  0  3.970268  0
C  C34  1  0.20977401  0.67338988  0.01762578  1  -0.015645  0  -0.0014  -0.026334  0  3.920061  0
C  C35  1  0.26272981  0.75667255  0.08827475  1  0.044561  0  -0.081513  -0.103946  0  3.983966  0
C  C36  1  0.30925246  0.82631101  0.07874038  1  -0.086559  0  -0.072456  -0.072752  0  3.959424  0
C  C37  1  0.29837700  0.81494361  0.99840977  1  0.045061  0  -0.010799  -0.064272  0  3.901196  0
C  C38  1  0.95122397  0.29801848  0.71912167  1  -0.02991  0  0.000564  0.083804  0  3.906224  0
C  C39  1  0.99326979  0.32093375  0.80621557  1  0.083645  0  -0.013947  -0.066086  0  3.97978  0
C  C40  1  0.05236689  0.29078638  0.82955929  1  0.045064  0  -0.077121  -0.143006  0  3.92674  0
C  C41  1  0.06503988  0.23790981  0.76795010  1  0.026915  0  0.020069  0.116698  0  4.023417  0
C  C42  1  0.01980445  0.21169453  0.67910303  1  0.010036  0  -0.000509  -0.071833  0  3.918731  0
C  C43  1  0.14584032  0.60482760  0.02415692  1  1.565482  0  0.220079  0.605586  0  4.165142  0
C  C44  1  0.96430091  0.24502775  0.65824789  1  -0.0113  0  -0.017298  -0.042936  0  3.908577  0
C  C45  1  0.89645356  0.24212179  0.58343488  1  0.496264  0  0.036153  0.195808  0  3.840104  0
C  C46  1  0.88604319  0.30628410  0.65289484  1  -0.021023  0  -0.150684  -0.279463  0  3.867067  0
C  C47  1  0.76223814  0.27834283  0.98119534  1  -0.08863  0  -4.2e-05  0.083468  0  3.896571  0
C  C48  1  0.84471030  0.33475508  0.05589154  1  0.041633  0  -0.012875  -0.07863  0  3.973233  0
C  C49  1  0.85179199  0.32961385  0.13087068  1  0.001362  0  -0.074497  -0.084838  0  3.956191  0
C  C50  1  0.77993063  0.27163896  0.13040400  1  -0.00835  0  -0.080179  -0.108797  0  3.948691  0
C  C51  1  0.69849144  0.21201480  0.05334044  1  -0.042054  0  0.000789  -0.028092  0  3.941139  0
C  C52  1  0.69321777  0.21695677  0.97966302  1  0.014506  0  -0.013974  -0.010293  0  3.917642  0
C  C53  1  0.63502493  0.17446679  0.88274401  1  0.111119  0  -0.03979  0.066087  0  3.814676  0
C  C54  1  0.98747148  0.62430520  0.09456164  1  1.545616  0  0.222237  0.613865  0  4.136155  0
C  C55  1  0.71076912  0.24864416  0.88563587  1  -0.013128  0  -0.149901  -0.246784  0  3.8602  0
C  C56  1  0.92366026  0.71381541  0.15477174  1  -0.041285  0  0.000643  0.074555  0  3.899572  0
C  C57  1  0.99441071  0.70080648  0.16064488  1  0.023421  0  -0.009045  -0.053959  0  3.969205  0
C  C58  1  0.07511358  0.76106521  0.23814954  1  0.021842  0  -0.08205  -0.155079  0  3.944714  0
C  C59  1  0.08422445  0.83132618  0.30484420  1  0.056701  0  0.021632  0.126041  0  4.024522  0
C  C60  1  0.01208863  0.84324905  0.30034567  1  0.047236  0  -0.004529  -0.089056  0  3.918032  0
C  C61  1  0.93246004  0.78126233  0.22380334  1  0.001847  0  -0.009878  0.005728  0  3.894043  0
C  C62  1  0.83548476  0.75324929  0.17689243  1  0.105868  0  -0.035627  0.068391  0  3.796035  0
C  C63  1  0.82589085  0.67687599  0.09909290  1  -0.020924  0  -0.146727  -0.245766  0  3.859861  0
C  C64  1  0.59872587  0.95624137  0.08064038  1  1.561553  0  0.223192  0.616802  0  4.134455  0
C  C65  1  0.91636753  0.39623157  0.05167134  1  1.54727  0  0.222732  0.614497  0  4.136578  0
C  C66  1  0.36489404  0.88941478  0.00059530  1  1.564322  0  0.212923  0.59422  0  4.171346  0
C  C67  1  0.38426603  0.98209992  0.85853784  1  1.547346  0  0.216094  0.59853  0  4.172966  0
C  C68  1  0.62203162  0.14124003  0.04431749  1  1.55317  0  0.227234  0.617848  0  4.132835  0
C  C69  1  0.09254094  0.97458758  0.60447832  1  1.530816  0  0.225409  0.619083  0  4.132207  0
C  C70  1  0.02341530  0.14433426  0.61192017  1  1.613123  0  0.222729  0.622845  0  4.16064  0
C  C71  1  0.85493108  0.97285891  0.37705889  1  1.535922  0  0.218728  0.609274  0  4.144448  0
C  C72  1  0.01781204  0.91285231  0.37371686  1  1.570418  0  0.220288  0.620596  0  4.152696  0
C  C73  1  0.74156720  0.03331780  0.21808047  1  -0.015009  0  -0.017543  -0.050173  0  3.90082  0
C  C74  1  0.66475136  0.95554961  0.15162365  1  0.034289  0  0.001726  -0.017481  0  3.949398  0
C  C75  1  0.65124467  0.88143005  0.16096525  1  -0.050272  0  -0.083437  -0.115973  0  3.964772  0
C  C76  1  0.15711932  0.57260721  0.86331418  1  0.460059  0  0.105563  0.274525  0  4.048428  0
C  C77  1  0.71077206  0.88691947  0.23444024  1  -0.100847  0  -0.078108  -0.085014  0  3.966866  0
C  C78  1  0.78866850  0.96577991  0.30058575  1  0.004246  0  -0.016468  -0.081435  0  3.974828  0
C  C79  1  0.80243537  0.03844127  0.28961995  1  -0.021205  0  0.001499  0.091075  0  3.898132  0
C  C80  1  0.86462212  0.13535003  0.33021336  1  -0.063112  0  -0.154549  -0.28226  0  3.855008  0
C  C81  1  0.79896433  0.12816749  0.24649147  1  0.530116  0  0.033391  0.196785  0  3.848044  0
C  C82  1  0.24231269  0.98458486  0.80741617  1  -0.019184  0  -0.012235  0.001654  0  3.876264  0
C  C83  1  0.30943143  0.97822880  0.79262855  1  -0.011592  0  -0.009646  -0.047744  0  3.956305  0
C  C84  1  0.30113755  0.96725384  0.71191232  1  0.017505  0  -0.07951  -0.094115  0  3.960974  0
C  C85  1  0.23173089  0.96671733  0.65231870  1  -0.061203  0  -0.077659  -0.086675  0  3.95159  0
C  C86  1  0.16298059  0.97050023  0.66695726  1  0.007496  0  -0.007283  -0.058519  0  3.950454  0
C  C87  1  0.13870208  0.55541183  0.78063671  1  0.014783  0  -0.104525  -0.321593  0  4.007798  0
C  C88  1  0.16935671  0.97715465  0.74505988  1  0.020899  0  -0.001808  0.072635  0  3.89265  0
C  C89  1  0.12470281  0.98367256  0.79966179  1  -0.03583  0  -0.152757  -0.2483  0  3.854101  0
C  C90  1  0.20676960  0.99145976  0.87013994  1  0.112697  0  -0.040617  0.069645  0  3.797151  0
C  C91  1  0.16365615  0.62715611  0.76737635  1  0.524258  0  0.097445  0.258741  0  4.094645  0
C  C92  1  0.21113696  0.71284979  0.83446180  1  0.135456  0  -0.002404  -0.040126  0  4.033546  0
C  C93  1  0.23854047  0.73039086  0.92198927  1  0.040733  0  0.00652  0.050209  0  3.930364  0
Cl  Cl94  1  0.53042169  0.16931348  0.84556063  1  -0.258982  0  -0.071171  -0.148467  0  1.311182  0
Cl  Cl95  1  0.18675636  0.90141838  0.39754510  1  -0.19632  0  -0.01228  -0.080092  0  1.449273  0
Cl  Cl96  1  0.77260527  0.71662572  0.22489067  1  -0.246179  0  -0.057759  -0.13766  0  1.345807  0
Cl  Cl97  1  0.26897696  0.09168149  0.97114619  1  -0.248039  0  -0.082681  -0.151682  0  1.303266  0
Cl  Cl98  1  0.22425442  0.79233535  0.80551006  1  -0.172472  0  0.021011  -0.02238  0  1.687088  0
Cl  Cl99  1  0.13833014  0.20282349  0.80212216  1  -0.198428  0  -0.001421  -0.068946  0  1.461031  0
O  O100  1  0.92645400  0.40276907  0.84638655  1  -1.126685  0  -0.315734  -0.526656  0  2.237589  0
O  O101  1  0.57749221  0.91013791  0.00133228  1  -1.124292  0  -0.316966  -0.525712  0  2.196251  0
O  O102  1  0.38876277  0.96727633  0.05564957  1  -1.130076  0  -0.315645  -0.530873  0  2.259665  0
O  O103  1  0.39820992  0.87015268  0.95312376  1  -1.168455  0  -0.31308  -0.574693  0  2.391707  0
O  O104  1  0.40727701  0.02830034  0.93728794  1  -1.165395  0  -0.307785  -0.566167  0  2.381647  0
O  O105  1  0.41840642  0.93671004  0.83202192  1  -1.12737  0  -0.319125  -0.535812  0  2.244401  0
O  O106  1  0.58930923  0.16013571  0.09349957  1  -1.110868  0  -0.306501  -0.512615  0  2.213375  0
O  O107  1  0.59391731  0.06535040  0.98446866  1  -1.172307  0  -0.310818  -0.572932  0  2.318457  0
O  O108  1  0.11728745  0.02545756  0.57596616  1  -1.164695  0  -0.309036  -0.569033  0  2.330079  0
O  O109  1  0.01232171  0.92758051  0.58436112  1  -1.124466  0  -0.312719  -0.519963  0  2.214133  0
O  O110  1  0.07661161  0.16965450  0.58460076  1  -1.115828  0  -0.308022  -0.51525  0  2.21736  0
O  O111  1  0.02987465  0.40147863  0.95208438  1  -1.170766  0  -0.311178  -0.565145  0  2.31276  0
O  O112  1  0.97086416  0.06622376  0.58715772  1  -1.164203  0  -0.305278  -0.563647  0  2.297949  0
O  O113  1  0.93397923  0.03219317  0.41032574  1  -1.181419  0  -0.311946  -0.570101  0  2.3298  0
O  O114  1  0.82980493  0.92007444  0.40494873  1  -1.119796  0  -0.316095  -0.527062  0  2.241911  0
O  O115  1  0.06961699  0.99284009  0.39949200  1  -1.117013  0  -0.313976  -0.526507  0  2.24509  0
O  O116  1  0.96917339  0.88609716  0.40365655  1  -1.154736  0  -0.302487  -0.558932  0  2.32445  0
O  O117  1  0.06578492  0.57734185  0.97373106  1  -1.163771  0  -0.311382  -0.576182  0  2.350429  0
O  O118  1  0.17380201  0.58308853  0.08118021  1  -1.121345  0  -0.314591  -0.522743  0  2.213803  0
O  O119  1  0.92758016  0.58825835  0.01476901  1  -1.128596  0  -0.315841  -0.523958  0  2.207829  0
O  O120  1  0.04097898  0.59928699  0.12185544  1  -1.170839  0  -0.310772  -0.568148  0  2.326748  0
O  O121  1  0.89071469  0.41452470  0.99179657  1  -1.179738  0  -0.311815  -0.573043  0  2.354374  0
O  O122  1  0.99765439  0.42605625  0.10508819  1  -1.128187  0  -0.316213  -0.526656  0  2.207752  0
O  O123  1  0.56973562  0.00590896  0.10655200  1  -1.16033  0  -0.305631  -0.564246  0  2.321227  0
F  F124  1  0.13380041  0.50399923  0.87773475  1  -0.630591  0  -0.081423  -0.12254  0  1.405776  0
F  F125  1  0.76296864  0.18295189  0.26230168  1  -0.637682  0  -0.148141  -0.200578  0  1.252513  0
F  F126  1  0.13868715  0.61030673  0.68466588  1  -0.62098  0  -0.098434  -0.131536  0  1.339835  0
F  F127  1  0.92862369  0.27703822  0.53731129  1  -0.629654  0  -0.146241  -0.20537  0  1.24958  0
