# generated using pymatgen
data_AgH24C22N5O3
_symmetry_space_group_name_H-M   'P 1'
_cell_length_a   7.81596406
_cell_length_b   12.17148739
_cell_length_c   12.31067691
_cell_angle_alpha   80.71512865
_cell_angle_beta   72.12877579
_cell_angle_gamma   71.31637995
_symmetry_Int_Tables_number   1
_chemical_formula_structural   AgH24C22N5O3
_chemical_formula_sum   'Ag2 H48 C44 N10 O6'
_cell_volume   1053.30634782
_cell_formula_units_Z   2
loop_
 _symmetry_equiv_pos_site_id
 _symmetry_equiv_pos_as_xyz
  1  'x, y, z'
loop_
 _atom_site_type_symbol
 _atom_site_label
 _atom_site_symmetry_multiplicity
 _atom_site_fract_x
 _atom_site_fract_y
 _atom_site_fract_z
 _atom_site_occupancy
 _atom_site_hle17_bader_spin_density
 _atom_site_hle17_ddec_charge
 _atom_site_hle17_ddec_spin_density
 _atom_site_hle17_ddec_sum_bond_order
 _atom_site_hle17_magmom
 _atom_site_hse06_10hf_bader_spin_density
 _atom_site_hse06_10hf_ddec_charge
 _atom_site_hse06_10hf_ddec_spin_density
 _atom_site_hse06_10hf_ddec_sum_bond_order
 _atom_site_hse06_10hf_magmom
 _atom_site_hse06_bader_spin_density
 _atom_site_hse06_ddec_charge
 _atom_site_hse06_ddec_spin_density
 _atom_site_hse06_ddec_sum_bond_order
 _atom_site_hse06_magmom
 _atom_site_pbe_bader_charge
 _atom_site_pbe_bader_spin_density
 _atom_site_pbe_cm5_charge
 _atom_site_pbe_ddec_charge
 _atom_site_pbe_ddec_spin_density
 _atom_site_pbe_ddec_sum_bond_order
 _atom_site_pbe_magmom
Ag  Ag0  1  0.66906971  0.24984141  0.74903955  1  0  0.521003  0  1.445442  0  0  0.378184  0  1.884663  0  0  0.404704  0  1.845435  0  0.592169  0  0.497635  0.35965  0  1.911802  0
Ag  Ag1  1  0.33092879  0.75015890  0.25096068  1  0  0.520996  0  1.445431  0  0  0.378158  0  1.884656  0  0  0.404674  0  1.845429  0  0.592169  0  0.497613  0.359621  0  1.911797  0
H  H2  1  0.74407708  0.86159308  0.03080784  1  0  0.144746  0  0.967356  0  0  0.154566  0  1.027129  0  0  0.157596  0  1.027029  0  0.103637  0  0.10642  0.152361  0  1.027445  0
H  H3  1  0.63658889  0.63858039  0.46871461  1  0  0.144247  0  0.969333  0  0  0.153763  0  1.029613  0  0  0.156842  0  1.02942  0  0.101957  0  0.106037  0.151544  0  1.029954  0
H  H4  1  0.25592075  0.13840635  0.96919218  1  0  0.144773  0  0.967345  0  0  0.154571  0  1.02714  0  0  0.1576  0  1.02704  0  0.103539  0  0.106426  0.152366  0  1.027456  0
H  H5  1  0.36341082  0.36142078  0.53128801  1  0  0.144215  0  0.96936  0  0  0.153729  0  1.029653  0  0  0.156809  0  1.029456  0  0.101962  0  0.106011  0.151508  0  1.029996  0
H  H6  1  0.65798054  0.00960280  0.72704024  1  0  0.130293  0  0.953983  0  0  0.148204  0  1.01878  0  0  0.150276  0  1.018145  0  0.084515  0  0.096125  0.146641  0  1.019341  0
H  H7  1  0.39961920  0.48949141  0.77068290  1  0  0.129857  0  0.954281  0  0  0.148244  0  1.018672  0  0  0.150427  0  1.017857  0  0.055821  0  0.096568  0.146567  0  1.019402  0
H  H8  1  0.34201702  0.99039664  0.27295869  1  0  0.130268  0  0.953987  0  0  0.148156  0  1.018801  0  0  0.150227  0  1.018168  0  0.084537  0  0.096109  0.146595  0  1.019359  0
H  H9  1  0.60037702  0.51050976  0.22931780  1  0  0.129862  0  0.954314  0  0  0.148255  0  1.018696  0  0  0.150438  0  1.017881  0  0.055827  0  0.096564  0.146579  0  1.019426  0
H  H10  1  0.63712366  0.88149161  0.81617075  1  0  0.110219  0  0.972098  0  0  0.131473  0  1.032333  0  0  0.132682  0  1.032385  0  0.038585  0  0.08993  0.130574  0  1.032302  0
H  H11  1  0.33813246  0.61770550  0.68152338  1  0  0.109585  0  0.972543  0  0  0.130596  0  1.033113  0  0  0.131816  0  1.033159  0  0.043797  0  0.088906  0.129701  0  1.033068  0
H  H12  1  0.36287565  0.11850696  0.18382961  1  0  0.110223  0  0.972059  0  0  0.131477  0  1.032291  0  0  0.132685  0  1.032342  0  0.038624  0  0.089935  0.130577  0  1.032261  0
H  H13  1  0.66186671  0.38229567  0.31847708  1  0  0.109576  0  0.972558  0  0  0.130587  0  1.033126  0  0  0.131808  0  1.033171  0  0.043798  0  0.088904  0.129692  0  1.033083  0
H  H14  1  0.86222212  0.89429911  0.73714116  1  0  0.115059  0  0.946482  0  0  0.135211  0  1.006818  0  0  0.136272  0  1.007744  0  0.067683  0  0.091243  0.13444  0  1.006171  0
H  H15  1  0.49725795  0.60505276  0.76220223  1  0  0.115181  0  0.945268  0  0  0.1354  0  1.005985  0  0  0.136416  0  1.007012  0  0.038648  0  0.09113  0.134675  0  1.005253  0
H  H16  1  0.13777719  0.10569946  0.26285920  1  0  0.115054  0  0.946436  0  0  0.135202  0  1.006775  0  0  0.136265  0  1.007698  0  0.067676  0  0.091231  0.134431  0  1.006129  0
H  H17  1  0.50273746  0.39494841  0.23779929  1  0  0.115138  0  0.945264  0  0  0.135378  0  1.005962  0  0  0.136394  0  1.006989  0  0.038657  0  0.091138  0.134654  0  1.005229  0
H  H18  1  0.91609848  0.04491188  0.16147148  1  0  0.115222  0  0.980726  0  0  0.132265  0  1.047761  0  0  0.133691  0  1.048672  0  0.081406  0  0.093316  0.131248  0  1.047133  0
H  H19  1  0.11948001  0.45527433  0.34119405  1  0  0.114748  0  0.983138  0  0  0.130944  0  1.051352  0  0  0.13235  0  1.052326  0  0.075241  0  0.092433  0.12994  0  1.050696  0
H  H20  1  0.08389976  0.95508842  0.83852767  1  0  0.115218  0  0.980747  0  0  0.132269  0  1.047766  0  0  0.133694  0  1.048678  0  0.08139  0  0.093312  0.131246  0  1.047143  0
H  H21  1  0.88051877  0.54472597  0.65880727  1  0  0.11474  0  0.983157  0  0  0.130939  0  1.051367  0  0  0.132345  0  1.052341  0  0.075231  0  0.092429  0.129935  0  1.05071  0
H  H22  1  0.75891285  0.95979375  0.21711136  1  0  0.137045  0  0.964339  0  0  0.154544  0  1.0261  0  0  0.156172  0  1.026244  0  0.130701  0  0.099633  0.153275  0  1.026113  0
H  H23  1  0.93333866  0.54049883  0.28347255  1  0  0.137115  0  0.964498  0  0  0.154475  0  1.026259  0  0  0.156108  0  1.026379  0  0.107458  0  0.099183  0.153211  0  1.026278  0
H  H24  1  0.24108849  0.04020394  0.78288745  1  0  0.137054  0  0.96435  0  0  0.154554  0  1.026106  0  0  0.156182  0  1.026249  0  0.130845  0  0.099629  0.153285  0  1.026117  0
H  H25  1  0.06665890  0.45950234  0.71652952  1  0  0.137127  0  0.964474  0  0  0.154492  0  1.026231  0  0  0.156126  0  1.02635  0  0.107464  0  0.099186  0.153228  0  1.026249  0
H  H26  1  0.67157471  0.11402420  0.20759810  1  0  0.107588  0  0.947993  0  0  0.12849  0  1.009648  0  0  0.129941  0  1.009348  0  0.02734  0  0.091978  0.127468  0  1.009826  0
H  H27  1  0.99072283  0.38632024  0.29282981  1  0  0.10702  0  0.948686  0  0  0.128418  0  1.009433  0  0  0.129911  0  1.009063  0  0.037471  0  0.092523  0.127376  0  1.009649  0
H  H28  1  0.32842501  0.88597349  0.79240232  1  0  0.107616  0  0.947998  0  0  0.128505  0  1.009661  0  0  0.129955  0  1.009362  0  0.027307  0  0.09199  0.127482  0  1.009839  0
H  H29  1  0.00927500  0.61368093  0.70717335  1  0  0.107033  0  0.948702  0  0  0.128438  0  1.00944  0  0  0.12993  0  1.009072  0  0.037431  0  0.092525  0.127396  0  1.009656  0
H  H30  1  0.87983619  0.26223332  0.90452178  1  0  0.099406  0  0.971064  0  0  0.106767  0  1.050396  0  0  0.10973  0  1.045912  0  0.152676  0  0.113884  0.104467  0  1.053774  0
H  H31  1  0.04769487  0.23798158  0.59650020  1  0  0.099794  0  0.974475  0  0  0.107146  0  1.053104  0  0  0.110134  0  1.048638  0  0.153284  0  0.113714  0.104822  0  1.056489  0
H  H32  1  0.12016312  0.73776698  0.09547765  1  0  0.099392  0  0.971094  0  0  0.106755  0  1.050403  0  0  0.109718  0  1.045919  0  0.152709  0  0.11388  0.104455  0  1.05378  0
H  H33  1  0.95230309  0.76202046  0.40350100  1  0  0.099775  0  0.974422  0  0  0.107119  0  1.05308  0  0  0.110107  0  1.048615  0  0.153296  0  0.113707  0.104795  0  1.056466  0
H  H34  1  0.83614924  0.23139134  0.05396968  1  0  0.091849  0  0.910657  0  0  0.113671  0  0.964281  0  0  0.11407  0  0.964438  0  0.064334  0  0.118923  0.113291  0  0.964273  0
H  H35  1  0.11932829  0.26874357  0.44710330  1  0  0.09235  0  0.910734  0  0  0.113994  0  0.96455  0  0  0.114355  0  0.964691  0  0.077644  0  0.119864  0.113654  0  0.964518  0
H  H36  1  0.16385088  0.76860722  0.94602987  1  0  0.091849  0  0.910691  0  0  0.113655  0  0.96431  0  0  0.114054  0  0.964467  0  0.064327  0  0.118893  0.113274  0  0.964302  0
H  H37  1  0.88067209  0.73126021  0.55289861  1  0  0.092297  0  0.910705  0  0  0.113962  0  0.964515  0  0  0.114325  0  0.964656  0  0.077786  0  0.119827  0.11362  0  0.964487  0
H  H38  1  0.42492047  0.21916549  0.03211692  1  0  0.08812  0  0.99334  0  0  0.096718  0  1.060382  0  0  0.099279  0  1.059671  0  0.04752  0  0.101514  0.09489  0  1.06096  0
H  H39  1  0.67482571  0.28038952  0.46807217  1  0  0.087725  0  0.994563  0  0  0.097027  0  1.060716  0  0  0.099585  0  1.060024  0  0.062711  0  0.101225  0.095179  0  1.061275  0
H  H40  1  0.57507844  0.78083395  0.96788338  1  0  0.088132  0  0.993353  0  0  0.096728  0  1.0604  0  0  0.099288  0  1.05969  0  0.047529  0  0.101523  0.094899  0  1.060977  0
H  H41  1  0.32517790  0.71961252  0.53192745  1  0  0.08778  0  0.994528  0  0  0.097107  0  1.060656  0  0  0.099667  0  1.059963  0  0.062737  0  0.101226  0.095255  0  1.061212  0
H  H42  1  0.11926638  0.37237728  0.06943158  1  0  0.08253  0  0.941232  0  0  0.09701  0  0.994511  0  0  0.099669  0  0.99338  0  0.026375  0  0.09988  0.095054  0  0.995488  0
H  H43  1  0.55868503  0.12694299  0.43063238  1  0  0.084441  0  0.941879  0  0  0.099444  0  0.994054  0  0  0.102136  0  0.992957  0  0.022285  0  0.101093  0.097462  0  0.995014  0
H  H44  1  0.88073374  0.62762129  0.93056797  1  0  0.082519  0  0.9412  0  0  0.096994  0  0.994493  0  0  0.099656  0  0.993352  0  0.026396  0  0.099871  0.095037  0  0.99547  0
H  H45  1  0.44132019  0.87305906  0.56936563  1  0  0.084425  0  0.941845  0  0  0.099424  0  0.994031  0  0  0.102115  0  0.992935  0  0.02225  0  0.10109  0.097442  0  0.994991  0
H  H46  1  0.89358579  0.42199274  0.94159366  1  0  0.097799  0  0.966971  0  0  0.10694  0  1.033563  0  0  0.110224  0  1.03148  0  0.086431  0  0.102558  0.104564  0  1.035119  0
H  H47  1  0.25881245  0.07853428  0.55846879  1  0  0.097027  0  0.968741  0  0  0.105735  0  1.036143  0  0  0.109016  0  1.034077  0  0.077119  0  0.102285  0.103355  0  1.037674  0
H  H48  1  0.10641473  0.57800495  0.05840595  1  0  0.097754  0  0.966955  0  0  0.106887  0  1.033558  0  0  0.11017  0  1.031477  0  0.086513  0  0.102537  0.104511  0  1.035114  0
H  H49  1  0.74119238  0.92146689  0.44153008  1  0  0.097049  0  0.968698  0  0  0.105783  0  1.036066  0  0  0.109066  0  1.034001  0  0.077191  0  0.102319  0.103402  0  1.037598  0
C  C50  1  0.73261753  0.99645044  0.88312885  1  0  0.264388  0  3.792314  0  0  0.261416  0  4.060232  0  0  0.272595  0  4.078001  0  0.479144  0  0.09372  0.254041  0  4.047948  0
C  C51  1  0.61409179  0.50334135  0.61592916  1  0  0.265221  0  3.791756  0  0  0.262545  0  4.058903  0  0  0.273794  0  4.076552  0  0.458435  0  0.094691  0.255135  0  4.046682  0
C  C52  1  0.26738300  0.00354899  0.11686984  1  0  0.264316  0  3.792366  0  0  0.26137  0  4.060239  0  0  0.272549  0  4.078007  0  0.483279  0  0.093694  0.253981  0  4.047975  0
C  C53  1  0.38590914  0.49665895  0.38407272  1  0  0.2652  0  3.791806  0  0  0.262464  0  4.059006  0  0  0.273712  0  4.076657  0  0.458598  0  0.094696  0.255055  0  4.046785  0
C  C54  1  0.74706711  0.94822692  0.99337936  1  0  -0.335376  0  3.688641  0  0  -0.360522  0  3.947217  0  0  -0.372064  0  3.966227  0  -0.06073  0  -0.124778  -0.352996  0  3.934487  0
C  C55  1  0.68913617  0.55189612  0.50625697  1  0  -0.335898  0  3.68899  0  0  -0.36115  0  3.947043  0  0  -0.372708  0  3.965919  0  -0.020856  0  -0.125284  -0.353615  0  3.934411  0
C  C56  1  0.25293235  0.05177077  0.00661997  1  0  -0.335472  0  3.688735  0  0  -0.36059  0  3.947333  0  0  -0.372132  0  3.966342  0  -0.064644  0  -0.124829  -0.353059  0  3.934608  0
C  C57  1  0.31086260  0.44810418  0.49374436  1  0  -0.335791  0  3.688918  0  0  -0.360996  0  3.946993  0  0  -0.372553  0  3.965872  0  -0.020992  0  -0.125225  -0.353464  0  3.93436  0
C  C58  1  0.76211128  0.03543776  0.04770186  1  0  0.23615  0  3.719378  0  0  0.223923  0  3.988106  0  0  0.235014  0  4.006241  0  0.372427  0  0.102179  0.216699  0  3.97563  0
C  C59  1  0.84451297  0.46475193  0.45251553  1  0  0.236018  0  3.718672  0  0  0.224832  0  3.985966  0  0  0.235937  0  4.00408  0  0.359974  0  0.102462  0.21758  0  3.973548  0
C  C60  1  0.23788817  0.96455994  0.95229748  1  0  0.23629  0  3.719357  0  0  0.224007  0  3.988153  0  0  0.235099  0  4.006286  0  0.372333  0  0.102204  0.216784  0  3.975676  0
C  C61  1  0.15548607  0.53525011  0.54748595  1  0  0.235962  0  3.718615  0  0  0.224686  0  3.986026  0  0  0.235782  0  4.004153  0  0.360043  0  0.102418  0.217438  0  3.973601  0
C  C62  1  0.72133853  0.94268869  0.78591236  1  0  -0.358025  0  3.711952  0  0  -0.434267  0  3.942969  0  0  -0.437604  0  3.949931  0  -0.072055  0  -0.240037  -0.431685  0  3.938036  0
C  C63  1  0.45343282  0.55668578  0.71250279  1  0  -0.356683  0  3.708944  0  0  -0.433559  0  3.940052  0  0  -0.43699  0  3.946953  0  -0.025314  0  -0.239701  -0.430899  0  3.935164  0
C  C64  1  0.27866011  0.05731075  0.21408686  1  0  -0.357955  0  3.711797  0  0  -0.434173  0  3.942831  0  0  -0.437507  0  3.94979  0  -0.072086  0  -0.239985  -0.431586  0  3.937902  0
C  C65  1  0.54656676  0.44331452  0.28749773  1  0  -0.356685  0  3.708978  0  0  -0.433565  0  3.940104  0  0  -0.436996  0  3.947005  0  -0.025452  0  -0.239753  -0.430907  0  3.935216  0
C  C66  1  0.77753376  0.03874244  0.16442780  1  0  -0.363158  0  3.73174  0  0  -0.440819  0  3.971611  0  0  -0.444638  0  3.979802  0  -0.088307  0  -0.238619  -0.437915  0  3.965833  0
C  C67  1  0.97846645  0.46158027  0.33653974  1  0  -0.362492  0  3.732136  0  0  -0.440001  0  3.972061  0  0  -0.443822  0  3.980233  0  -0.0618  0  -0.237502  -0.43711  0  3.966304  0
C  C68  1  0.22246529  0.96125612  0.83557147  1  0  -0.363245  0  3.731788  0  0  -0.440884  0  3.971674  0  0  -0.444704  0  3.979864  0  -0.088429  0  -0.238633  -0.437975  0  3.965901  0
C  C69  1  0.02153192  0.53842091  0.66346153  1  0  -0.362531  0  3.732151  0  0  -0.440012  0  3.972052  0  0  -0.443833  0  3.980227  0  -0.061708  0  -0.237511  -0.437121  0  3.966293  0
C  C70  1  0.77538196  0.24169489  0.98196777  1  0  -0.073399  0  3.694133  0  0  -0.147073  0  3.952906  0  0  -0.143074  0  3.962803  0  0.280219  0  -0.053909  -0.149538  0  3.946233  0
C  C71  1  0.99869497  0.25838177  0.51863113  1  0  -0.074767  0  3.695341  0  0  -0.147612  0  3.953689  0  0  -0.143605  0  3.963447  0  0.273172  0  -0.053923  -0.150081  0  3.947119  0
C  C72  1  0.22461883  0.75830454  0.01803200  1  0  -0.073458  0  3.694321  0  0  -0.147068  0  3.952992  0  0  -0.143069  0  3.962889  0  0.280571  0  -0.053886  -0.14953  0  3.946314  0
C  C73  1  0.00130515  0.74162201  0.48136971  1  0  -0.074613  0  3.695128  0  0  -0.1475  0  3.953544  0  0  -0.143482  0  3.963277  0  0.273074  0  -0.053834  -0.149968  0  3.946974  0
C  C74  1  0.58886576  0.45546473  0.98942767  1  0  0.017692  0  3.760332  0  0  0.030949  0  3.98267  0  0  0.02968  0  4.008599  0  0.043358  0  -0.005664  0.031788  0  3.965169  0
C  C75  1  0.03411133  0.04458150  0.51051887  1  0  0.014811  0  3.762745  0  0  0.028367  0  3.985216  0  0  0.027063  0  4.011186  0  -0.002245  0  -0.006678  0.029225  0  3.9677  0
C  C76  1  0.41113544  0.54453383  0.01057216  1  0  0.017734  0  3.760414  0  0  0.030994  0  3.982744  0  0  0.029726  0  4.008673  0  -0.00385  0  -0.005617  0.031833  0  3.965243  0
C  C77  1  0.96589659  0.95542228  0.48947688  1  0  0.01495  0  3.762707  0  0  0.028485  0  3.98521  0  0  0.02718  0  4.011182  0  -0.045949  0  -0.006627  0.029342  0  3.967693  0
C  C78  1  0.59013005  0.33660740  0.00022637  1  0  0.008836  0  3.753931  0  0  0.027442  0  3.999223  0  0  0.026703  0  4.020989  0  -0.072994  0  -0.017707  0.02787  0  3.98454  0
C  C79  1  0.92659594  0.16333537  0.49985989  1  0  0.0142  0  3.750737  0  0  0.031196  0  3.998017  0  0  0.030533  0  4.01969  0  -0.002852  0  -0.015466  0.031577  0  3.983399  0
C  C80  1  0.40987034  0.66339117  0.99977427  1  0  0.00886  0  3.753905  0  0  0.027441  0  3.999197  0  0  0.026703  0  4.020964  0  -0.072965  0  -0.017723  0.02787  0  3.984514  0
C  C81  1  0.07340955  0.83666841  0.50013828  1  0  0.014129  0  3.750647  0  0  0.031113  0  3.997958  0  0  0.030447  0  4.019639  0  -0.003289  0  -0.015485  0.031495  0  3.983337  0
C  C82  1  0.42242366  0.30950395  0.02846572  1  0  -0.125668  0  3.788155  0  0  -0.154388  0  4.049123  0  0  -0.155599  0  4.06769  0  -0.022939  0  -0.099953  -0.153562  0  4.036655  0
C  C83  1  0.75911490  0.19013018  0.47172869  1  0  -0.131142  0  3.78932  0  0  -0.159868  0  4.050297  0  0  -0.161158  0  4.068838  0  -0.096903  0  -0.103269  -0.158952  0  4.037826  0
C  C84  1  0.57757740  0.69049549  0.97153513  1  0  -0.125715  0  3.788143  0  0  -0.154438  0  4.049124  0  0  -0.15565  0  4.06769  0  -0.022922  0  -0.099961  -0.153611  0  4.036656  0
C  C85  1  0.24089180  0.80987100  0.52826965  1  0  -0.131157  0  3.789156  0  0  -0.159889  0  4.050113  0  0  -0.16118  0  4.068652  0  -0.09658  0  -0.103222  -0.158965  0  4.037638  0
C  C86  1  0.24882732  0.39671943  0.04889877  1  0  -0.037014  0  3.782974  0  0  -0.048701  0  4.035208  0  0  -0.049637  0  4.055598  0  -0.017887  0  -0.087896  -0.048087  0  4.02143  0
C  C87  1  0.69250551  0.10279297  0.45136487  1  0  -0.037616  0  3.782713  0  0  -0.049213  0  4.03404  0  0  -0.050218  0  4.054537  0  -0.021629  0  -0.088265  -0.048556  0  4.02019  0
C  C88  1  0.75117199  0.60327913  0.95110159  1  0  -0.036946  0  3.783044  0  0  -0.048632  0  4.035276  0  0  -0.049566  0  4.055667  0  -0.017943  0  -0.087873  -0.048019  0  4.021498  0
C  C89  1  0.30749770  0.89720820  0.54863561  1  0  -0.037632  0  3.782644  0  0  -0.049226  0  4.033975  0  0  -0.050229  0  4.054472  0  -0.021432  0  -0.088283  -0.048569  0  4.020125  0
C  C90  1  0.75762579  0.48795340  0.95914192  1  0  -0.116172  0  3.723798  0  0  -0.136277  0  3.968527  0  0  -0.139291  0  3.990601  0  -0.05555  0  -0.092551  -0.134211  0  3.953639  0
C  C91  1  0.20615687  0.01244582  0.54063556  1  0  -0.113441  0  3.722369  0  0  -0.133425  0  3.966982  0  0  -0.136408  0  3.989025  0  -0.006003  0  -0.091162  -0.131369  0  3.952117  0
C  C92  1  0.24237446  0.51204603  0.04085568  1  0  -0.116116  0  3.723755  0  0  -0.13621  0  3.968481  0  0  -0.139223  0  3.990555  0  -0.055661  0  -0.092543  -0.134146  0  3.953594  0
C  C93  1  0.79384983  0.98755709  0.45936185  1  0  -0.113481  0  3.722371  0  0  -0.133472  0  3.966973  0  0  -0.136461  0  3.989021  0  -0.006217  0  -0.091168  -0.131414  0  3.952106  0
N  N94  1  0.75920236  0.12907655  0.97035654  1  0  0.004032  0  3.555015  0  0  0.090481  0  3.764073  0  0  0.078111  0  3.793013  0  -0.818571  0  -0.156516  0.098495  0  3.744551  0
N  N95  1  0.85874909  0.37091751  0.52971224  1  0  0.005556  0  3.554422  0  0  0.091518  0  3.762948  0  0  0.079124  0  3.791869  0  -0.831414  0  -0.157551  0.099556  0  3.743445  0
N  N96  1  0.24079669  0.87092201  0.02964274  1  0  0.004003  0  3.55507  0  0  0.090447  0  3.76413  0  0  0.078078  0  3.793068  0  -0.819006  0  -0.156519  0.098459  0  3.744608  0
N  N97  1  0.14125035  0.62908366  0.47028930  1  0  0.005603  0  3.554214  0  0  0.091603  0  3.762724  0  0  0.079209  0  3.791649  0  -0.831416  0  -0.157542  0.099641  0  3.743219  0
N  N98  1  0.73875272  0.10725399  0.87063243  1  0  -0.313055  0  3.169757  0  0  -0.257407  0  3.466272  0  0  -0.273057  0  3.479885  0  -0.714034  0  -0.274922  -0.246751  0  3.456913  0
N  N99  1  0.71829997  0.39251142  0.62867869  1  0  -0.315922  0  3.173372  0  0  -0.260039  0  3.469859  0  0  -0.275759  0  3.483493  0  -0.713455  0  -0.275807  -0.249345  0  3.460492  0
N  N100  1  0.26124592  0.89274544  0.12936679  1  0  -0.312983  0  3.169782  0  0  -0.257344  0  3.466299  0  0  -0.272993  0  3.479911  0  -0.714017  0  -0.274874  -0.246682  0  3.456943  0
N  N101  1  0.28169987  0.60748889  0.37132291  1  0  -0.315921  0  3.173371  0  0  -0.259989  0  3.469826  0  0  -0.275709  0  3.483461  0  -0.713437  0  -0.275752  -0.249294  0  3.460456  0
N  N102  1  0.26796191  0.25008919  0.75008229  1  0  0.682373  0  4.160761  0  0  0.713323  0  4.453017  0  0  0.739997  0  4.459235  0  0.795586  0  0.086545  0.694232  0  4.448436  0
N  N103  1  0.73203808  0.74991024  0.24991828  1  0  0.682322  0  4.160693  0  0  0.713252  0  4.452981  0  0  0.739928  0  4.459198  0  0.795611  0  0.086497  0.694162  0  4.448399  0
O  O104  1  0.41214814  0.19416344  0.67740464  1  0  -0.493157  0  1.774434  0  0  -0.47603  0  2.006862  0  0  -0.491865  0  1.999753  0  -0.56022  0  -0.205151  -0.464169  0  2.011414  0
O  O105  1  0.28662674  0.30675917  0.82185139  1  0  -0.491629  0  1.777326  0  0  -0.475049  0  2.009941  0  0  -0.49092  0  2.003113  0  -0.554014  0  -0.203584  -0.463164  0  2.014328  0
O  O106  1  0.58785158  0.80583600  0.32259485  1  0  -0.493147  0  1.774431  0  0  -0.476024  0  2.006876  0  0  -0.491859  0  1.999767  0  -0.560216  0  -0.205152  -0.464162  0  2.011428  0
O  O107  1  0.71337285  0.69323939  0.17815005  1  0  -0.491621  0  1.777281  0  0  -0.475002  0  2.009882  0  0  -0.490876  0  2.003054  0  -0.554057  0  -0.203547  -0.463119  0  2.014269  0
O  O108  1  0.10577961  0.24933888  0.75093702  1  0  -0.474713  0  1.787865  0  0  -0.459909  0  2.014474  0  0  -0.473624  0  2.006021  0  -0.553901  0  -0.191774  -0.449687  0  2.02016  0
O  O109  1  0.89421930  0.75066056  0.24906328  1  0  -0.474683  0  1.787854  0  0  -0.459886  0  2.014463  0  0  -0.473599  0  2.006009  0  -0.553877  0  -0.191767  -0.449665  0  2.02015  0
