# generated using pymatgen
data_CuH22C20N4O9
_symmetry_space_group_name_H-M   'P 1'
_cell_length_a   6.11415135
_cell_length_b   6.78605492
_cell_length_c   24.73188553
_cell_angle_alpha   90.00097616
_cell_angle_beta   89.99983413
_cell_angle_gamma   89.99913959
_symmetry_Int_Tables_number   1
_chemical_formula_structural   CuH22C20N4O9
_chemical_formula_sum   'Cu2 H44 C40 N8 O18'
_cell_volume   1026.14984345
_cell_formula_units_Z   2
loop_
 _symmetry_equiv_pos_site_id
 _symmetry_equiv_pos_as_xyz
  1  'x, y, z'
loop_
 _atom_site_type_symbol
 _atom_site_label
 _atom_site_symmetry_multiplicity
 _atom_site_fract_x
 _atom_site_fract_y
 _atom_site_fract_z
 _atom_site_occupancy
 _atom_site_pbe_bader_charge
 _atom_site_pbe_bader_spin_density
 _atom_site_pbe_cm5_charge
 _atom_site_pbe_ddec_charge
 _atom_site_pbe_ddec_spin_density
 _atom_site_pbe_ddec_sum_bond_order
 _atom_site_pbe_magmom
Cu  Cu0  1  0.20818695  0.24999767  0.74999957  1  1.10009  -0.543229  0.724476  0.770135  -0.701965  2.115097  -0.543
Cu  Cu1  1  0.79184312  0.74999771  0.25000116  1  1.099993  -0.54338  0.724473  0.7697  -0.702174  2.115696  -0.544
H  H2  1  0.49647205  0.92467635  0.70230721  1  0.08978  -0.001895  0.108441  0.09886  -0.000865  0.995512  -0.001
H  H3  1  0.50356255  0.42468254  0.20230857  1  0.089503  -0.00189  0.108444  0.098871  -0.000862  0.995894  -0.001
H  H4  1  0.49648428  0.92468225  0.79769177  1  0.089632  -0.001894  0.108454  0.098891  -0.000865  0.995375  -0.001
H  H5  1  0.49647328  0.57530694  0.70231003  1  0.089729  -0.001894  0.108443  0.098838  -0.000865  0.995467  -0.001
H  H6  1  0.50357274  0.07532051  0.29769919  1  0.089576  -0.00189  0.108353  0.098807  -0.000863  0.995923  -0.001
H  H7  1  0.49647406  0.57530547  0.79769418  1  0.089702  -0.001894  0.108428  0.098842  -0.000865  0.995471  -0.001
H  H8  1  0.50355397  0.07531608  0.20230897  1  0.089685  -0.001889  0.108421  0.098849  -0.000862  0.995846  -0.001
H  H9  1  0.50356660  0.42468550  0.29769637  1  0.0895  -0.001889  0.108409  0.098851  -0.000862  0.995962  -0.001
H  H10  1  0.24838238  0.92050513  0.66561978  1  0.091216  -0.001591  0.105993  0.09752  -0.000664  1.013226  -0.001
H  H11  1  0.75162841  0.42049612  0.16562713  1  0.091378  -0.001586  0.106006  0.097537  -0.000662  1.013334  -0.001
H  H12  1  0.24841031  0.92051772  0.83438371  1  0.091526  -0.00159  0.10598  0.097524  -0.000664  1.013185  -0.001
H  H13  1  0.24838518  0.57948372  0.66561898  1  0.091402  -0.001591  0.105955  0.097487  -0.000664  1.013206  -0.001
H  H14  1  0.75164606  0.07949763  0.33437287  1  0.091235  -0.001586  0.10603  0.097621  -0.000662  1.013311  -0.001
H  H15  1  0.24839021  0.57949779  0.83438452  1  0.091216  -0.00159  0.105966  0.097479  -0.000664  1.013243  -0.001
H  H16  1  0.75161649  0.07948650  0.16562754  1  0.091458  -0.001585  0.106024  0.097584  -0.000661  1.013447  -0.001
H  H17  1  0.75163344  0.42051019  0.33437366  1  0.091309  -0.001587  0.105993  0.097547  -0.000662  1.013336  -0.001
H  H18  1  0.40958831  0.25002542  0.59621628  1  0.150014  -0.0001  0.113418  0.127709  -8.4e-05  1.004059  0.0
H  H19  1  0.59036928  0.74999286  0.09621672  1  0.150205  -0.000101  0.113497  0.127834  -8.4e-05  1.004121  0.0
H  H20  1  0.40961500  0.24994800  0.90378320  1  0.149869  -0.0001  0.113496  0.127819  -8.4e-05  1.004156  0.0
H  H21  1  0.59036326  0.74998912  0.40377961  1  0.15012  -0.000101  0.113488  0.127786  -8.4e-05  1.004043  0.0
H  H22  1  0.73013029  0.24991733  0.55536653  1  0.105997  -2.1e-05  0.10487  0.10482  1.9e-05  1.046601  0.0
H  H23  1  0.26984928  0.74998642  0.05537476  1  0.105569  -2.1e-05  0.104894  0.104893  2e-05  1.04667  0.0
H  H24  1  0.73015626  0.25006643  0.94462638  1  0.105862  -2.1e-05  0.104891  0.104837  2e-05  1.046667  0.0
H  H25  1  0.26983926  0.75004858  0.44462612  1  0.105638  -2.1e-05  0.104919  0.105076  1.9e-05  1.046497  0.0
H  H26  1  0.90360942  0.92206562  0.71397588  1  0.088175  -0.00176  0.1056  0.089091  -0.000709  1.018919  -0.001
H  H27  1  0.09642338  0.42203615  0.21397414  1  0.08821  -0.001754  0.105557  0.089017  -0.000706  1.019208  -0.001
H  H28  1  0.90362840  0.92206196  0.78603427  1  0.087943  -0.00176  0.105534  0.08899  -0.000708  1.01902  -0.001
H  H29  1  0.90361551  0.57795258  0.71397386  1  0.088128  -0.00176  0.105602  0.089068  -0.000708  1.018836  -0.001
H  H30  1  0.09642392  0.07793565  0.28602284  1  0.088193  -0.001755  0.105553  0.089025  -0.000706  1.019204  -0.001
H  H31  1  0.90362141  0.57795481  0.78603104  1  0.087964  -0.00176  0.10558  0.089049  -0.000708  1.018949  -0.001
H  H32  1  0.09641639  0.07793637  0.21397091  1  0.087979  -0.001755  0.105504  0.088959  -0.000705  1.019243  -0.001
H  H33  1  0.09642110  0.42203838  0.28602445  1  0.088326  -0.001754  0.105554  0.089021  -0.000706  1.019125  -0.001
H  H34  1  0.82457439  0.24994894  0.45504460  1  0.113446  -0.000183  0.112257  0.118563  -9.5e-05  1.021549  0.0
H  H35  1  0.17543239  0.75001199  0.95504335  1  0.113425  -0.000183  0.112279  0.118639  -9.5e-05  1.02132  0.0
H  H36  1  0.82457314  0.25005855  0.04494890  1  0.11303  -0.000183  0.112269  0.118599  -9.5e-05  1.021574  0.0
H  H37  1  0.17540989  0.75004350  0.54495735  1  0.113528  -0.000183  0.112258  0.118634  -9.5e-05  1.021402  0.0
H  H38  1  0.50476512  0.25004378  0.49636055  1  0.098253  -1.1e-05  0.107713  0.107814  -7e-06  1.061146  0.0
H  H39  1  0.49521148  0.74999781  0.99635717  1  0.098263  -1e-05  0.107696  0.107711  -7e-06  1.061043  0.0
H  H40  1  0.50476625  0.24992536  0.00363912  1  0.098267  -1e-05  0.10763  0.10774  -7e-06  1.061182  0.0
H  H41  1  0.49520934  0.74996782  0.50364463  1  0.098134  -1.1e-05  0.10768  0.107719  -7e-06  1.061087  0.0
H  H42  1  0.67850598  0.24999933  0.71728788  1  0.644169  -7.6e-05  0.280747  0.374411  -1.5e-05  0.974016  0.0
H  H43  1  0.32148051  0.74999698  0.21729367  1  0.64468  -7.6e-05  0.280711  0.374195  -1.5e-05  0.974314  0.0
H  H44  1  0.67851358  0.25000430  0.78270909  1  0.64432  -7.6e-05  0.280731  0.374313  -1.5e-05  0.974145  0.0
H  H45  1  0.32148483  0.75000490  0.28270963  1  0.644628  -7.6e-05  0.28066  0.3741  -1.5e-05  0.974457  0.0
C  C46  1  0.33057872  0.86408409  0.70158414  1  0.154207  -0.011495  -0.077822  -0.093651  -0.008146  3.820216  -0.007
C  C47  1  0.66941109  0.36407916  0.20157858  1  0.154106  -0.011478  -0.077974  -0.093779  -0.008135  3.820465  -0.007
C  C48  1  0.33059421  0.86409593  0.79841663  1  0.294964  -0.010399  -0.077817  -0.093688  -0.008145  3.81997  -0.007
C  C49  1  0.33058386  0.63590438  0.70158361  1  0.294996  -0.0104  -0.077772  -0.093579  -0.008146  3.820122  -0.007
C  C50  1  0.66941700  0.13592309  0.29842468  1  0.154122  -0.011479  -0.077896  -0.093748  -0.008137  3.820466  -0.007
C  C51  1  0.33058463  0.63591033  0.79841650  1  0.154236  -0.011495  -0.077832  -0.093658  -0.008145  3.820183  -0.007
C  C52  1  0.66939988  0.13591272  0.20157683  1  0.294739  -0.010386  -0.078039  -0.093921  -0.008137  3.820468  -0.007
C  C53  1  0.66941022  0.36408363  0.29842522  1  0.295097  -0.010385  -0.077913  -0.093758  -0.008137  3.820552  -0.007
C  C54  1  0.06280769  0.25002585  0.58073187  1  -0.013004  -0.007264  -0.004477  -0.005346  -0.004978  3.908061  -0.005
C  C55  1  0.93716489  0.74999736  0.08074352  1  -0.013403  -0.007275  -0.004544  -0.005079  -0.004985  3.90784  -0.005
C  C56  1  0.06282430  0.24998181  0.91926490  1  -0.013011  -0.007272  -0.004644  -0.005347  -0.004983  3.907933  -0.005
C  C57  1  0.93715532  0.74995627  0.41925714  1  -0.013592  -0.00727  -0.004637  -0.005462  -0.004982  3.908512  -0.005
C  C58  1  0.28332413  0.25002827  0.56504278  1  0.00799  0.000496  -0.072934  -0.071787  0.000663  3.907675  0.0
C  C59  1  0.71665691  0.75001313  0.06504601  1  0.007938  0.000497  -0.072861  -0.072012  0.000665  3.907491  0.0
C  C60  1  0.28332573  0.24998078  0.93495068  1  0.00783  0.000497  -0.072902  -0.07194  0.000665  3.907973  0.0
C  C61  1  0.71664870  0.74998480  0.43495472  1  0.007891  0.000496  -0.072837  -0.071775  0.000664  3.907486  0.0
C  C62  1  0.00155909  0.25000748  0.64008886  1  1.597481  -0.001008  0.208517  0.55792  -0.001431  4.239962  -0.001
C  C63  1  0.99838299  0.75000910  0.14009321  1  1.597197  -0.001006  0.208069  0.557072  -0.001431  4.240629  -0.001
C  C64  1  0.00155876  0.25000987  0.85990631  1  1.597476  -0.001007  0.208624  0.557946  -0.001431  4.239877  -0.001
C  C65  1  0.99840065  0.75000706  0.35991349  1  1.597152  -0.001008  0.208459  0.557928  -0.001433  4.240085  -0.001
C  C66  1  0.89854300  0.25000268  0.54129883  1  0.03274  -0.00059  -0.085254  -0.09929  -0.000271  3.967089  -0.001
C  C67  1  0.10146299  0.75000925  0.04130793  1  0.033468  -0.00059  -0.085189  -0.099375  -0.000272  3.966455  -0.001
C  C68  1  0.89853600  0.25001266  0.95869564  1  0.032788  -0.00059  -0.085212  -0.099218  -0.000272  3.967108  -0.001
C  C69  1  0.10143800  0.75001481  0.45869422  1  0.033659  -0.000591  -0.085159  -0.099472  -0.000272  3.966645  -0.001
C  C70  1  0.98625227  0.86444801  0.75000331  1  0.275893  -0.00701  -0.075423  -0.095284  -0.005023  3.808895  -0.004
C  C71  1  0.01380700  0.36442557  0.24999837  1  0.134752  -0.007913  -0.075518  -0.095288  -0.005012  3.808995  -0.004
C  C72  1  0.98625251  0.63556540  0.75000318  1  0.135583  -0.007928  -0.075454  -0.09528  -0.005023  3.8088  -0.004
C  C73  1  0.01380070  0.13555474  0.24999702  1  0.275418  -0.006995  -0.075589  -0.095498  -0.005012  3.809244  -0.004
C  C74  1  0.94940582  0.24999326  0.48645909  1  -0.018147  -0.000741  -0.077924  -0.119787  -0.000469  3.973675  -0.001
C  C75  1  0.05056605  0.75000056  0.98646515  1  -0.019875  -0.000742  -0.077939  -0.119787  -0.000469  3.97321  -0.001
C  C76  1  0.94939696  0.25000514  0.01353194  1  -0.017978  -0.000741  -0.078003  -0.119863  -0.000469  3.973639  -0.001
C  C77  1  0.05055719  0.75001096  0.51353963  1  -0.019839  -0.000742  -0.077927  -0.119814  -0.00047  3.973087  -0.001
C  C78  1  0.16983742  0.25004385  0.47200258  1  0.158468  0.00051  0.074482  0.059879  0.000644  3.966905  0.0
C  C79  1  0.83014289  0.75001392  0.97198857  1  0.160501  0.00051  0.074414  0.059644  0.000645  3.967217  0.0
C  C80  1  0.16985610  0.24999768  0.02799438  1  0.158979  0.000511  0.074543  0.059761  0.000645  3.96712  0.0
C  C81  1  0.83012559  0.74998248  0.52800503  1  0.160276  0.00051  0.074397  0.059802  0.000645  3.967106  0.0
C  C82  1  0.33671551  0.25002916  0.51042421  1  -0.091068  -4.7e-05  -0.082676  -0.128934  6e-06  3.978614  0.0
C  C83  1  0.66330249  0.75001770  0.01041775  1  -0.090728  -4.7e-05  -0.082786  -0.128865  6e-06  3.978477  0.0
C  C84  1  0.33671286  0.24996885  0.98957287  1  -0.090927  -4.7e-05  -0.082619  -0.128785  6e-06  3.978762  0.0
C  C85  1  0.66328349  0.74996475  0.48958300  1  -0.090899  -4.7e-05  -0.082768  -0.128992  6e-06  3.978958  0.0
N  N86  1  0.21417558  0.93972827  0.75000038  1  -0.98346  -0.115233  -0.343131  -0.09079  -0.076794  3.48855  -0.1
N  N87  1  0.78583502  0.43976301  0.25000125  1  -0.982646  -0.115175  -0.342685  -0.090307  -0.076759  3.486761  -0.1
N  N88  1  0.21417542  0.56027069  0.75000111  1  -0.982455  -0.115217  -0.343094  -0.090744  -0.076792  3.48856  -0.1
N  N89  1  0.78583323  0.06022880  0.25000116  1  -0.981661  -0.115179  -0.342627  -0.090225  -0.07677  3.486482  -0.1
N  N90  1  0.23125610  0.25001808  0.41468587  1  0.341205  2.3e-05  0.060148  0.511519  2.3e-05  4.191064  0.0
N  N91  1  0.76875304  0.75000961  0.91467916  1  0.340181  2.4e-05  0.059866  0.511407  2.3e-05  4.191483  0.0
N  N92  1  0.23123778  0.24999019  0.08531187  1  0.34032  2.4e-05  0.059827  0.511212  2.3e-05  4.191493  0.0
N  N93  1  0.76872163  0.74998026  0.58532416  1  0.34104  2.3e-05  0.060056  0.511547  2.3e-05  4.190862  0.0
O  O94  1  0.16893118  0.24998814  0.67142894  1  -1.143116  -0.062866  -0.323846  -0.5445  -0.040669  2.474028  -0.057
O  O95  1  0.83101361  0.74998911  0.17143375  1  -1.143704  -0.062948  -0.323611  -0.544102  -0.040722  2.47407  -0.057
O  O96  1  0.16895104  0.25001511  0.82856577  1  -1.143387  -0.062922  -0.323922  -0.54458  -0.040704  2.473747  -0.057
O  O97  1  0.83104819  0.75001019  0.32856856  1  -1.143452  -0.062933  -0.323957  -0.54466  -0.040713  2.474046  -0.057
O  O98  1  0.58438961  0.25000541  0.74999749  1  -1.305443  -0.003548  -0.599983  -0.79656  -0.00233  2.106042  -0.004
O  O99  1  0.41556032  0.75000324  0.25000203  1  -1.306129  -0.003542  -0.599875  -0.79614  -0.002325  2.106469  -0.004
O  O100  1  0.80310930  0.24997880  0.65318437  1  -1.170722  0.000354  -0.314163  -0.543622  0.001308  2.174005  0.001
O  O101  1  0.19685054  0.74999143  0.15317039  1  -1.169985  0.000353  -0.313947  -0.543059  0.001308  2.173826  0.001
O  O102  1  0.80313537  0.24999953  0.84681862  1  -1.170547  0.000355  -0.314096  -0.543448  0.001309  2.174575  0.001
O  O103  1  0.19686353  0.75002100  0.34682849  1  -1.170145  0.000354  -0.314022  -0.54334  0.001308  2.173824  0.001
O  O104  1  0.42912504  0.25002226  0.40322452  1  -0.453306  8.3e-05  -0.114284  -0.311876  0.000131  1.949043  0.0
O  O105  1  0.57090557  0.75000767  0.90322798  1  -0.452935  8.3e-05  -0.114013  -0.311605  0.000131  1.949097  0.0
O  O106  1  0.42911142  0.24999066  0.09677437  1  -0.453031  8.4e-05  -0.114162  -0.311657  0.000131  1.948955  0.0
O  O107  1  0.57087396  0.74999081  0.59677783  1  -0.452602  8.2e-05  -0.114147  -0.311686  0.00013  1.94921  0.0
O  O108  1  0.08229542  0.24999446  0.38051907  1  -0.467991  -6.2e-05  -0.114709  -0.321821  6e-06  1.990122  0.0
O  O109  1  0.91776503  0.75002080  0.88052161  1  -0.467828  -6.2e-05  -0.114581  -0.32177  6e-06  1.990128  0.0
O  O110  1  0.08227159  0.25000406  0.11947670  1  -0.467255  -6.2e-05  -0.114516  -0.321639  6e-06  1.990265  0.0
O  O111  1  0.91774773  0.75000092  0.61947681  1  -0.468688  -6.3e-05  -0.114572  -0.32182  5e-06  1.990021  0.0
