# generated using pymatgen
data_ZnH21C20NO4
_symmetry_space_group_name_H-M   'P 1'
_cell_length_a   9.72489868
_cell_length_b   10.96405783
_cell_length_c   17.44159123
_cell_angle_alpha   93.49544240
_cell_angle_beta   92.81073135
_cell_angle_gamma   90.66122770
_symmetry_Int_Tables_number   1
_chemical_formula_structural   ZnH21C20NO4
_chemical_formula_sum   'Zn2 H42 C40 N2 O8'
_cell_volume   1853.80863177
_cell_formula_units_Z   2
loop_
 _symmetry_equiv_pos_site_id
 _symmetry_equiv_pos_as_xyz
  1  'x, y, z'
loop_
 _atom_site_type_symbol
 _atom_site_label
 _atom_site_symmetry_multiplicity
 _atom_site_fract_x
 _atom_site_fract_y
 _atom_site_fract_z
 _atom_site_occupancy
 _atom_site_pbe_bader_charge
 _atom_site_pbe_bader_spin_density
 _atom_site_pbe_cm5_charge
 _atom_site_pbe_ddec_charge
 _atom_site_pbe_ddec_spin_density
 _atom_site_pbe_ddec_sum_bond_order
 _atom_site_pbe_magmom
Zn  Zn0  1  0.35845389  0.50225298  0.50884927  1  1.284481  0  0.67339  0.824576  0  2.395042  0
Zn  Zn1  1  0.64591815  0.49902815  0.49715049  1  1.289718  0  0.670744  0.821553  0  2.4036  0
H  H2  1  0.67037948  0.59735300  0.27153925  1  0.078995  0  0.105016  0.109855  0  0.994411  0
H  H3  1  0.37110853  0.40856290  0.75314059  1  0.075315  0  0.106099  0.106424  0  1.005743  0
H  H4  1  0.72163487  0.64673741  0.74243735  1  0.05678  0  0.101801  0.098987  0  1.036097  0
H  H5  1  0.23742509  0.51341204  0.25601165  1  0.095755  0  0.10162  0.104324  0  1.000926  0
H  H6  1  0.64871591  0.63411199  0.00923536  1  0.060152  0  0.09961  0.096896  0  1.00636  0
H  H7  1  0.34519962  0.54961817  0.00065735  1  0.066502  0  0.098249  0.092785  0  1.010682  0
H  H8  1  0.23260500  0.53654752  0.11448761  1  0.053849  0  0.098443  0.0962  0  1.001119  0
H  H9  1  0.72378756  0.69028652  0.88433424  1  0.0609  0  0.09863  0.096464  0  1.001847  0
H  H10  1  0.37438702  0.44683517  0.89452496  1  0.060841  0  0.100111  0.09875  0  1.007688  0
H  H11  1  0.66635507  0.62793979  0.13184935  1  0.058028  0  0.099976  0.098387  0  1.007104  0
H  H12  1  0.70717875  0.13702655  0.52938112  1  0.077222  0  0.099463  0.101378  0  1.048077  0
H  H13  1  0.29732555  0.86981179  0.51644257  1  0.087595  0  0.100737  0.108407  0  1.016874  0
H  H14  1  0.82152417  0.03961810  0.69578322  1  0.021081  0  0.082628  0.108588  0  1.013253  0
H  H15  1  0.64862886  0.98535712  0.68880548  1  0.009845  0  0.084831  0.115216  0  1.008339  0
H  H16  1  0.76995719  0.92048554  0.75328087  1  0.037289  0  0.081332  0.105882  0  1.011405  0
H  H17  1  0.72759639  0.77961592  0.63576195  1  0.011747  0  0.086296  0.078681  0  1.012453  0
H  H18  1  0.89986497  0.83284642  0.64391929  1  0.015256  0  0.079945  0.059661  0  1.020567  0
H  H19  1  0.80734961  0.83243279  0.50987121  1  0.051972  0  0.090155  0.09718  0  1.014888  0
H  H20  1  0.85246822  0.98310644  0.54653200  1  0.012199  0  0.085828  0.07792  0  1.016358  0
H  H21  1  0.98252346  0.13579680  0.60625925  1  0.02551  0  0.08051  0.102387  0  1.038328  0
H  H22  1  0.04909791  0.25189771  0.67370818  1  0.016011  0  0.085329  0.112701  0  1.002  0
H  H23  1  0.03211765  0.27948138  0.57454193  1  0.000688  0  0.077085  0.100915  0  1.041728  0
H  H24  1  0.23108834  0.09623957  0.64699879  1  0.004468  0  0.083433  0.069648  0  0.979024  0
H  H25  1  0.27987500  0.23967805  0.61535251  1  0.051417  0  0.087643  0.08481  0  1.001856  0
H  H26  1  0.20202653  0.17215107  0.48080871  1  0.032358  0  0.087908  0.089706  0  1.034925  0
H  H27  1  0.15046554  0.02779883  0.51196909  1  0.014541  0  0.087109  0.082938  0  0.988416  0
H  H28  1  0.85936520  0.62168948  0.58569473  1  0.146301  0  0.131366  0.116381  0  1.016043  0
H  H29  1  0.14499597  0.38253045  0.41516773  1  0.128766  0  0.134081  0.120835  0  0.976872  0
H  H30  1  0.96426383  0.65702751  0.75035106  1  0.006839  0  0.083119  0.108218  0  1.013311  0
H  H31  1  0.93951769  0.51147193  0.70110140  1  0.032639  0  0.084185  0.112228  0  1.025394  0
H  H32  1  0.03064593  0.52466078  0.79159010  1  0.041339  0  0.086683  0.114897  0  1.00149  0
H  H33  1  0.20022000  0.49931801  0.68743056  1  0.073863  0  0.089666  0.084718  0  1.013112  0
H  H34  1  0.22146850  0.64161224  0.73816617  1  0.026545  0  0.093767  0.089819  0  0.967076  0
H  H35  1  0.23979988  0.67935721  0.60623672  1  0.117593  0  0.105674  0.128347  0  1.023378  0
H  H36  1  0.07710190  0.73600849  0.63171913  1  0.03759  0  0.097425  0.101183  0  0.998026  0
H  H37  1  0.68855104  0.13856713  0.34962898  1  0.054311  0  0.090082  0.122943  0  0.994794  0
H  H38  1  0.82609242  0.12809043  0.28607318  1  0.008667  0  0.084469  0.10782  0  1.003292  0
H  H39  1  0.81393664  0.02373028  0.35963824  1  0.047231  0  0.089243  0.118924  0  0.997415  0
H  H40  1  0.99476195  0.18199582  0.39997336  1  0.016068  0  0.087809  0.072536  0  0.99483  0
H  H41  1  0.85525357  0.19476397  0.46059506  1  0.049719  0  0.088685  0.076882  0  1.018928  0
H  H42  1  0.75720018  0.36216850  0.37748563  1  0.106236  0  0.105365  0.126909  0  1.011957  0
H  H43  1  0.91148742  0.35604488  0.32791984  1  0.041953  0  0.102313  0.108282  0  0.961039  0
C  C44  1  0.48872600  0.26467192  0.50306229  1  1.569629  0  0.218455  0.598581  0  4.144444  0
C  C45  1  0.52090806  0.73910335  0.51754381  1  1.497248  0  0.218312  0.598908  0  4.149116  0
C  C46  1  0.61753891  0.07616419  0.52529337  1  -0.032259  0  -0.086473  -0.151314  0  3.969201  0
C  C47  1  0.38740658  0.93030711  0.51866421  1  -0.061832  0  -0.090615  -0.160228  0  3.964001  0
C  C48  1  0.63657426  0.95128960  0.53108445  1  -0.021774  0  -0.001896  0.112088  0  3.924748  0
C  C49  1  0.36831034  0.05632369  0.51668248  1  -0.0135  0  0.000203  0.112552  0  3.926979  0
C  C50  1  0.51710319  0.87602463  0.52319561  1  0.054199  0  -0.01344  -0.073547  0  3.925029  0
C  C51  1  0.48843917  0.13017694  0.51520404  1  -0.047269  0  -0.015842  -0.083484  0  3.921053  0
C  C52  1  0.92468317  0.56744206  0.54829208  1  0.474864  0  0.065609  0.011357  0  3.846588  0
C  C53  1  0.07938736  0.43438345  0.45379265  1  0.546324  0  0.06756  0.010538  0  3.856513  0
C  C54  1  0.06811004  0.57426433  0.55861618  1  0.513388  0  0.14049  0.236669  0  3.902678  0
C  C55  1  0.93565649  0.42591117  0.44430843  1  0.464193  0  0.140955  0.229459  0  3.915321  0
C  C56  1  0.46354054  0.52362849  0.35511042  1  1.566414  0  0.213654  0.593455  0  4.172348  0
C  C57  1  0.53670111  0.50729719  0.65289443  1  1.535957  0  0.213934  0.588542  0  4.16865  0
C  C58  1  0.45523568  0.55004674  0.27196837  1  0.003261  0  -0.017813  -0.029497  0  3.962478  0
C  C59  1  0.54415969  0.52740347  0.73859441  1  0.099212  0  -0.019246  -0.033716  0  3.96365  0
C  C60  1  0.57489366  0.58503402  0.23637523  1  0.009498  0  -0.08494  -0.089736  0  3.993949  0
C  C61  1  0.44674266  0.47153630  0.78234940  1  -0.076485  0  -0.083482  -0.092001  0  4.010376  0
C  C62  1  0.57182014  0.60173501  0.15818420  1  -0.073259  0  -0.090633  -0.131954  0  3.972641  0
C  C63  1  0.44822388  0.49431206  0.86142606  1  -0.009929  0  -0.092016  -0.135051  0  3.97393  0
C  C64  1  0.44943332  0.58054060  0.11212221  1  -0.004277  0  -0.011422  0.113252  0  4.049398  0
C  C65  1  0.54634921  0.57523946  0.89992600  1  -0.035115  0  -0.011031  0.112703  0  4.050288  0
C  C66  1  0.32866673  0.55120902  0.14914472  1  -0.052045  0  -0.09342  -0.139878  0  3.983533  0
C  C67  1  0.64579531  0.62854955  0.85564744  1  -0.041004  0  -0.092696  -0.139205  0  3.978468  0
C  C68  1  0.33091974  0.53733613  0.22796115  1  -0.114892  0  -0.086991  -0.092796  0  4.001909  0
C  C69  1  0.64492858  0.60481992  0.77634081  1  -0.091188  0  -0.085682  -0.09051  0  3.990809  0
C  C70  1  0.44475929  0.57777768  0.02853025  1  -0.049362  0  -0.091856  -0.131209  0  4.005443  0
C  C71  1  0.55040033  0.59902138  0.98310152  1  -0.067792  0  -0.091936  -0.133388  0  3.999933  0
C  C72  1  0.77937428  0.90667848  0.55097330  1  0.003594  0  -0.165414  -0.205099  0  3.958552  0
C  C73  1  0.79292196  0.86179620  0.63307253  1  -0.011822  0  -0.16764  -0.09169  0  3.953795  0
C  C74  1  0.75626420  0.95706501  0.69614194  1  -0.071008  0  -0.248405  -0.353816  0  3.97533  0
C  C75  1  0.22442353  0.10447991  0.52329452  1  0.010517  0  -0.165156  -0.200868  0  3.96241  0
C  C76  1  0.20511815  0.16375144  0.60442265  1  -0.024568  0  -0.166774  -0.086853  0  3.94553  0
C  C77  1  0.05959046  0.21017010  0.61538377  1  -0.048922  0  -0.246658  -0.34737  0  3.968781  0
C  C78  1  0.13707531  0.65219194  0.62291391  1  -0.036679  0  -0.15924  -0.247142  0  3.931049  0
C  C79  1  0.14955313  0.58705495  0.69890620  1  -0.027336  0  -0.164076  -0.084582  0  3.938164  0
C  C80  1  0.01369197  0.56894976  0.73714142  1  -0.077507  0  -0.249103  -0.365878  0  3.985464  0
C  C81  1  0.86695396  0.34064385  0.38349376  1  -0.031329  0  -0.156408  -0.243689  0  3.938111  0
C  C82  1  0.88513689  0.20566295  0.40141735  1  -0.018167  0  -0.161531  -0.082697  0  3.946726  0
C  C83  1  0.79876949  0.11930453  0.34597245  1  -0.084361  0  -0.241543  -0.350799  0  3.966206  0
N  N84  1  0.14395250  0.50558488  0.50992687  1  -1.223353  0  -0.294019  -0.200455  0  3.459988  0
N  N85  1  0.85991743  0.49422525  0.49317906  1  -1.195291  0  -0.294894  -0.200837  0  3.45702  0
O  O86  1  0.37494723  0.31665352  0.48758043  1  -1.165346  0  -0.312805  -0.543842  0  2.353896  0
O  O87  1  0.63092301  0.68766861  0.49708877  1  -1.158449  0  -0.308601  -0.53339  0  2.33903  0
O  O88  1  0.60629042  0.31873528  0.50791083  1  -1.171358  0  -0.31729  -0.547126  0  2.354006  0
O  O89  1  0.41013066  0.68266825  0.53180539  1  -1.172348  0  -0.316365  -0.556208  0  2.379849  0
O  O90  1  0.35325667  0.52836002  0.39167960  1  -1.172456  0  -0.320751  -0.555983  0  2.310436  0
O  O91  1  0.64468479  0.52909319  0.61716972  1  -1.168876  0  -0.315853  -0.556146  0  2.334792  0
O  O92  1  0.58246598  0.49726826  0.38325509  1  -1.173351  0  -0.318247  -0.556329  0  2.360657  0
O  O93  1  0.42056008  0.47157054  0.62150413  1  -1.16996  0  -0.314825  -0.551934  0  2.340972  0
