# generated using pymatgen
data_Cd2H15C20(NO4)3
_symmetry_space_group_name_H-M   'P 1'
_cell_length_a   8.15851975
_cell_length_b   10.76752649
_cell_length_c   13.00450000
_cell_angle_alpha   99.26815378
_cell_angle_beta   92.00570437
_cell_angle_gamma   97.39085237
_symmetry_Int_Tables_number   1
_chemical_formula_structural   Cd2H15C20(NO4)3
_chemical_formula_sum   'Cd4 H30 C40 N6 O24'
_cell_volume   1116.31289875
_cell_formula_units_Z   2
loop_
 _symmetry_equiv_pos_site_id
 _symmetry_equiv_pos_as_xyz
  1  'x, y, z'
loop_
 _atom_site_type_symbol
 _atom_site_label
 _atom_site_symmetry_multiplicity
 _atom_site_fract_x
 _atom_site_fract_y
 _atom_site_fract_z
 _atom_site_occupancy
 _atom_site_hle17_bader_spin_density
 _atom_site_hle17_ddec_charge
 _atom_site_hle17_ddec_spin_density
 _atom_site_hle17_ddec_sum_bond_order
 _atom_site_hle17_magmom
 _atom_site_hse06_10hf_bader_spin_density
 _atom_site_hse06_10hf_ddec_charge
 _atom_site_hse06_10hf_ddec_spin_density
 _atom_site_hse06_10hf_ddec_sum_bond_order
 _atom_site_hse06_10hf_magmom
 _atom_site_hse06_bader_spin_density
 _atom_site_hse06_ddec_charge
 _atom_site_hse06_ddec_spin_density
 _atom_site_hse06_ddec_sum_bond_order
 _atom_site_hse06_magmom
 _atom_site_pbe_bader_charge
 _atom_site_pbe_bader_spin_density
 _atom_site_pbe_cm5_charge
 _atom_site_pbe_ddec_charge
 _atom_site_pbe_ddec_spin_density
 _atom_site_pbe_ddec_sum_bond_order
 _atom_site_pbe_magmom
Cd  Cd0  1  0.46809901  0.43439660  0.19933848  1  0  1.189251  0  1.57251  0  0  1.005082  0  2.011161  0  0  1.064741  0  1.95592  0  1.287957  0  0.780226  0.962365  0  2.049332  0
Cd  Cd1  1  0.53190152  0.56560350  0.80066132  1  0  1.189236  0  1.572528  0  0  1.005063  0  2.011191  0  0  1.064723  0  1.955946  0  1.287977  0  0.780223  0.962346  0  2.04936  0
Cd  Cd2  1  0.86088406  0.23015134  0.11035931  1  0  1.187203  0  1.575272  0  0  0.999942  0  2.01018  0  0  1.058792  0  1.956055  0  1.280296  0  0.778557  0.957809  0  2.047485  0
Cd  Cd3  1  0.13911541  0.76984971  0.88964058  1  0  1.187185  0  1.575267  0  0  0.999926  0  2.010174  0  0  1.058779  0  1.956042  0  1.28027  0  0.778555  0.957794  0  2.047471  0
H  H4  1  0.14898034  0.50863462  0.15684857  1  0  0.44327  0  0.844657  0  0  0.412748  0  0.906414  0  0  0.423809  0  0.890272  0  0.661696  0  0.298314  0.404857  0  0.917944  0
H  H5  1  0.85102003  0.49136453  0.84315186  1  0  0.443217  0  0.84472  0  0  0.412736  0  0.90642  0  0  0.423793  0  0.890282  0  0.661694  0  0.298311  0.404845  0  0.917951  0
H  H6  1  0.27101929  0.58706716  0.08730050  1  0  0.438317  0  0.853285  0  0  0.407586  0  0.916732  0  0  0.418291  0  0.901132  0  0.661013  0  0.293294  0.399939  0  0.927894  0
H  H7  1  0.72898107  0.41293200  0.91269993  1  0  0.438313  0  0.853288  0  0  0.407586  0  0.916727  0  0  0.418291  0  0.901126  0  0.661018  0  0.293294  0.399939  0  0.92789  0
H  H8  1  0.14750874  0.17718131  0.22699617  1  0  0.439096  0  0.857655  0  0  0.407569  0  0.921698  0  0  0.41886  0  0.905383  0  0.659907  0  0.290722  0.39958  0  0.93322  0
H  H9  1  0.85249057  0.82281879  0.77300437  1  0  0.439085  0  0.857673  0  0  0.407557  0  0.921715  0  0  0.418849  0  0.905399  0  0.659905  0  0.290719  0.399569  0  0.933237  0
H  H10  1  0.06044751  0.04334050  0.15631972  1  0  0.431191  0  0.871069  0  0  0.398988  0  0.936882  0  0  0.410698  0  0.919892  0  0.65647  0  0.286331  0.390667  0  0.948941  0
H  H11  1  0.93955180  0.95665961  0.84368081  1  0  0.431189  0  0.871074  0  0  0.398981  0  0.936895  0  0  0.410692  0  0.919903  0  0.656469  0  0.286326  0.39066  0  0.948954  0
H  H12  1  0.12154261  0.63110484  0.31814191  1  0  0.132118  0  0.951084  0  0  0.132863  0  1.026739  0  0  0.137642  0  1.021636  0  0.159335  0  0.117813  0.129413  0  1.030364  0
H  H13  1  0.87845915  0.36889526  0.68185868  1  0  0.132111  0  0.951121  0  0  0.13285  0  1.02677  0  0  0.137627  0  1.021671  0  0.159334  0  0.117807  0.129398  0  1.0304  0
H  H14  1  0.68321436  0.46183004  0.44683728  1  0  0.122731  0  0.936172  0  0  0.127946  0  1.00229  0  0  0.132275  0  0.99827  0  0.115025  0  0.112786  0.124752  0  1.005213  0
H  H15  1  0.31678618  0.53817007  0.55316328  1  0  0.122723  0  0.936189  0  0  0.127938  0  1.002307  0  0  0.132268  0  0.998287  0  0.11502  0  0.11278  0.124744  0  1.005231  0
H  H16  1  0.71171582  0.89245386  0.39224633  1  0  0.115748  0  0.964919  0  0  0.122665  0  1.02591  0  0  0.126565  0  1.023791  0  0.139514  0  0.108362  0.119813  0  1.027698  0
H  H17  1  0.28828472  0.10754625  0.60775347  1  0  0.11575  0  0.964909  0  0  0.122663  0  1.025903  0  0  0.126563  0  1.023785  0  0.1395  0  0.108354  0.119811  0  1.027691  0
H  H18  1  0.93038451  0.94334943  0.26859375  1  0  0.108137  0  0.94898  0  0  0.119145  0  1.009437  0  0  0.122482  0  1.006126  0  0.118576  0  0.111593  0.116624  0  1.011916  0
H  H19  1  0.06961602  0.05665068  0.73140681  1  0  0.108066  0  0.949062  0  0  0.119119  0  1.009475  0  0  0.122453  0  1.006167  0  0.11858  0  0.111573  0.116598  0  1.011952  0
H  H20  1  0.52560577  0.68463243  0.35077307  1  0  0.096599  0  0.938593  0  0  0.10514  0  1.000254  0  0  0.107942  0  0.99741  0  0.144839  0  0.12108  0.10303  0  1.002423  0
H  H21  1  0.47439477  0.31536768  0.64922749  1  0  0.096629  0  0.938579  0  0  0.105157  0  1.000243  0  0  0.10796  0  0.997399  0  0.144878  0  0.121085  0.103049  0  1.002409  0
H  H22  1  0.96724900  0.80370980  0.61550196  1  0  0.131046  0  0.953263  0  0  0.133719  0  1.024159  0  0  0.138463  0  1.019137  0  0.147279  0  0.116714  0.130267  0  1.02775  0
H  H23  1  0.03275154  0.19629030  0.38449783  1  0  0.131044  0  0.953266  0  0  0.133717  0  1.024162  0  0  0.138462  0  1.01914  0  0.147283  0  0.116718  0.130266  0  1.027752  0
H  H24  1  0.76855978  0.57592927  0.08266309  1  0  0.100066  0  0.935279  0  0  0.106559  0  1.002195  0  0  0.110149  0  0.998096  0  0.150361  0  0.121605  0.103887  0  1.005268  0
H  H25  1  0.23143936  0.42406989  0.91733655  1  0  0.100074  0  0.935279  0  0  0.106564  0  1.002199  0  0  0.110155  0  0.998098  0  0.150368  0  0.121607  0.103892  0  1.005271  0
H  H26  1  0.32414250  0.79281412  0.16714658  1  0  0.109612  0  0.942581  0  0  0.120517  0  1.003245  0  0  0.123432  0  1.000374  0  0.136803  0  0.113645  0.118349  0  1.005385  0
H  H27  1  0.67585681  0.20718598  0.83285395  1  0  0.1096  0  0.942611  0  0  0.120461  0  1.003345  0  0  0.12337  0  1.00048  0  0.136813  0  0.113644  0.118301  0  1.005464  0
H  H28  1  0.58103614  0.17223547  0.26312847  1  0  0.095874  0  0.95958  0  0  0.102529  0  1.026119  0  0  0.105401  0  1.022806  0  0.181573  0  0.118264  0.100454  0  1.028415  0
H  H29  1  0.41896423  0.82776369  0.73687197  1  0  0.095873  0  0.959568  0  0  0.102535  0  1.026112  0  0  0.105404  0  1.022795  0  0.181569  0  0.118258  0.10046  0  1.028407  0
H  H30  1  0.72630212  0.94950822  0.00004876  1  0  0.098173  0  0.934274  0  0  0.105151  0  1.00169  0  0  0.1085  0  0.998003  0  0.146902  0  0.121065  0.102695  0  1.004326  0
H  H31  1  0.27369841  0.05049188  0.99995257  1  0  0.098163  0  0.934268  0  0  0.105134  0  1.001696  0  0  0.108484  0  0.998009  0  0.147161  0  0.121057  0.10268  0  1.004332  0
H  H32  1  0.36287152  0.99909110  0.29329041  1  0  0.117121  0  0.939081  0  0  0.125923  0  0.99537  0  0  0.129646  0  0.99362  0  0.135431  0  0.11241  0.123236  0  0.996889  0
H  H33  1  0.63712656  0.00090900  0.70670779  1  0  0.11716  0  0.939096  0  0  0.125957  0  0.995378  0  0  0.129679  0  0.993628  0  0.135425  0  0.112419  0.123271  0  0.996897  0
C  C34  1  0.05308761  0.72577688  0.46637525  1  0  0.064757  0  3.713442  0  0  0.058061  0  3.969645  0  0  0.052087  0  3.9933  0  0.178634  0  0.075015  0.061624  0  3.953681  0
C  C35  1  0.94691170  0.27422322  0.53362529  1  0  0.064748  0  3.713384  0  0  0.058048  0  3.969589  0  0  0.052074  0  3.993244  0  0.178674  0  0.075008  0.061613  0  3.953623  0
C  C36  1  0.49990603  0.73984599  0.99112535  1  0  0.633094  0  3.95698  0  0  0.577464  0  4.254036  0  0  0.612186  0  4.250061  0  1.57298  0  0.197415  0.553906  0  4.256115  0
C  C37  1  0.50009433  0.26015316  0.00887508  1  0  0.63305  0  3.956973  0  0  0.577431  0  4.254015  0  0  0.612151  0  4.250044  0  1.572973  0  0.197409  0.553872  0  4.256095  0
C  C38  1  0.03259474  0.63112669  0.37856097  1  0  -0.071192  0  3.663193  0  0  -0.114788  0  3.927208  0  0  -0.109701  0  3.944182  0  -0.000291  0  -0.061983  -0.117696  0  3.915632  0
C  C39  1  0.96740580  0.36887342  0.62143959  1  0  -0.071195  0  3.663136  0  0  -0.11478  0  3.927161  0  0  -0.109692  0  3.944137  0  -0.000287  0  -0.061963  -0.117688  0  3.915583  0
C  C40  1  0.78801029  0.53652208  0.45210561  1  0  -0.026995  0  3.636414  0  0  -0.071264  0  3.892649  0  0  -0.065508  0  3.909226  0  -0.010828  0  -0.056819  -0.074402  0  3.88114  0
C  C41  1  0.21199024  0.46347802  0.54789496  1  0  -0.027023  0  3.636429  0  0  -0.071276  0  3.892631  0  0  -0.06552  0  3.909208  0  -0.010596  0  -0.056808  -0.074415  0  3.881123  0
C  C42  1  0.89675653  0.53608990  0.37134294  1  0  -0.068136  0  3.755974  0  0  -0.040172  0  3.993442  0  0  -0.052391  0  4.018782  0  -0.004431  0  -0.013524  -0.032538  0  3.976569  0
C  C43  1  0.10324417  0.46391115  0.62865775  1  0  -0.068056  0  3.755865  0  0  -0.040104  0  3.993345  0  0  -0.052324  0  4.018688  0  -0.004657  0  -0.013528  -0.032471  0  3.976471  0
C  C44  1  0.72914475  0.82433759  0.32347488  1  0  -0.118573  0  3.729999  0  0  -0.128875  0  3.983985  0  0  -0.138273  0  4.007819  0  -0.010656  0  -0.081584  -0.122868  0  3.967852  0
C  C45  1  0.27085439  0.17566156  0.67652476  1  0  -0.118589  0  3.729994  0  0  -0.128901  0  3.98398  0  0  -0.1383  0  4.007814  0  -0.010711  0  -0.081605  -0.122895  0  3.967848  0
C  C46  1  0.85087002  0.85215952  0.25490979  1  0  -0.00328  0  3.668554  0  0  -0.035063  0  3.916368  0  0  -0.029564  0  3.934608  0  -0.011347  0  -0.059173  -0.038146  0  3.90385  0
C  C47  1  0.14913052  0.14784059  0.74509001  1  0  -0.003254  0  3.668581  0  0  -0.035073  0  3.916399  0  0  -0.029572  0  3.934642  0  -0.011316  0  -0.059176  -0.038154  0  3.903879  0
C  C48  1  0.86893074  0.43242663  0.27846241  1  0  0.644443  0  3.922665  0  0  0.588646  0  4.215894  0  0  0.623068  0  4.212009  0  1.572553  0  0.20149  0.565359  0  4.217663  0
C  C49  1  0.13106996  0.56757443  0.72153828  1  0  0.64431  0  3.92272  0  0  0.588515  0  4.215952  0  0  0.622933  0  4.212071  0  1.572501  0  0.201439  0.565229  0  4.21772  0
C  C50  1  0.62509159  0.70950983  0.30095791  1  0  0.135073  0  3.688389  0  0  0.10224  0  3.939545  0  0  0.11041  0  3.958975  0  0.40238  0  0.050726  0.097067  0  3.926098  0
C  C51  1  0.37490878  0.29048932  0.69904252  1  0  0.134981  0  3.688368  0  0  0.102183  0  3.939485  0  0  0.110352  0  3.958917  0  0.401461  0  0.050713  0.09701  0  3.926039  0
C  C52  1  0.94515891  0.72899971  0.54741497  1  0  -0.079084  0  3.654114  0  0  -0.118928  0  3.909977  0  0  -0.114082  0  3.925888  0  -0.006477  0  -0.064969  -0.12151  0  3.899028  0
C  C53  1  0.05484179  0.27100135  0.45258496  1  0  -0.079065  0  3.654126  0  0  -0.118911  0  3.90999  0  0  -0.114066  0  3.925901  0  -0.00646  0  -0.064971  -0.121494  0  3.89904  0
C  C54  1  0.75934608  0.64802919  0.15049518  1  0  0.128211  0  3.665471  0  0  0.084116  0  3.919532  0  0  0.093769  0  3.93647  0  0.467978  0  0.052358  0.077968  0  3.908061  0
C  C55  1  0.24065429  0.35196997  0.84950526  1  0  0.128187  0  3.665534  0  0  0.08409  0  3.919597  0  0  0.093744  0  3.936535  0  0.467975  0  0.052359  0.077943  0  3.908125  0
C  C56  1  0.41843020  0.87043074  0.15704955  1  0  0.012671  0  3.662251  0  0  -0.020033  0  3.911702  0  0  -0.012923  0  3.928666  0  -0.055092  0  -0.054397  -0.024145  0  3.899884  0
C  C57  1  0.58156910  0.12956936  0.84295022  1  0  0.012723  0  3.662269  0  0  -0.019969  0  3.911728  0  0  -0.012853  0  3.928683  0  -0.055094  0  -0.054399  -0.024079  0  3.899912  0
C  C58  1  0.56146844  0.08118899  0.21118589  1  0  0.152086  0  3.654826  0  0  0.114872  0  3.908828  0  0  0.124572  0  3.926287  0  0.397155  0  0.053075  0.108834  0  3.896652  0
C  C59  1  0.43853087  0.91881112  0.78881387  1  0  0.152093  0  3.654857  0  0  0.114858  0  3.908871  0  0  0.124565  0  3.926326  0  0.397086  0  0.053071  0.108821  0  3.896696  0
C  C60  1  0.81193648  0.63195590  0.54024895  1  0  -0.049609  0  3.725159  0  0  -0.022435  0  3.961159  0  0  -0.033523  0  3.984267  0  0.065967  0  -0.008871  -0.015727  0  3.945886  0
C  C61  1  0.18806405  0.36804420  0.45975085  1  0  -0.049596  0  3.725177  0  0  -0.022416  0  3.961172  0  0  -0.033506  0  3.984284  0  0.065961  0  -0.008856  -0.015706  0  3.945897  0
C  C62  1  0.64364352  0.95703670  0.06414221  1  0  0.129516  0  3.675845  0  0  0.084882  0  3.928602  0  0  0.095218  0  3.946742  0  0.475171  0  0.053122  0.078288  0  3.916239  0
C  C63  1  0.35635562  0.04296246  0.93585742  1  0  0.129476  0  3.675923  0  0  0.084839  0  3.92868  0  0  0.095177  0  3.946822  0  0.474985  0  0.053104  0.078243  0  3.916319  0
C  C64  1  0.43951627  0.98460596  0.22680539  1  0  -0.102448  0  3.690167  0  0  -0.111847  0  3.942708  0  0  -0.120901  0  3.963715  0  0.02143  0  -0.074811  -0.106192  0  3.928534  0
C  C65  1  0.56048059  0.01539414  0.77319356  1  0  -0.102536  0  3.690225  0  0  -0.111915  0  3.942755  0  0  -0.120969  0  3.963758  0  0.021505  0  -0.074805  -0.106261  0  3.928579  0
C  C66  1  0.86617690  0.76289684  0.16606318  1  0  -0.110381  0  3.729438  0  0  -0.081969  0  3.965008  0  0  -0.095032  0  3.988565  0  0.013283  0  -0.01123  -0.073887  0  3.949442  0
C  C67  1  0.13382347  0.23710231  0.83393648  1  0  -0.110279  0  3.729384  0  0  -0.081881  0  3.964955  0  0  -0.094944  0  3.988513  0  0.013285  0  -0.011193  -0.073798  0  3.949387  0
C  C68  1  0.98426869  0.78782554  0.08347950  1  0  0.642813  0  3.933634  0  0  0.590326  0  4.226076  0  0  0.625462  0  4.220658  0  1.570177  0  0.20259  0.566622  0  4.228807  0
C  C69  1  0.01573078  0.21217552  0.91652117  1  0  0.642786  0  3.93365  0  0  0.590337  0  4.226033  0  0  0.625472  0  4.220618  0  1.570189  0  0.202651  0.566632  0  4.228766  0
C  C70  1  0.70007848  0.62337310  0.62873724  1  0  0.642023  0  3.916652  0  0  0.591994  0  4.203519  0  0  0.626771  0  4.198479  0  1.578571  0  0.200406  0.568511  0  4.206013  0
C  C71  1  0.29992083  0.37662701  0.37126253  1  0  0.642001  0  3.916636  0  0  0.591974  0  4.203518  0  0  0.626751  0  4.198477  0  1.578574  0  0.200398  0.56849  0  4.206012  0
C  C72  1  0.52201853  0.85603204  0.07372830  1  0  -0.133297  0  3.758004  0  0  -0.104074  0  3.995195  0  0  -0.118974  0  4.020865  0  0.008242  0  -0.018571  -0.094657  0  3.978208  0
C  C73  1  0.47798078  0.14396807  0.92627224  1  0  -0.133279  0  3.757943  0  0  -0.104053  0  3.995122  0  0  -0.118956  0  4.020795  0  0.008246  0  -0.018567  -0.094638  0  3.978137  0
N  N74  1  0.64089534  0.62261892  0.21602879  1  0  -0.356066  0  3.299718  0  0  -0.270428  0  3.56544  0  0  -0.294383  0  3.586862  0  -1.253178  0  -0.335388  -0.254119  0  3.55045  0
N  N75  1  0.35910520  0.37738118  0.78397177  1  0  -0.355976  0  3.299659  0  0  -0.270351  0  3.565367  0  0  -0.294306  0  3.586788  0  -1.252288  0  -0.335355  -0.254043  0  3.550378  0
N  N76  1  0.66185746  0.06756060  0.13084533  1  0  -0.35972  0  3.285668  0  0  -0.271421  0  3.552688  0  0  -0.296342  0  3.573711  0  -1.242136  0  -0.33305  -0.254412  0  3.537878  0
N  N77  1  0.33814308  0.93243950  0.86915446  1  0  -0.359668  0  3.285776  0  0  -0.271357  0  3.552775  0  0  -0.296281  0  3.573801  0  -1.242144  0  -0.333025  -0.25435  0  3.537968  0
N  N78  1  0.19650422  0.82486571  0.47457455  1  0  0.466567  0  3.9539  0  0  0.513909  0  4.223492  0  0  0.533766  0  4.234177  0  0.354555  0  0.05901  0.500648  0  4.216338  0
N  N79  1  0.80349632  0.17513440  0.52542602  1  0  0.466556  0  3.95389  0  0  0.513895  0  4.223479  0  0  0.533754  0  4.23416  0  0.354518  0  0.059  0.500636  0  4.21632  0
O  O80  1  0.36649155  0.66184849  0.98362981  1  0  -0.680925  0  1.996054  0  0  -0.61414  0  2.239044  0  0  -0.64195  0  2.227287  0  -1.197938  0  -0.323074  -0.594517  0  2.246919  0
O  O81  1  0.63350882  0.33815067  0.01637063  1  0  -0.680899  0  1.996063  0  0  -0.614103  0  2.239016  0  0  -0.641913  0  2.227264  0  -1.19793  0  -0.323058  -0.59448  0  2.246891  0
O  O82  1  0.26053523  0.55540026  0.15435196  1  0  -0.846801  0  1.841123  0  0  -0.787754  0  2.03503  0  0  -0.810275  0  2.000089  0  -1.287822  0  -0.586284  -0.771825  0  2.059474  0
O  O83  1  0.73946408  0.44459984  0.84564781  1  0  -0.846744  0  1.841179  0  0  -0.787742  0  2.035036  0  0  -0.810255  0  2.000096  0  -1.287824  0  -0.586275  -0.771814  0  2.05948  0
O  O84  1  0.04099487  0.12636648  0.19736832  1  0  -0.862672  0  1.854528  0  0  -0.799125  0  2.053561  0  0  -0.822811  0  2.017094  0  -1.288496  0  -0.592442  -0.782321  0  2.078983  0
O  O85  1  0.95900427  0.87363267  0.80263209  1  0  -0.862637  0  1.854532  0  0  -0.799097  0  2.053579  0  0  -0.822783  0  2.017109  0  -1.288491  0  -0.592436  -0.782293  0  2.079  0
O  O86  1  0.61551454  0.72849344  0.92825663  1  0  -0.608952  0  2.022255  0  0  -0.540959  0  2.273843  0  0  -0.571827  0  2.265405  0  -1.144416  0  -0.313241  -0.519479  0  2.279038  0
O  O87  1  0.38448477  0.27150666  0.07174314  1  0  -0.608954  0  2.022249  0  0  -0.540954  0  2.273803  0  0  -0.571822  0  2.265365  0  -1.14443  0  -0.313254  -0.519474  0  2.278999  0
O  O88  1  0.98524977  0.41902336  0.21632625  1  0  -0.625071  0  2.011801  0  0  -0.547092  0  2.241179  0  0  -0.576955  0  2.23267  0  -1.171834  0  -0.307743  -0.526327  0  2.246472  0
O  O89  1  0.01475094  0.58097770  0.78367291  1  0  -0.625024  0  2.011836  0  0  -0.547054  0  2.241212  0  0  -0.576913  0  2.232696  0  -1.171829  0  -0.307726  -0.526292  0  2.246506  0
O  O90  1  0.05944669  0.89851577  0.08296134  1  0  -0.647668  0  1.968673  0  0  -0.587578  0  2.199649  0  0  -0.615529  0  2.190416  0  -1.182741  0  -0.315309  -0.567877  0  2.205221  0
O  O91  1  0.94055139  0.10148433  0.91703763  1  0  -0.647694  0  1.968634  0  0  -0.587614  0  2.199583  0  0  -0.615563  0  2.19035  0  -1.182735  0  -0.315358  -0.567919  0  2.205171  0
O  O92  1  0.73131652  0.35888579  0.26464286  1  0  -0.672842  0  2.012578  0  0  -0.608669  0  2.272543  0  0  -0.637896  0  2.260622  0  -1.185777  0  -0.325086  -0.588064  0  2.279978  0
O  O93  1  0.26868401  0.64111431  0.73535771  1  0  -0.672773  0  2.012591  0  0  -0.608604  0  2.272567  0  0  -0.63783  0  2.260644  0  -1.185748  0  -0.325062  -0.587995  0  2.279988  0
O  O94  1  0.69766288  0.71907762  0.70008546  1  0  -0.646392  0  1.979004  0  0  -0.582169  0  2.206215  0  0  -0.610618  0  2.196375  0  -1.190645  0  -0.319601  -0.562103  0  2.21219  0
O  O95  1  0.30233537  0.28092343  0.29991288  1  0  -0.646371  0  1.978957  0  0  -0.582165  0  2.206178  0  0  -0.610613  0  2.196337  0  -1.190647  0  -0.319602  -0.562102  0  2.212158  0
O  O96  1  0.61338503  0.51619919  0.62977981  1  0  -0.624184  0  1.958427  0  0  -0.562727  0  2.201555  0  0  -0.592869  0  2.192795  0  -1.148645  0  -0.320958  -0.54143  0  2.206545  0
O  O97  1  0.38661568  0.48380186  0.37022011  1  0  -0.624203  0  1.958425  0  0  -0.562759  0  2.201569  0  0  -0.5929  0  2.192807  0  -1.148655  0  -0.320984  -0.54146  0  2.206559  0
O  O98  1  0.99891699  0.69207922  0.01392531  1  0  -0.620138  0  2.002741  0  0  -0.550468  0  2.246786  0  0  -0.580939  0  2.236145  0  -1.127079  0  -0.323089  -0.529108  0  2.253372  0
O  O99  1  0.00108232  0.30792089  0.98607446  1  0  -0.620142  0  2.002827  0  0  -0.550482  0  2.246855  0  0  -0.580953  0  2.236215  0  -1.127096  0  -0.323109  -0.529122  0  2.253443  0
O  O100  1  0.27999667  0.83019339  0.39692677  1  0  -0.345204  0  1.75919  0  0  -0.333888  0  1.954885  0  0  -0.345355  0  1.950854  0  -0.465369  0  -0.122924  -0.326275  0  1.95788  0
O  O101  1  0.72000387  0.16980671  0.60307379  1  0  -0.345248  0  1.759199  0  0  -0.333894  0  1.954878  0  0  -0.345362  0  1.950844  0  -0.465382  0  -0.122931  -0.32629  0  1.957882  0
O  O102  1  0.22708222  0.89821847  0.55906508  1  0  -0.347173  0  1.772754  0  0  -0.334698  0  1.96885  0  0  -0.346365  0  1.964828  0  -0.476874  0  -0.123859  -0.326922  0  1.971832  0
O  O103  1  0.77291831  0.10178164  0.44093548  1  0  -0.34713  0  1.772739  0  0  -0.334675  0  1.968831  0  0  -0.346343  0  1.964808  0  -0.476855  0  -0.123844  -0.326898  0  1.971811  0
