# generated using pymatgen
data_Zn4H8C24S4Br4N4O13
_symmetry_space_group_name_H-M   'P 1'
_cell_length_a   19.55565406
_cell_length_b   19.54372630
_cell_length_c   33.11913206
_cell_angle_alpha   79.62061806
_cell_angle_beta   79.57601473
_cell_angle_gamma   64.20098744
_symmetry_Int_Tables_number   1
_chemical_formula_structural   Zn4H8C24S4Br4N4O13
_chemical_formula_sum   'Zn16 H32 C96 S16 Br16 N16 O52'
_cell_volume   11134.31276020
_cell_formula_units_Z   4
loop_
 _symmetry_equiv_pos_site_id
 _symmetry_equiv_pos_as_xyz
  1  'x, y, z'
loop_
 _atom_site_type_symbol
 _atom_site_label
 _atom_site_symmetry_multiplicity
 _atom_site_fract_x
 _atom_site_fract_y
 _atom_site_fract_z
 _atom_site_occupancy
 _atom_site_pbe_bader_charge
 _atom_site_pbe_bader_spin_density
 _atom_site_pbe_cm5_charge
 _atom_site_pbe_ddec_charge
 _atom_site_pbe_ddec_spin_density
 _atom_site_pbe_ddec_sum_bond_order
 _atom_site_pbe_magmom
Zn  Zn0  1  0.05289131  0.39738048  0.48113950  1  1.324539  0  0.673817  0.980294  0  2.342671  0
Zn  Zn1  1  0.98961239  0.47619025  0.55950646  1  1.309384  0  0.665041  0.955171  0  2.36572  0
Zn  Zn2  1  0.05336840  0.56645733  0.48270178  1  1.316795  0  0.668428  0.965446  0  2.359435  0
Zn  Zn3  1  0.90440514  0.55845991  0.47512596  1  1.315993  0  0.669813  0.968794  0  2.351925  0
Zn  Zn4  1  0.69095189  0.34658169  0.27475193  1  1.324534  0  0.674194  0.981737  0  2.3391  0
Zn  Zn5  1  0.68393143  0.19609639  0.26694857  1  1.317534  0  0.669604  0.968885  0  2.35162  0
Zn  Zn6  1  0.77358930  0.26081574  0.18989056  1  1.313839  0  0.668791  0.965489  0  2.359961  0
Zn  Zn7  1  0.85117494  0.19840716  0.26813133  1  1.312549  0  0.664684  0.953359  0  2.370285  0
Zn  Zn8  1  0.27359456  0.76051941  0.69026478  1  1.308365  0  0.664842  0.953937  0  2.367965  0
Zn  Zn9  1  0.35196732  0.69759138  0.76826314  1  1.316795  0  0.66882  0.964526  0  2.360434  0
Zn  Zn10  1  0.19119988  0.84622709  0.77485981  1  1.323831  0  0.673951  0.981028  0  2.340385  0
Zn  Zn11  1  0.18393867  0.69599804  0.76703766  1  1.316886  0  0.66901  0.968554  0  2.350237  0
Zn  Zn12  1  0.55353472  0.06669614  0.98297499  1  1.317875  0  0.668446  0.964668  0  2.359636  0
Zn  Zn13  1  0.40525571  0.05854076  0.97541837  1  1.310912  0  0.664931  0.95393  0  2.369528  0
Zn  Zn14  1  0.55288872  0.89766499  0.98128158  1  1.325074  0  0.674015  0.981741  0  2.339067  0
Zn  Zn15  1  0.48924798  0.97693189  0.06012034  1  1.317926  0  0.669127  0.968137  0  2.352464  0
H  H16  1  0.31929078  0.54886257  0.40777226  1  0.441281  0  0.314695  0.31157  0  0.931452  0
H  H17  1  0.23146061  0.55081369  0.43212196  1  0.485667  0  0.30137  0.313285  0  0.972174  0
H  H18  1  0.42159881  0.20255445  0.34736836  1  0.451842  0  0.315376  0.311748  0  0.931914  0
H  H19  1  0.51073832  0.19952882  0.32467519  1  0.48872  0  0.305726  0.317866  0  0.963284  0
H  H20  1  0.77259884  0.54705605  0.68363143  1  0.461234  0  0.312916  0.309052  0  0.932527  0
H  H21  1  0.84163628  0.52558811  0.64080573  1  0.489172  0  0.298582  0.30829  0  0.978354  0
H  H22  1  0.48809250  0.70394230  0.56206645  1  0.463645  0  0.314756  0.310808  0  0.932372  0
H  H23  1  0.41959395  0.72796042  0.60519924  1  0.505194  0  0.303688  0.315054  0  0.968201  0
H  H24  1  0.04589209  0.26164638  0.68794697  1  0.465347  0  0.314786  0.31107  0  0.932647  0
H  H25  1  0.02189949  0.33044282  0.64494385  1  0.506631  0  0.303655  0.314891  0  0.968694  0
H  H26  1  0.20182087  0.97752763  0.56599202  1  0.458299  0  0.313014  0.309451  0  0.933254  0
H  H27  1  0.22376053  0.90830401  0.60866815  1  0.491166  0  0.298221  0.308844  0  0.978696  0
H  H28  1  0.74075727  0.80985715  0.38382146  1  0.444929  0  0.316101  0.31222  0  0.932343  0
H  H29  1  0.79336948  0.73156407  0.41731004  1  0.488346  0  0.306629  0.318793  0  0.962012  0
H  H30  1  0.00268910  0.95418074  0.36514986  1  0.427524  0  0.312514  0.30858  0  0.93338  0
H  H31  1  0.94931832  0.03388377  0.33303996  1  0.503741  0  0.298864  0.30929  0  0.977034  0
H  H32  1  0.70543017  0.47764755  0.06583661  1  0.455564  0  0.314415  0.311067  0  0.931352  0
H  H33  1  0.72689241  0.40831466  0.10860385  1  0.499263  0  0.301026  0.312631  0  0.972019  0
H  H34  1  0.54356038  0.76189368  0.18795281  1  0.443656  0  0.315619  0.312093  0  0.93194  0
H  H35  1  0.51999301  0.83089026  0.14497707  1  0.470112  0  0.306106  0.318676  0  0.962706  0
H  H36  1  0.15053925  0.08387397  0.22504843  1  0.448544  0  0.314738  0.310774  0  0.932426  0
H  H37  1  0.05171784  0.11527218  0.23776082  1  0.488081  0  0.303791  0.314779  0  0.968233  0
H  H38  1  0.11080545  0.15752126  0.02200780  1  0.439296  0  0.313386  0.309701  0  0.932829  0
H  H39  1  0.20944204  0.12374655  0.00876672  1  0.483908  0  0.29879  0.309059  0  0.977063  0
H  H40  1  0.50306950  0.45331018  0.86459386  1  0.431289  0  0.314724  0.311702  0  0.93121  0
H  H41  1  0.44969013  0.53329894  0.83245226  1  0.503146  0  0.302141  0.313832  0  0.971183  0
H  H42  1  0.24173524  0.30833327  0.88277854  1  0.443539  0  0.31487  0.310323  0  0.93347  0
H  H43  1  0.29412010  0.23045257  0.91646282  1  0.500084  0  0.304009  0.315445  0  0.966206  0
H  H44  1  0.92156301  0.70249954  0.84766023  1  0.454358  0  0.315628  0.312137  0  0.931417  0
H  H45  1  0.01074945  0.69949176  0.82483646  1  0.489443  0  0.305738  0.317793  0  0.964198  0
H  H46  1  0.82001531  0.04811826  0.90865358  1  0.427793  0  0.314212  0.310619  0  0.931064  0
H  H47  1  0.73177286  0.05074106  0.93237256  1  0.479208  0  0.300988  0.312709  0  0.971819  0
C  C48  1  0.06248971  0.30965715  0.56375683  1  1.519983  0  0.20487  0.611681  0  4.217972  0
C  C49  1  0.06731065  0.56789069  0.56816063  1  1.607992  0  0.219205  0.615736  0  4.154985  0
C  C50  1  0.17819531  0.44115193  0.43968686  1  1.49748  0  0.206453  0.621227  0  4.196876  0
C  C51  1  0.93615228  0.69086155  0.43672682  1  1.506461  0  0.204901  0.613979  0  4.213497  0
C  C52  1  0.93122020  0.43255056  0.43206319  1  1.608256  0  0.220225  0.618255  0  4.152311  0
C  C53  1  0.82142343  0.55814407  0.55947419  1  1.461217  0  0.206768  0.622155  0  4.199247  0
C  C54  1  0.56008731  0.31256004  0.31379519  1  1.49934  0  0.205201  0.612865  0  4.218471  0
C  C55  1  0.68210914  0.18231979  0.18192909  1  1.605703  0  0.220315  0.61735  0  4.152603  0
C  C56  1  0.69228389  0.42881932  0.19021475  1  1.506619  0  0.206796  0.620629  0  4.201179  0
C  C57  1  0.94084400  0.18595838  0.18671878  1  1.46435  0  0.205084  0.613886  0  4.216475  0
C  C58  1  0.81888643  0.31675877  0.31820635  1  1.614911  0  0.219467  0.616484  0  4.154557  0
C  C59  1  0.81082589  0.07061828  0.30871996  1  1.51006  0  0.207192  0.622209  0  4.198588  0
C  C60  1  0.44043557  0.68653730  0.68613857  1  1.485685  0  0.204576  0.613707  0  4.214464  0
C  C61  1  0.31892358  0.81698981  0.81802749  1  1.619403  0  0.219691  0.616327  0  4.152289  0
C  C62  1  0.19250526  0.92837599  0.69014104  1  1.541379  0  0.20708  0.621865  0  4.197046  0
C  C63  1  0.05998893  0.81260921  0.81371106  1  1.496915  0  0.204788  0.612032  0  4.218017  0
C  C64  1  0.18222535  0.68271514  0.68155256  1  1.611985  0  0.21978  0.615267  0  4.157225  0
C  C65  1  0.31052146  0.57020032  0.80850598  1  1.511219  0  0.20631  0.621882  0  4.198116  0
C  C66  1  0.43584949  0.19093614  0.93676948  1  1.500874  0  0.204618  0.613604  0  4.21441  0
C  C67  1  0.43030545  0.93332224  0.93222324  1  1.609588  0  0.218538  0.616998  0  4.156307  0
C  C68  1  0.67778779  0.94171904  0.93939789  1  1.499597  0  0.207383  0.62189  0  4.197473  0
C  C69  1  0.56234305  0.81000475  0.06366374  1  1.516804  0  0.205372  0.613807  0  4.216141  0
C  C70  1  0.56809700  0.06796569  0.06800494  1  1.604294  0  0.220319  0.616651  0  4.15499  0
C  C71  1  0.32133793  0.06160803  0.05959439  1  1.491239  0  0.207234  0.622118  0  4.197877  0
C  C72  1  0.90230087  0.40265934  0.40276689  1  0.01898  0  -0.015578  -0.087798  0  3.887893  0
C  C73  1  0.84782230  0.34651823  0.34757012  1  0.130748  0  -0.015906  -0.089762  0  3.88712  0
C  C74  1  0.82859328  0.44490965  0.39019926  1  0.011502  0  -0.012077  0.054509  0  3.905224  0
C  C75  1  0.91911709  0.30179493  0.36266937  1  -0.025965  0  -0.011815  0.057216  0  3.897477  0
C  C76  1  0.80410013  0.41989231  0.36056487  1  -0.079526  0  -0.013524  0.050792  0  3.906746  0
C  C77  1  0.94842535  0.33172615  0.38742291  1  -0.027678  0  -0.013927  0.048712  0  3.908601  0
C  C78  1  0.09698429  0.59746021  0.59734315  1  0.06147  0  -0.014819  -0.089331  0  3.882286  0
C  C79  1  0.15283997  0.65301267  0.65230395  1  0.083238  0  -0.014552  -0.086948  0  3.887091  0
C  C80  1  0.14115578  0.63968519  0.58202944  1  -0.042409  0  -0.012142  0.052341  0  3.901313  0
C  C81  1  0.11362458  0.60605297  0.66757173  1  -0.039936  0  -0.013546  0.050454  0  3.906241  0
C  C82  1  0.16383067  0.67157208  0.60916254  1  -0.009643  0  -0.012056  0.055196  0  3.900002  0
C  C83  1  0.08132615  0.58355749  0.64059138  1  -0.007296  0  -0.010583  0.057779  0  3.896742  0
C  C84  1  0.29747253  0.45732965  0.40260632  1  0.578539  0  0.107407  0.287325  0  4.113878  0
C  C85  1  0.44146087  0.29590376  0.35135518  1  0.537658  0  0.107835  0.285565  0  4.118656  0
C  C86  1  0.25152448  0.41658534  0.41479784  1  -0.14074  0  -0.050186  -0.262761  0  3.951176  0
C  C87  1  0.48675930  0.33724944  0.33863723  1  -0.10598  0  -0.049073  -0.260546  0  3.952446  0
C  C88  1  0.37155967  0.34111663  0.37412664  1  -0.148179  0  -0.029462  -0.108192  0  4.080484  0
C  C89  1  0.36625360  0.41304214  0.37872446  1  -0.124195  0  -0.030109  -0.109546  0  4.083788  0
C  C90  1  0.73278937  0.57301172  0.62723280  1  0.490605  0  0.105537  0.283657  0  4.114409  0
C  C91  1  0.52897921  0.67291037  0.61852655  1  0.49122  0  0.10672  0.285183  0  4.118224  0
C  C92  1  0.74759943  0.58200335  0.58389770  1  -0.027364  0  -0.049021  -0.259762  0  3.950206  0
C  C93  1  0.51428574  0.66259322  0.66184961  1  -0.082988  0  -0.048322  -0.260458  0  3.953915  0
C  C94  1  0.60925487  0.63843701  0.60617053  1  -0.138471  0  -0.029187  -0.106259  0  4.078314  0
C  C95  1  0.65244328  0.60513362  0.63949337  1  -0.14662  0  -0.029416  -0.108867  0  4.082564  0
C  C96  1  0.07683739  0.22101696  0.63135536  1  0.49875  0  0.106753  0.28539  0  4.117157  0
C  C97  1  0.17673517  0.01714546  0.62242289  1  0.455872  0  0.105507  0.284296  0  4.111398  0
C  C98  1  0.08668587  0.23576929  0.58801216  1  -0.117728  0  -0.048061  -0.259169  0  3.953372  0
C  C99  1  0.16837883  0.00226836  0.66577206  1  -0.111074  0  -0.048887  -0.2597  0  3.948607  0
C  C100  1  0.14441353  0.09753952  0.61023837  1  -0.071488  0  -0.029486  -0.109312  0  4.084466  0
C  C101  1  0.11149422  0.14069133  0.64363306  1  -0.134493  0  -0.029006  -0.107422  0  4.079083  0
C  C102  1  0.84166405  0.80627195  0.39601358  1  0.470988  0  0.107749  0.286221  0  4.117707  0
C  C103  1  0.90499377  0.95561281  0.35008501  1  0.536608  0  0.106632  0.286115  0  4.108091  0
C  C104  1  0.91178626  0.76479096  0.41251807  1  -0.104411  0  -0.048642  -0.260966  0  3.952449  0
C  C105  1  0.83547963  0.99657411  0.33295683  1  -0.100215  0  -0.049429  -0.261216  0  3.949985  0
C  C106  1  0.90723940  0.88524536  0.37236774  1  -0.145335  0  -0.029008  -0.107225  0  4.079091  0
C  C107  1  0.84055749  0.87537462  0.37245945  1  -0.114402  0  -0.02937  -0.10762  0  4.077828  0
C  C108  1  0.65285132  0.15283216  0.15254596  1  0.082115  0  -0.014772  -0.088331  0  3.885811  0
C  C109  1  0.59743490  0.09750167  0.09733214  1  0.05594  0  -0.01494  -0.088634  0  3.885185  0
C  C110  1  0.66552326  0.17023102  0.10936179  1  -0.034433  0  -0.012251  0.053875  0  3.901662  0
C  C111  1  0.58006589  0.08482337  0.14051593  1  -0.032078  0  -0.012816  0.053769  0  3.903669  0
C  C112  1  0.64291759  0.13835955  0.08219493  1  0.027293  0  -0.012532  0.053006  0  3.902609  0
C  C113  1  0.61222014  0.10714161  0.16765334  1  -0.049435  0  -0.013295  0.052506  0  3.903909  0
C  C114  1  0.67722521  0.51746574  0.12247174  1  0.539742  0  0.106164  0.285789  0  4.116178  0
C  C115  1  0.57603383  0.72140283  0.13128073  1  0.501883  0  0.107508  0.286162  0  4.117555  0
C  C116  1  0.66809534  0.50266765  0.16583207  1  -0.083194  0  -0.04979  -0.261986  0  3.951723  0
C  C117  1  0.58650373  0.73614465  0.08794164  1  -0.117539  0  -0.049217  -0.260979  0  3.95217  0
C  C118  1  0.61079640  0.64106804  0.14358377  1  -0.130259  0  -0.030257  -0.109074  0  4.080782  0
C  C119  1  0.64449542  0.59788767  0.11024197  1  -0.145198  0  -0.028703  -0.109044  0  4.083989  0
C  C120  1  0.08649266  0.12195303  0.17634726  1  0.511617  0  0.10708  0.285422  0  4.115657  0
C  C121  1  0.17547586  0.12410776  0.07004141  1  0.549224  0  0.105822  0.285296  0  4.112143  0
C  C122  1  0.01423655  0.16088618  0.16197159  1  -0.070953  0  -0.048151  -0.260391  0  3.955389  0
C  C123  1  0.24783440  0.08661499  0.08433534  1  -0.103269  0  -0.049144  -0.260345  0  3.951258  0
C  C124  1  0.11690201  0.13813999  0.10409094  1  -0.175099  0  -0.029508  -0.109088  0  4.082493  0
C  C125  1  0.14521359  0.11017272  0.14238563  1  -0.128853  0  -0.028966  -0.10676  0  4.077318  0
C  C126  1  0.34792524  0.84702415  0.84725845  1  0.094606  0  -0.015065  -0.088935  0  3.883624  0
C  C127  1  0.40171851  0.90343790  0.90273020  1  0.032477  0  -0.0155  -0.089826  0  3.890076  0
C  C128  1  0.30363287  0.92012828  0.86054033  1  -0.073863  0  -0.01374  0.049302  0  3.908277  0
C  C129  1  0.44846244  0.83307985  0.88692284  1  -0.01921  0  -0.012546  0.051351  0  3.907189  0
C  C130  1  0.32790582  0.94512747  0.89026229  1  -0.010055  0  -0.01211  0.057275  0  3.900761  0
C  C131  1  0.41963067  0.80284113  0.86203830  1  0.002725  0  -0.012362  0.05512  0  3.900281  0
C  C132  1  0.40451052  0.45552482  0.85002254  1  0.549106  0  0.107022  0.287402  0  4.114331  0
C  C133  1  0.34152411  0.30591527  0.89577914  1  0.514413  0  0.106874  0.283713  0  4.117538  0
C  C134  1  0.33510815  0.49623836  0.83272459  1  -0.110113  0  -0.04956  -0.261826  0  3.951511  0
C  C135  1  0.41143842  0.26478757  0.91249742  1  -0.099864  0  -0.048164  -0.259334  0  3.952676  0
C  C136  1  0.34027571  0.37505666  0.87226650  1  -0.154657  0  -0.029264  -0.106062  0  4.079928  0
C  C137  1  0.40672977  0.38520006  0.87236212  1  -0.136102  0  -0.029066  -0.108969  0  4.082586  0
C  C138  1  0.94134700  0.79610095  0.85134778  1  0.528449  0  0.107913  0.286919  0  4.118629  0
C  C139  1  0.79745980  0.95756172  0.90263337  1  0.576769  0  0.106783  0.285759  0  4.11237  0
C  C140  1  0.98680779  0.83731402  0.83867072  1  -0.105038  0  -0.049469  -0.26107  0  3.951721  0
C  C141  1  0.75126725  0.91705034  0.91459399  1  -0.134591  0  -0.049026  -0.261464  0  3.949132  0
C  C142  1  0.86630316  0.91318793  0.87880114  1  -0.130908  0  -0.029618  -0.108484  0  4.082152  0
C  C143  1  0.87144182  0.84138415  0.87408744  1  -0.145833  0  -0.029164  -0.109071  0  4.08123  0
S  S144  1  0.29230679  0.32607446  0.39750731  1  0.213126  0  0.042704  0.092596  0  2.779955  0
S  S145  1  0.44484381  0.42871612  0.35472976  1  0.226655  0  0.046033  0.096367  0  2.776358  0
S  S146  1  0.66476653  0.62942853  0.55902123  1  0.226972  0  0.042233  0.091164  0  2.781412  0
S  S147  1  0.59701675  0.61280574  0.68664508  1  0.234987  0  0.046079  0.096465  0  2.775365  0
S  S148  1  0.13624885  0.15303009  0.56312234  1  0.235582  0  0.046958  0.097552  0  2.774932  0
S  S149  1  0.12118705  0.08511563  0.69074461  1  0.228634  0  0.044536  0.094566  0  2.777826  0
S  S150  1  0.97400317  0.81015053  0.39983977  1  0.230337  0  0.042845  0.092103  0  2.77694  0
S  S151  1  0.77439779  0.94991085  0.34437161  1  0.214546  0  0.042037  0.091209  0  2.782594  0
S  S152  1  0.61997178  0.58557867  0.19072554  1  0.220874  0  0.042905  0.092895  0  2.779337  0
S  S153  1  0.63682640  0.65335506  0.06312334  1  0.232179  0  0.045672  0.096077  0  2.775357  0
S  S154  1  0.01852978  0.18134934  0.10817281  1  0.253467  0  0.04558  0.096101  0  2.777494  0
S  S155  1  0.24364709  0.06844119  0.13822363  1  0.210623  0  0.041899  0.090887  0  2.780851  0
S  S156  1  0.27419977  0.44933078  0.84401278  1  0.206998  0  0.039188  0.087501  0  2.782251  0
S  S157  1  0.47338629  0.31042288  0.90002078  1  0.228304  0  0.045702  0.095754  0  2.776951  0
S  S158  1  0.94502538  0.92871643  0.85488967  1  0.226181  0  0.045187  0.095162  0  2.775047  0
S  S159  1  0.79193184  0.82661083  0.89723505  1  0.214463  0  0.042688  0.093014  0  2.779928  0
Br  Br160  1  0.75813124  0.53354660  0.41512654  1  -0.004118  0  0.037201  -0.032187  0  1.515987  0
Br  Br161  1  0.97573283  0.19775648  0.35268019  1  -0.021252  0  0.027482  -0.04463  0  1.517895  0
Br  Br162  1  0.71404196  0.48878382  0.33664598  1  0.009183  0  0.045229  -0.021572  0  1.520685  0
Br  Br163  1  0.05229625  0.27747979  0.39741009  1  0.004196  0  0.043629  -0.023954  0  1.519429  0
Br  Br164  1  0.17534638  0.65118671  0.52480878  1  -0.000284  0  0.03968  -0.029027  0  1.525438  0
Br  Br165  1  0.10836879  0.56739188  0.72436360  1  -0.000138  0  0.041561  -0.026776  0  1.518988  0
Br  Br166  1  0.20487771  0.74421633  0.58637421  1  -0.014553  0  0.032178  -0.039607  0  1.519876  0
Br  Br167  1  0.01188895  0.53890197  0.66415827  1  -0.014988  0  0.031303  -0.039581  0  1.518303  0
Br  Br168  1  0.70927651  0.24057605  0.08648365  1  -0.00491  0  0.03676  -0.033218  0  1.522098  0
Br  Br169  1  0.50853005  0.04256772  0.16328112  1  0.001611  0  0.037951  -0.030736  0  1.516611  0
Br  Br170  1  0.67911548  0.14763781  0.02513256  1  -0.009633  0  0.036973  -0.033105  0  1.523912  0
Br  Br171  1  0.60478290  0.06941541  0.22453648  1  -0.004833  0  0.037914  -0.030944  0  1.51682  0
Br  Br172  1  0.21326704  0.98877846  0.83678188  1  0.010198  0  0.043829  -0.02337  0  1.523845  0
Br  Br173  1  0.55265022  0.78014015  0.89641648  1  0.008966  0  0.046054  -0.021331  0  1.521566  0
Br  Br174  1  0.25669011  0.03362468  0.91526616  1  -0.020698  0  0.0281  -0.044157  0  1.517487  0
Br  Br175  1  0.47784843  0.69962187  0.85115117  1  -0.010034  0  0.035556  -0.03412  0  1.519632  0
N  N176  1  0.27815606  0.52943875  0.41116682  1  -1.258508  0  -0.582305  -0.592587  0  3.334468  0
N  N177  1  0.46210304  0.22278835  0.34411944  1  -1.27479  0  -0.579892  -0.590941  0  3.337425  0
N  N178  1  0.78709422  0.53672489  0.65371578  1  -1.266477  0  -0.582637  -0.589975  0  3.328616  0
N  N179  1  0.47480332  0.71201631  0.59229147  1  -1.291333  0  -0.580513  -0.59115  0  3.336473  0
N  N180  1  0.03800462  0.27513966  0.65770436  1  -1.293727  0  -0.580833  -0.591866  0  3.338824  0
N  N181  1  0.21264601  0.96288419  0.59582060  1  -1.268231  0  -0.5842  -0.592843  0  3.329117  0
N  N182  1  0.78272940  0.78487178  0.40250661  1  -1.244901  0  -0.579606  -0.590349  0  3.337913  0
N  N183  1  0.96296398  0.97846197  0.34506648  1  -1.25395  0  -0.582965  -0.591132  0  3.328052  0
N  N184  1  0.71409216  0.46328007  0.09597547  1  -1.264415  0  -0.581124  -0.590159  0  3.332978  0
N  N185  1  0.53673408  0.77545045  0.15758234  1  -1.237018  0  -0.57991  -0.591896  0  3.338124  0
N  N186  1  0.09869356  0.09707176  0.21660509  1  -1.251446  0  -0.580987  -0.591035  0  3.334637  0
N  N187  1  0.16281946  0.14616012  0.02963248  1  -1.244738  0  -0.583689  -0.591639  0  3.328341  0
N  N188  1  0.46227757  0.47842623  0.84516955  1  -1.258011  0  -0.580356  -0.590554  0  3.333346  0
N  N189  1  0.28277622  0.28415656  0.90205848  1  -1.262123  0  -0.58085  -0.590221  0  3.336379  0
N  N190  1  0.96183661  0.72310889  0.84401314  1  -1.267546  0  -0.579549  -0.590902  0  3.339356  0
N  N191  1  0.77832660  0.02961917  0.91128516  1  -1.238517  0  -0.581793  -0.590597  0  3.329387  0
O  O192  1  0.00011929  0.49969031  0.49970704  1  -1.231485  0  -0.578117  -1.024115  0  2.541417  0
O  O193  1  0.08270058  0.31147723  0.52463838  1  -1.187983  0  -0.32597  -0.550003  0  2.333755  0
O  O194  1  0.06483458  0.50323846  0.57946499  1  -1.158124  0  -0.314234  -0.541987  0  2.363981  0
O  O195  1  0.15428323  0.50518765  0.45517835  1  -1.178581  0  -0.324477  -0.565071  0  2.32689  0
O  O196  1  0.02226049  0.36906469  0.58335523  1  -1.16752  0  -0.322839  -0.554959  0  2.320415  0
O  O197  1  0.14296814  0.39743295  0.44452323  1  -1.160609  0  -0.330901  -0.562448  0  2.339782  0
O  O198  1  0.04710650  0.60986449  0.53460377  1  -1.159509  0  -0.311851  -0.539501  0  2.362529  0
O  O199  1  0.00518893  0.65935750  0.44589717  1  -1.171956  0  -0.330126  -0.554215  0  2.335056  0
O  O200  1  0.91355802  0.50403778  0.42736261  1  -1.145087  0  -0.314209  -0.542405  0  2.356721  0
O  O201  1  0.88679102  0.66137049  0.44736380  1  -1.167522  0  -0.320404  -0.554562  0  2.316465  0
O  O202  1  0.97091681  0.38405572  0.45920383  1  -1.164652  0  -0.31214  -0.540378  0  2.354955  0
O  O203  1  0.88081392  0.52971663  0.57950250  1  -1.176958  0  -0.325623  -0.566145  0  2.328169  0
O  O204  1  0.82201909  0.56734596  0.52001710  1  -1.152101  0  -0.330962  -0.562597  0  2.343475  0
O  O205  1  0.74969258  0.25055168  0.24996168  1  -1.234147  0  -0.578028  -1.023924  0  2.541485  0
O  O206  1  0.58965114  0.36120108  0.30269373  1  -1.177315  0  -0.326883  -0.551839  0  2.334928  0
O  O207  1  0.63975385  0.20256278  0.21544703  1  -1.161096  0  -0.314283  -0.542771  0  2.357281  0
O  O208  1  0.72060783  0.36944961  0.17011276  1  -1.178578  0  -0.324248  -0.564102  0  2.329578  0
O  O209  1  0.59064765  0.24307851  0.30435319  1  -1.164422  0  -0.321345  -0.554196  0  2.318889  0
O  O210  1  0.68350124  0.42815718  0.22969085  1  -1.18695  0  -0.330811  -0.562263  0  2.339967  0
O  O211  1  0.74681056  0.18467884  0.17087701  1  -1.159976  0  -0.312706  -0.539779  0  2.359974  0
O  O212  1  0.88140134  0.22690977  0.16800045  1  -1.174377  0  -0.328801  -0.552763  0  2.33473  0
O  O213  1  0.86827156  0.27654550  0.29142298  1  -1.160692  0  -0.31553  -0.542727  0  2.364718  0
O  O214  1  0.94025386  0.16554410  0.22616640  1  -1.160932  0  -0.32168  -0.553933  0  2.321362  0
O  O215  1  0.74764707  0.33391561  0.32245301  1  -1.164221  0  -0.311408  -0.539828  0  2.356747  0
O  O216  1  0.74715324  0.09541644  0.29350435  1  -1.178951  0  -0.331522  -0.563242  0  2.340553  0
O  O217  1  0.85503791  0.10583246  0.30452475  1  -1.173613  0  -0.325434  -0.565315  0  2.329571  0
O  O218  1  0.24998573  0.75015903  0.75008932  1  -1.232468  0  -0.577997  -1.023575  0  2.540676  0
O  O219  1  0.38104201  0.72703574  0.66665663  1  -1.163266  0  -0.32189  -0.554745  0  2.320206  0
O  O220  1  0.36806179  0.77664679  0.79124373  1  -1.159492  0  -0.312783  -0.539214  0  2.363022  0
O  O221  1  0.18410515  0.92759678  0.72957828  1  -1.184528  0  -0.329166  -0.560496  0  2.33878  0
O  O222  1  0.43861683  0.66588127  0.72522361  1  -1.187534  0  -0.328043  -0.5521  0  2.333806  0
O  O223  1  0.22044907  0.86904069  0.66999857  1  -1.18316  0  -0.326108  -0.566572  0  2.328394  0
O  O224  1  0.24762456  0.83416570  0.82243941  1  -1.164358  0  -0.312087  -0.540818  0  2.359195  0
O  O225  1  0.08965240  0.86116566  0.80249777  1  -1.178707  0  -0.327699  -0.552453  0  2.334829  0
O  O226  1  0.14011701  0.70290060  0.71510316  1  -1.163294  0  -0.313039  -0.540861  0  2.353716  0
O  O227  1  0.09042814  0.74312870  0.80420727  1  -1.165917  0  -0.321299  -0.554516  0  2.319431  0
O  O228  1  0.24680472  0.68526086  0.67019866  1  -1.160211  0  -0.313865  -0.540348  0  2.359686  0
O  O229  1  0.35459317  0.60550092  0.80449558  1  -1.168092  0  -0.323694  -0.562508  0  2.326471  0
O  O230  1  0.24696568  0.59494419  0.79310102  1  -1.185436  0  -0.333375  -0.566752  0  2.340435  0
O  O231  1  0.50034758  0.99975697  0.99998838  1  -1.234676  0  -0.578009  -1.023518  0  2.539908  0
O  O232  1  0.50472024  0.15954281  0.94608787  1  -1.173172  0  -0.328195  -0.552354  0  2.335555  0
O  O233  1  0.41163251  0.00499666  0.92784523  1  -1.146371  0  -0.314467  -0.542163  0  2.362208  0
O  O234  1  0.64237777  0.89820052  0.94408388  1  -1.162505  0  -0.330303  -0.562703  0  2.339035  0
O  O235  1  0.38650156  0.16139276  0.94726627  1  -1.162279  0  -0.321945  -0.554626  0  2.319491  0
O  O236  1  0.65400989  0.00566685  0.95491848  1  -1.177172  0  -0.324718  -0.564141  0  2.327701  0
O  O237  1  0.47057864  0.88479144  0.95910705  1  -1.168004  0  -0.311028  -0.54004  0  2.354407  0
O  O238  1  0.58296673  0.81169048  0.02454489  1  -1.187428  0  -0.327426  -0.552555  0  2.333419  0
O  O239  1  0.56599120  0.00311368  0.07904503  1  -1.159003  0  -0.31378  -0.542301  0  2.358434  0
O  O240  1  0.52176635  0.86942793  0.08316703  1  -1.169135  0  -0.321691  -0.555293  0  2.318261  0
O  O241  1  0.54785610  0.11021849  0.03449363  1  -1.159729  0  -0.312209  -0.538502  0  2.361082  0
O  O242  1  0.32091307  0.07030000  0.01988190  1  -1.172194  0  -0.325235  -0.564985  0  2.330621  0
O  O243  1  0.38087118  0.03270632  0.07895133  1  -1.181489  0  -0.331722  -0.563379  0  2.34036  0
