# generated using pymatgen
data_ZnHC11Br4NO6
_symmetry_space_group_name_H-M   'P 1'
_cell_length_a   9.90587887
_cell_length_b   10.95738264
_cell_length_c   13.86991290
_cell_angle_alpha   79.44163817
_cell_angle_beta   93.17463856
_cell_angle_gamma   97.20006774
_symmetry_Int_Tables_number   1
_chemical_formula_structural   ZnHC11Br4NO6
_chemical_formula_sum   'Zn2 H2 C22 Br8 N2 O12'
_cell_volume   1467.50410333
_cell_formula_units_Z   2
loop_
 _symmetry_equiv_pos_site_id
 _symmetry_equiv_pos_as_xyz
  1  'x, y, z'
loop_
 _atom_site_type_symbol
 _atom_site_label
 _atom_site_symmetry_multiplicity
 _atom_site_fract_x
 _atom_site_fract_y
 _atom_site_fract_z
 _atom_site_occupancy
 _atom_site_pbe_bader_charge
 _atom_site_pbe_bader_spin_density
 _atom_site_pbe_cm5_charge
 _atom_site_pbe_ddec_charge
 _atom_site_pbe_ddec_spin_density
 _atom_site_pbe_ddec_sum_bond_order
 _atom_site_pbe_magmom
Zn  Zn0  1  0.64964673  0.51504703  0.52057257  1  1.308365  0  0.675832  0.893924  0  2.285885  0
Zn  Zn1  1  0.35030611  0.48487764  0.47945988  1  1.309051  0  0.675754  0.894023  0  2.285596  0
H  H2  1  0.61272185  0.75866724  0.79174812  1  0.612253  0  0.308523  0.347045  0  0.940272  0
H  H3  1  0.38733573  0.24135300  0.20833543  1  0.613345  0  0.308732  0.347368  0  0.939828  0
C  C4  1  0.49288252  0.73352896  0.49919257  1  1.634453  0  0.213292  0.605327  0  4.198173  0
C  C5  1  0.06912755  0.57323465  0.42464830  1  0.576816  0  0.119673  0.166316  0  3.93258  0
C  C6  1  0.44226564  0.45848619  0.78994680  1  0.060465  0  -0.014595  -0.100195  0  3.863534  0
C  C7  1  0.55756517  0.54146683  0.21005546  1  0.06067  0  -0.014828  -0.10062  0  3.863773  0
C  C8  1  0.44743507  0.46932179  0.97632618  1  0.107457  0  -0.006221  0.07317  0  4.04239  0
C  C9  1  0.55253320  0.53070447  0.02365405  1  0.036487  0  -0.006052  0.0731  0  4.041998  0
C  C10  1  0.55831057  0.53872725  0.12249568  1  -0.240082  0  -0.045942  -0.061518  0  4.184066  0
C  C11  1  0.44165043  0.46120639  0.87751549  1  -0.240314  0  -0.045992  -0.061646  0  4.184745  0
C  C12  1  0.50277507  0.91476496  0.58913463  1  0.018447  0  -0.005491  -0.070632  0  3.9287  0
C  C13  1  0.49741107  0.08519545  0.41087186  1  0.017421  0  -0.005303  -0.070438  0  3.927716  0
C  C14  1  0.50732596  0.04297064  0.58851610  1  -0.040478  0  -0.007039  0.061147  0  3.924841  0
C  C15  1  0.50736659  0.26642353  0.50083680  1  1.631733  0  0.212912  0.604971  0  4.199423  0
C  C16  1  0.49282908  0.95697960  0.41148262  1  -0.042003  0  -0.007261  0.061492  0  3.92468  0
C  C17  1  0.50017474  0.82027576  0.68286104  1  1.567329  0  0.228203  0.588188  0  4.128408  0
C  C18  1  0.49995095  0.17969187  0.31715958  1  1.567397  0  0.227848  0.587153  0  4.128814  0
C  C19  1  0.50577363  0.12856375  0.50046715  1  0.052746  0  -0.005346  -0.057226  0  3.919267  0
C  C20  1  0.49441544  0.87141466  0.49953562  1  0.053812  0  -0.005401  -0.057851  0  3.919487  0
C  C21  1  0.54022497  0.53299638  0.31395501  1  1.699585  0  0.219605  0.65847  0  4.247878  0
C  C22  1  0.45948072  0.46692797  0.68604354  1  1.691642  0  0.21951  0.657792  0  4.246951  0
C  C23  1  0.05618278  0.39752887  0.54706657  1  0.529948  0  0.12016  0.16997  0  3.929978  0
C  C24  1  0.94378717  0.60249835  0.45288594  1  0.528793  0  0.120338  0.170047  0  3.930215  0
C  C25  1  0.93085124  0.42684414  0.57532737  1  0.5774  0  0.119785  0.166662  0  3.932123  0
Br  Br26  1  0.12251535  0.24825525  0.60515407  1  0.101565  0  0.116431  0.047233  0  1.567034  0
Br  Br27  1  0.87742617  0.75176716  0.39478436  1  0.10156  0  0.1163  0.04711  0  1.566919  0
Br  Br28  1  0.84477090  0.33344697  0.68606276  1  0.10111  0  0.114869  0.040337  0  1.602114  0
Br  Br29  1  0.15532945  0.66678007  0.31401808  1  0.101182  0  0.114645  0.040311  0  1.602446  0
Br  Br30  1  0.70633792  0.61161020  0.94885900  1  -0.022131  0  0.072362  -0.006614  0  1.354093  0
Br  Br31  1  0.29362177  0.38848159  0.05114227  1  -0.022171  0  0.072438  -0.006607  0  1.353984  0
Br  Br32  1  0.50482047  0.10264496  0.70903283  1  -0.036418  0  0.043359  -0.024459  0  1.438192  0
Br  Br33  1  0.49529169  0.89732081  0.29096145  1  -0.036511  0  0.043546  -0.024302  0  1.438515  0
N  N34  1  0.87447332  0.52611923  0.52543076  1  -1.188677  0  -0.292287  -0.229733  0  3.424696  0
N  N35  1  0.12547672  0.47391645  0.47452742  1  -1.189073  0  -0.292077  -0.229415  0  3.424108  0
O  O36  1  0.60769030  0.69281488  0.51695966  1  -1.150899  0  -0.311432  -0.54411  0  2.382345  0
O  O37  1  0.62127911  0.82426673  0.73253649  1  -1.114755  0  -0.334944  -0.470754  0  2.262386  0
O  O38  1  0.59992256  0.25276699  0.29116752  1  -1.116173  0  -0.278741  -0.45344  0  2.067633  0
O  O39  1  0.37880191  0.17571510  0.26753936  1  -1.114486  0  -0.33497  -0.470641  0  2.262668  0
O  O40  1  0.39251695  0.30713964  0.48326089  1  -1.150636  0  -0.311365  -0.544391  0  2.382057  0
O  O41  1  0.37941552  0.67334144  0.48187405  1  -1.154739  0  -0.309183  -0.54051  0  2.385914  0
O  O42  1  0.62088218  0.32661290  0.51797525  1  -1.151575  0  -0.308866  -0.539944  0  2.385875  0
O  O43  1  0.64664121  0.53932935  0.36895390  1  -1.14489  0  -0.308848  -0.542628  0  2.336122  0
O  O44  1  0.35300425  0.46090627  0.63105298  1  -1.136583  0  -0.308856  -0.542668  0  2.335428  0
O  O45  1  0.41650885  0.51871368  0.33853734  1  -1.126268  0  -0.312135  -0.548734  0  2.335233  0
O  O46  1  0.58316389  0.48088544  0.66142027  1  -1.127084  0  -0.31205  -0.548305  0  2.335864  0
O  O47  1  0.40020304  0.74724405  0.70878496  1  -1.115084  0  -0.278893  -0.453774  0  2.068738  0
