# generated using pymatgen
data_NaEuH14C14(NO6)2
_symmetry_space_group_name_H-M   'P 1'
_cell_length_a   10.63662615
_cell_length_b   11.17274297
_cell_length_c   17.65151155
_cell_angle_alpha   89.99622824
_cell_angle_beta   89.99761828
_cell_angle_gamma   97.07309817
_symmetry_Int_Tables_number   1
_chemical_formula_structural   NaEuH14C14(NO6)2
_chemical_formula_sum   'Na4 Eu4 H56 C56 N8 O48'
_cell_volume   2081.74687846
_cell_formula_units_Z   4
loop_
 _symmetry_equiv_pos_site_id
 _symmetry_equiv_pos_as_xyz
  1  'x, y, z'
loop_
 _atom_site_type_symbol
 _atom_site_label
 _atom_site_symmetry_multiplicity
 _atom_site_fract_x
 _atom_site_fract_y
 _atom_site_fract_z
 _atom_site_occupancy
 _atom_site_pbe_bader_charge
 _atom_site_pbe_bader_spin_density
 _atom_site_pbe_cm5_charge
 _atom_site_pbe_ddec_charge
 _atom_site_pbe_ddec_spin_density
 _atom_site_pbe_ddec_sum_bond_order
 _atom_site_pbe_magmom
Na  Na0  1  0.93407982  0.38944246  0.63409523  1  0.877695  0  0.70379  0.849866  0  0.568026  0
Na  Na1  1  0.06594319  0.11053699  0.13410264  1  0.877712  0  0.703825  0.849902  0  0.567975  0
Na  Na2  1  0.06592036  0.61055784  0.36590424  1  0.877685  0  0.703787  0.849872  0  0.568019  0
Na  Na3  1  0.93405594  0.88946243  0.86589739  1  0.877716  0  0.703818  0.849909  0  0.567962  0
Eu  Eu4  1  0.90418382  0.21756157  0.81656965  1  2.167502  0  1.475941  1.986396  0  2.18457  0
Eu  Eu5  1  0.09581868  0.28244936  0.31656297  1  2.167394  0  1.476064  1.986381  0  2.184655  0
Eu  Eu6  1  0.09581555  0.78243965  0.18342981  1  2.167508  0  1.475944  1.986342  0  2.184631  0
Eu  Eu7  1  0.90418139  0.71755005  0.68343706  1  2.167303  0  1.476061  1.986453  0  2.184616  0
H  H8  1  0.44457869  0.39595884  0.84410062  1  0.116653  0  0.109009  0.11293  0  1.030939  0
H  H9  1  0.55541680  0.10404806  0.34409414  1  0.116441  0  0.109046  0.112888  0  1.030918  0
H  H10  1  0.55542162  0.60404237  0.15590054  1  0.116779  0  0.109029  0.112937  0  1.030974  0
H  H11  1  0.44458514  0.89595134  0.65590419  1  0.116463  0  0.109054  0.112915  0  1.031006  0
H  H12  1  0.30456444  0.19558460  0.84246085  1  0.080989  0  0.113453  0.112532  0  1.002424  0
H  H13  1  0.69542767  0.30442431  0.34246394  1  0.081147  0  0.11346  0.112579  0  1.002386  0
H  H14  1  0.69543480  0.80441571  0.15754031  1  0.080998  0  0.11345  0.112558  0  1.002377  0
H  H15  1  0.30457346  0.69557599  0.65753439  1  0.081171  0  0.113468  0.112608  0  1.002345  0
H  H16  1  0.40819166  0.00517177  0.83989760  1  0.130092  0  0.116092  0.132726  0  1.002874  0
H  H17  1  0.59180449  0.49483109  0.33989731  1  0.130053  0  0.116104  0.132794  0  1.002911  0
H  H18  1  0.59180852  0.99482853  0.16010243  1  0.130098  0  0.116075  0.132704  0  1.002891  0
H  H19  1  0.40819464  0.50516832  0.66010215  1  0.13005  0  0.116097  0.132787  0  1.002919  0
H  H20  1  0.31532471  0.56396411  0.86226560  1  0.129906  0  0.123817  0.136932  0  0.96693  0
H  H21  1  0.68465590  0.93604481  0.36229075  1  0.130331  0  0.123856  0.136956  0  0.966857  0
H  H22  1  0.68467478  0.43603801  0.13773443  1  0.129918  0  0.123807  0.136916  0  0.966907  0
H  H23  1  0.31534510  0.06395459  0.63770985  1  0.12998  0  0.123858  0.136961  0  0.966852  0
H  H24  1  0.32057802  0.55467435  0.00559971  1  0.095344  0  0.114112  0.11218  0  0.983144  0
H  H25  1  0.67942594  0.94532495  0.50562566  1  0.095101  0  0.114111  0.112275  0  0.983081  0
H  H26  1  0.67942160  0.44532867  0.99440089  1  0.09537  0  0.114104  0.112156  0  0.983211  0
H  H27  1  0.32057506  0.05467445  0.49437493  1  0.095095  0  0.114114  0.112271  0  0.983089  0
H  H28  1  0.15478963  0.41434199  0.07238435  1  0.118758  0  0.11597  0.116286  0  1.053578  0
H  H29  1  0.84522330  0.08565186  0.57238500  1  0.118736  0  0.115981  0.116307  0  1.053679  0
H  H30  1  0.84520974  0.58565922  0.92761511  1  0.118751  0  0.115987  0.116304  0  1.053525  0
H  H31  1  0.15477582  0.91434756  0.42761503  1  0.118745  0  0.115994  0.116351  0  1.053667  0
H  H32  1  0.12814934  0.05486189  0.82865538  1  0.646388  0  0.293597  0.388644  0  0.960216  0
H  H33  1  0.87184946  0.44514135  0.32865081  1  0.646246  0  0.293575  0.388535  0  0.960386  0
H  H34  1  0.87185060  0.94513662  0.17134522  1  0.646386  0  0.293589  0.388616  0  0.960265  0
H  H35  1  0.12814991  0.55485986  0.67134865  1  0.646243  0  0.293571  0.388513  0  0.96042  0
H  H36  1  0.09862611  0.08104129  0.91582624  1  0.643524  0  0.295662  0.396433  0  0.935209  0
H  H37  1  0.90135834  0.41896644  0.41582196  1  0.643441  0  0.295672  0.396447  0  0.935211  0
H  H38  1  0.90137408  0.91895901  0.08417492  1  0.643534  0  0.29566  0.396418  0  0.93523  0
H  H39  1  0.09864103  0.58103477  0.58417863  1  0.643462  0  0.295685  0.396439  0  0.935219  0
H  H40  1  0.74230568  0.16043648  0.67833156  1  0.682501  0  0.291356  0.38898  0  0.953155  0
H  H41  1  0.25770959  0.33955508  0.17831426  1  0.682449  0  0.291351  0.389058  0  0.953075  0
H  H42  1  0.25769439  0.83956292  0.32166847  1  0.682502  0  0.291338  0.389007  0  0.953132  0
H  H43  1  0.74228966  0.66044524  0.82168520  1  0.682385  0  0.291353  0.389046  0  0.953098  0
H  H44  1  0.71090902  0.29555243  0.68642709  1  0.652035  0  0.286601  0.385904  0  0.955986  0
H  H45  1  0.28909007  0.20443469  0.18641678  1  0.65196  0  0.286526  0.385731  0  0.95621  0
H  H46  1  0.28909128  0.70444878  0.31357351  1  0.652033  0  0.286598  0.385903  0  0.955993  0
H  H47  1  0.71090905  0.79556472  0.81358269  1  0.651957  0  0.286526  0.385711  0  0.956239  0
H  H48  1  0.00542974  0.15406851  0.66285444  1  0.657482  0  0.307476  0.402058  0  0.922452  0
H  H49  1  0.99459874  0.34590939  0.16287448  1  0.657844  0  0.307456  0.402033  0  0.922545  0
H  H50  1  0.99457032  0.84593089  0.33714446  1  0.657483  0  0.307465  0.402036  0  0.922491  0
H  H51  1  0.00540050  0.65409092  0.83712442  1  0.657837  0  0.307491  0.402078  0  0.922476  0
H  H52  1  0.92014993  0.03449553  0.69135957  1  0.641487  0  0.300538  0.389891  0  0.954412  0
H  H53  1  0.07986471  0.46550446  0.19135881  1  0.641364  0  0.300482  0.389897  0  0.954415  0
H  H54  1  0.07985014  0.96550388  0.30863990  1  0.641494  0  0.300504  0.389816  0  0.954515  0
H  H55  1  0.92013653  0.53449674  0.80864122  1  0.641373  0  0.300496  0.389905  0  0.954407  0
H  H56  1  0.85290486  0.54518723  0.51555311  1  0.632867  0  0.300743  0.390826  0  0.943408  0
H  H57  1  0.14711307  0.95478827  0.01553911  1  0.632964  0  0.300704  0.390778  0  0.943457  0
H  H58  1  0.14709451  0.45481399  0.48444692  1  0.632872  0  0.300748  0.390837  0  0.943392  0
H  H59  1  0.85288769  0.04520933  0.98446092  1  0.633014  0  0.300727  0.39079  0  0.94344  0
H  H60  1  0.75366160  0.42909634  0.51133452  1  0.604616  0  0.328126  0.400706  0  0.878385  0
H  H61  1  0.24633924  0.07089740  0.01130931  1  0.604733  0  0.328  0.400561  0  0.878579  0
H  H62  1  0.24633577  0.57090398  0.48866494  1  0.604639  0  0.328138  0.40073  0  0.878369  0
H  H63  1  0.75366282  0.92910290  0.98869072  1  0.604738  0  0.328006  0.400531  0  0.878669  0
C  C64  1  0.70560611  0.42578221  0.84015693  1  1.575736  0  0.222373  0.556261  0  4.213429  0
C  C65  1  0.29438737  0.07422876  0.34015183  1  1.57502  0  0.22235  0.555977  0  4.21339  0
C  C66  1  0.29439583  0.57421718  0.15984367  1  1.575742  0  0.222351  0.55623  0  4.21349  0
C  C67  1  0.70561319  0.92577425  0.65984764  1  1.575055  0  0.222364  0.556091  0  4.213274  0
C  C68  1  0.61490471  0.31124526  0.84444964  1  0.506051  0  0.119436  0.115122  0  3.990438  0
C  C69  1  0.38508700  0.18876163  0.34443855  1  0.506845  0  0.11939  0.1152  0  3.989981  0
C  C70  1  0.38509642  0.68875505  0.15555152  1  0.506032  0  0.119425  0.115153  0  3.990167  0
C  C71  1  0.61491212  0.81123778  0.65556091  1  0.506868  0  0.119376  0.115149  0  3.989967  0
C  C72  1  0.48360045  0.31046703  0.84513633  1  0.025191  0  -0.065663  -0.112141  0  3.909562  0
C  C73  1  0.51639214  0.18953977  0.34512964  1  0.026166  0  -0.065658  -0.11199  0  3.909162  0
C  C74  1  0.51639868  0.68953238  0.15486483  1  0.025067  0  -0.06564  -0.112068  0  3.909483  0
C  C75  1  0.48360804  0.81046054  0.65486925  1  0.026104  0  -0.065648  -0.112009  0  3.909414  0
C  C76  1  0.40735496  0.19962450  0.84432666  1  -0.039549  0  -0.061504  -0.018184  0  3.919784  0
C  C77  1  0.59263664  0.30038150  0.34432415  1  -0.04034  0  -0.06143  -0.018221  0  3.919887  0
C  C78  1  0.59264417  0.80037491  0.15567393  1  -0.039572  0  -0.061505  -0.018257  0  3.919762  0
C  C79  1  0.40736461  0.69961971  0.65567531  1  -0.040301  0  -0.06144  -0.018239  0  3.919957  0
C  C80  1  0.46406440  0.09335134  0.84306531  1  -0.01217  0  -0.063715  -0.108427  0  3.888181  0
C  C81  1  0.53592636  0.40665480  0.34306051  1  -0.012348  0  -0.063763  -0.108644  0  3.888375  0
C  C82  1  0.53593473  0.90664807  0.15693472  1  -0.012155  0  -0.063711  -0.108414  0  3.888269  0
C  C83  1  0.46407383  0.59334551  0.65693952  1  -0.012367  0  -0.063774  -0.108612  0  3.888406  0
C  C84  1  0.59606723  0.10241801  0.84215183  1  0.492054  0  0.120948  0.121377  0  3.974418  0
C  C85  1  0.40392584  0.39759093  0.34213732  1  0.49272  0  0.120892  0.121676  0  3.974242  0
C  C86  1  0.40393189  0.89758140  0.15784763  1  0.492058  0  0.120904  0.121337  0  3.974551  0
C  C87  1  0.59607528  0.60240937  0.65786328  1  0.492748  0  0.120893  0.121565  0  3.974376  0
C  C88  1  0.66827692  0.99491486  0.83538579  1  1.609039  0  0.213131  0.55842  0  4.238088  0
C  C89  1  0.33171286  0.50509349  0.33536894  1  1.609074  0  0.212934  0.55804  0  4.238165  0
C  C90  1  0.33172258  0.00508726  0.16461368  1  1.609076  0  0.213133  0.558428  0  4.238056  0
C  C91  1  0.66828695  0.49490411  0.66463166  1  1.609084  0  0.212972  0.558168  0  4.238125  0
C  C92  1  0.14185040  0.42674048  0.77080548  1  1.62402  0  0.225061  0.579053  0  4.218137  0
C  C93  1  0.85815361  0.07327391  0.27080241  1  1.624066  0  0.224952  0.578875  0  4.218036  0
C  C94  1  0.85814766  0.57325804  0.22919569  1  1.624024  0  0.225063  0.579108  0  4.218256  0
C  C95  1  0.14184764  0.92672730  0.72919819  1  1.62409  0  0.224983  0.578935  0  4.218003  0
C  C96  1  0.15491848  0.42697169  0.85594022  1  0.459268  0  0.123981  0.118098  0  3.976492  0
C  C97  1  0.84506909  0.07304473  0.35594147  1  0.460094  0  0.124093  0.118181  0  3.976218  0
C  C98  1  0.84507970  0.57302773  0.14405981  1  0.459252  0  0.123969  0.118063  0  3.976498  0
C  C99  1  0.15493110  0.92695558  0.64405856  1  0.459613  0  0.124077  0.118208  0  3.976151  0
C  C100  1  0.24752769  0.50308007  0.89455847  1  0.012363  0  -0.059728  -0.109891  0  3.895543  0
C  C101  1  0.75246262  0.99693229  0.39457138  1  0.011709  0  -0.059779  -0.109846  0  3.895533  0
C  C102  1  0.75247274  0.49692204  0.10544212  1  0.01234  0  -0.05974  -0.109867  0  3.89557  0
C  C103  1  0.24753732  0.00306621  0.60542921  1  0.012529  0  -0.059787  -0.109903  0  3.895575  0
C  C104  1  0.24856209  0.49827441  0.97343226  1  0.004256  0  -0.056256  -0.01176  0  3.916518  0
C  C105  1  0.75143517  0.00173022  0.47344630  1  0.003915  0  -0.056175  -0.011882  0  3.916295  0
C  C106  1  0.75143634  0.50172681  0.02656777  1  0.004273  0  -0.056225  -0.011719  0  3.91639  0
C  C107  1  0.24856689  0.99827008  0.52655373  1  0.003946  0  -0.05616  -0.011812  0  3.916161  0
C  C108  1  0.15630201  0.42038984  0.01100816  1  -0.026899  0  -0.067575  -0.115065  0  3.897751  0
C  C109  1  0.84369902  0.07961205  0.51101136  1  -0.026849  0  -0.067667  -0.115112  0  3.89788  0
C  C110  1  0.84369842  0.57961227  0.98899187  1  -0.026903  0  -0.067592  -0.11509  0  3.897633  0
C  C111  1  0.15629905  0.92038646  0.48898924  1  -0.026826  0  -0.067635  -0.115139  0  3.897924  0
C  C112  1  0.06554031  0.34907193  0.96822914  1  0.480265  0  0.119026  0.110638  0  3.979705  0
C  C113  1  0.93445235  0.15093784  0.46822311  1  0.480288  0  0.119071  0.11076  0  3.979839  0
C  C114  1  0.93445881  0.65092748  0.03177089  1  0.480305  0  0.119005  0.110612  0  3.979709  0
C  C115  1  0.06554690  0.84906247  0.53177635  1  0.480232  0  0.119021  0.110704  0  3.979952  0
C  C116  1  0.96295270  0.26013298  0.00332376  1  1.590018  0  0.217689  0.57169  0  4.2235  0
C  C117  1  0.03704180  0.23987255  0.50330558  1  1.590744  0  0.217623  0.571499  0  4.223504  0
C  C118  1  0.03704855  0.73986822  0.99667627  1  1.589992  0  0.217693  0.571689  0  4.223498  0
C  C119  1  0.96295945  0.76012865  0.49669332  1  1.590735  0  0.217633  0.571538  0  4.223351  0
N  N120  1  0.66905689  0.20922640  0.84312705  1  -1.242475  0  -0.385725  -0.364537  0  3.555194  0
N  N121  1  0.33093586  0.29078063  0.34310981  1  -1.243178  0  -0.385673  -0.364649  0  3.554968  0
N  N122  1  0.33094224  0.79077301  0.15687354  1  -1.242487  0  -0.385714  -0.36456  0  3.555078  0
N  N123  1  0.66906526  0.70921967  0.65689022  1  -1.243195  0  -0.385708  -0.36465  0  3.555054  0
N  N124  1  0.06684638  0.35213948  0.89231375  1  -1.242582  0  -0.387889  -0.366465  0  3.563986  0
N  N125  1  0.93314079  0.14787726  0.39230788  1  -1.242812  0  -0.388001  -0.366641  0  3.564088  0
N  N126  1  0.93315486  0.64786172  0.10768571  1  -1.242562  0  -0.387856  -0.366433  0  3.563911  0
N  N127  1  0.06685833  0.85212215  0.60769215  1  -1.242789  0  -0.388014  -0.366685  0  3.563947  0
O  O128  1  0.66251705  0.52522773  0.84277223  1  -1.174863  0  -0.297404  -0.514362  0  2.154486  0
O  O129  1  0.33747929  0.97477702  0.34276027  1  -1.174589  0  -0.297406  -0.514341  0  2.154436  0
O  O130  1  0.33748314  0.47477258  0.15722894  1  -1.174877  0  -0.297352  -0.514307  0  2.15461  0
O  O131  1  0.66252277  0.02522328  0.65723976  1  -1.174632  0  -0.297384  -0.514294  0  2.154426  0
O  O132  1  0.82366828  0.41111987  0.83367859  1  -1.18094  0  -0.369402  -0.649408  0  2.361272  0
O  O133  1  0.17632297  0.08888555  0.33368680  1  -1.180865  0  -0.369419  -0.649238  0  2.361091  0
O  O134  1  0.17633284  0.58888043  0.16632201  1  -1.180915  0  -0.369412  -0.649417  0  2.361265  0
O  O135  1  0.82367721  0.91111476  0.66631267  1  -1.180863  0  -0.369384  -0.649338  0  2.361154  0
O  O136  1  0.60960702  0.89029652  0.83776868  1  -1.171125  0  -0.307488  -0.519095  0  2.111646  0
O  O137  1  0.39038576  0.60971424  0.33775560  1  -1.171226  0  -0.307403  -0.519083  0  2.111558  0
O  O138  1  0.39039305  0.10970288  0.16223021  1  -1.171152  0  -0.307485  -0.519099  0  2.111642  0
O  O139  1  0.60961373  0.39028788  0.66224556  1  -1.171245  0  -0.307439  -0.519125  0  2.111573  0
O  O140  1  0.78902445  0.01994762  0.82700835  1  -1.208409  0  -0.461153  -0.710815  0  2.351594  0
O  O141  1  0.21096970  0.48006216  0.32698991  1  -1.208629  0  -0.461052  -0.710605  0  2.351576  0
O  O142  1  0.21097561  0.98005179  0.17299111  1  -1.208419  0  -0.46117  -0.710814  0  2.351591  0
O  O143  1  0.78903048  0.51993814  0.67301069  1  -1.208637  0  -0.461062  -0.710675  0  2.351605  0
O  O144  1  0.05008920  0.35342954  0.74403429  1  -1.20676  0  -0.451762  -0.687351  0  2.308902  0
O  O145  1  0.94991650  0.14659152  0.24403257  1  -1.206598  0  -0.451719  -0.6872  0  2.308939  0
O  O146  1  0.94990993  0.64656987  0.25596517  1  -1.206735  0  -0.451777  -0.687396  0  2.308911  0
O  O147  1  0.05008169  0.85340790  0.75596690  1  -1.206586  0  -0.451748  -0.687279  0  2.308922  0
O  O148  1  0.21670361  0.49907279  0.73288669  1  -1.17299  0  -0.299946  -0.528117  0  2.195006  0
O  O149  1  0.78331358  0.00093775  0.23288689  1  -1.173201  0  -0.299944  -0.528126  0  2.194825  0
O  O150  1  0.78329682  0.50092932  0.26711277  1  -1.173028  0  -0.299937  -0.528128  0  2.195214  0
O  O151  1  0.21668661  0.99906256  0.76711314  1  -1.173228  0  -0.299949  -0.528138  0  2.194861  0
O  O152  1  0.89082732  0.19552098  0.95635491  1  -1.183773  0  -0.365088  -0.641715  0  2.286692  0
O  O153  1  0.10916470  0.30449919  0.45633791  1  -1.183922  0  -0.36508  -0.641619  0  2.287038  0
O  O154  1  0.10917099  0.80447934  0.04364625  1  -1.183794  0  -0.3651  -0.641708  0  2.286822  0
O  O155  1  0.89083536  0.69550021  0.54366156  1  -1.183839  0  -0.365061  -0.641618  0  2.286862  0
O  O156  1  0.95676181  0.25133905  0.07419047  1  -1.199403  0  -0.375044  -0.595574  0  2.192658  0
O  O157  1  0.04323534  0.24865018  0.57417403  1  -1.199924  0  -0.37504  -0.595496  0  2.19234  0
O  O158  1  0.04323931  0.74866125  0.92580956  1  -1.199397  0  -0.375045  -0.595587  0  2.192637  0
O  O159  1  0.95676391  0.75135013  0.42582543  1  -1.199953  0  -0.375047  -0.595506  0  2.192336  0
O  O160  1  0.06493776  0.08721658  0.86369561  1  -1.308921  0  -0.672683  -0.89691  0  2.104948  0
O  O161  1  0.93506897  0.41280604  0.36369579  1  -1.308774  0  -0.672666  -0.896786  0  2.105009  0
O  O162  1  0.93506055  0.91278374  0.13630442  1  -1.308915  0  -0.672678  -0.896859  0  2.105034  0
O  O163  1  0.06493391  0.58719334  0.63630424  1  -1.308766  0  -0.67268  -0.896776  0  2.105141  0
O  O164  1  0.78037285  0.24296295  0.69479084  1  -1.361518  0  -0.677386  -0.904001  0  2.116884  0
O  O165  1  0.21963277  0.25702768  0.19477908  1  -1.361341  0  -0.67731  -0.903928  0  2.116888  0
O  O166  1  0.21962827  0.75703735  0.30520919  1  -1.361511  0  -0.67736  -0.903999  0  2.116881  0
O  O167  1  0.78036742  0.74297263  0.80522152  1  -1.361287  0  -0.67732  -0.903895  0  2.116876  0
O  O168  1  0.97850101  0.10687321  0.70855016  1  -1.286841  0  -0.631156  -0.814006  0  2.089783  0
O  O169  1  0.02150418  0.39312757  0.20855677  1  -1.287007  0  -0.631109  -0.813978  0  2.09002  0
O  O170  1  0.02149812  0.89312620  0.29145043  1  -1.286853  0  -0.631108  -0.813903  0  2.089841  0
O  O171  1  0.97849613  0.60687364  0.79144439  1  -1.287028  0  -0.63116  -0.814014  0  2.090024  0
O  O172  1  0.84402983  0.45562611  0.50700227  1  -1.236769  0  -0.581371  -0.766132  0  1.954659  0
O  O173  1  0.15597232  0.04435458  0.00699188  1  -1.237077  0  -0.581202  -0.765942  0  1.954856  0
O  O174  1  0.15596930  0.54437330  0.49299776  1  -1.236797  0  -0.581387  -0.766162  0  1.954632  0
O  O175  1  0.84402623  0.95564754  0.99300758  1  -1.237125  0  -0.581227  -0.765904  0  1.954964  0
