# generated using pymatgen
data_H8PbC12(NO3)2
_symmetry_space_group_name_H-M   'P 1'
_cell_length_a   7.58301162
_cell_length_b   20.29893784
_cell_length_c   21.52357531
_cell_angle_alpha   90.00018079
_cell_angle_beta   89.99960586
_cell_angle_gamma   90.00063337
_symmetry_Int_Tables_number   1
_chemical_formula_structural   H8PbC12(NO3)2
_chemical_formula_sum   'H64 Pb8 C96 N16 O48'
_cell_volume   3313.06113028
_cell_formula_units_Z   8
loop_
 _symmetry_equiv_pos_site_id
 _symmetry_equiv_pos_as_xyz
  1  'x, y, z'
loop_
 _atom_site_type_symbol
 _atom_site_label
 _atom_site_symmetry_multiplicity
 _atom_site_fract_x
 _atom_site_fract_y
 _atom_site_fract_z
 _atom_site_occupancy
 _atom_site_pbe_bader_charge
 _atom_site_pbe_bader_spin_density
 _atom_site_pbe_cm5_charge
 _atom_site_pbe_ddec_charge
 _atom_site_pbe_ddec_spin_density
 _atom_site_pbe_ddec_sum_bond_order
 _atom_site_pbe_magmom
H  H0  1  0.99729981  0.11981927  0.64723111  1  0.155668  0  0.133002  0.132216  0  0.986993  0
H  H1  1  0.99732141  0.38018840  0.85277171  1  0.155411  0  0.133014  0.132128  0  0.987147  0
H  H2  1  0.50268373  0.88018085  0.14723695  1  0.154569  0  0.132963  0.132115  0  0.986965  0
H  H3  1  0.50268324  0.61982667  0.35276792  1  0.15571  0  0.133001  0.132227  0  0.986882  0
H  H4  1  0.00270099  0.88017669  0.35276243  1  0.155707  0  0.132984  0.132154  0  0.986992  0
H  H5  1  0.00270840  0.61982085  0.14723345  1  0.155708  0  0.132966  0.132172  0  0.986973  0
H  H6  1  0.49731706  0.11981856  0.85276914  1  0.155863  0  0.132997  0.132147  0  0.987042  0
H  H7  1  0.49729119  0.38017421  0.64723770  1  0.15559  0  0.13302  0.132231  0  0.986966  0
H  H8  1  0.97727215  0.10780155  0.76578437  1  0.108325  0  0.115268  0.128166  0  0.983968  0
H  H9  1  0.97729111  0.39220012  0.73422081  1  0.107899  0  0.1153  0.12813  0  0.98409  0
H  H10  1  0.52271966  0.89219797  0.26578881  1  0.108141  0  0.115229  0.128144  0  0.984078  0
H  H11  1  0.52271846  0.60781062  0.23421509  1  0.107938  0  0.115289  0.128116  0  0.98404  0
H  H12  1  0.02272733  0.89219391  0.23421056  1  0.108067  0  0.115253  0.128158  0  0.983976  0
H  H13  1  0.02272815  0.60780470  0.26578295  1  0.108217  0  0.115237  0.128117  0  0.984004  0
H  H14  1  0.47728641  0.10780538  0.73421588  1  0.107983  0  0.115263  0.128137  0  0.984045  0
H  H15  1  0.47725860  0.39219174  0.76578914  1  0.10809  0  0.115255  0.128153  0  0.983966  0
H  H16  1  0.74621904  0.91719312  0.73700164  1  0.115388  0  0.115627  0.127116  0  0.979556  0
H  H17  1  0.74621392  0.58280375  0.76299495  1  0.115443  0  0.115579  0.127014  0  0.979499  0
H  H18  1  0.75380234  0.08279989  0.23700954  1  0.115501  0  0.115626  0.127082  0  0.979556  0
H  H19  1  0.75378586  0.41720610  0.26299133  1  0.115618  0  0.115617  0.127028  0  0.979512  0
H  H20  1  0.25379098  0.08280234  0.26299190  1  0.115541  0  0.115605  0.127068  0  0.979633  0
H  H21  1  0.25378424  0.41719812  0.23700370  1  0.115484  0  0.115583  0.127012  0  0.979547  0
H  H22  1  0.24620242  0.91720197  0.76299097  1  0.11563  0  0.115588  0.126966  0  0.979491  0
H  H23  1  0.24623208  0.58280069  0.73700918  1  0.11577  0  0.115501  0.126867  0  0.979591  0
H  H24  1  0.78411040  0.93523533  0.61966191  1  0.161107  0  0.132568  0.127899  0  1.017006  0
H  H25  1  0.78411699  0.56476514  0.88033459  1  0.160999  0  0.132561  0.127936  0  1.017098  0
H  H26  1  0.71589478  0.06475976  0.11967032  1  0.161187  0  0.132531  0.127881  0  1.017159  0
H  H27  1  0.71588185  0.43524460  0.38033111  1  0.161295  0  0.132549  0.127983  0  1.017075  0
H  H28  1  0.21588908  0.06476210  0.38033116  1  0.161149  0  0.132558  0.127912  0  1.017143  0
H  H29  1  0.21588776  0.43524066  0.11966500  1  0.161095  0  0.132531  0.127898  0  1.017215  0
H  H30  1  0.28410206  0.93523865  0.88033205  1  0.161123  0  0.132552  0.127897  0  1.017231  0
H  H31  1  0.28413081  0.56475776  0.61967079  1  0.161174  0  0.132581  0.128002  0  1.01715  0
H  H32  1  0.51597980  0.27371606  0.40378911  1  0.123302  0  0.119151  0.135811  0  0.975285  0
H  H33  1  0.51597679  0.22628106  0.09621421  1  0.123182  0  0.11916  0.135825  0  0.975251  0
H  H34  1  0.98404233  0.72627553  0.90380745  1  0.123833  0  0.119137  0.1359  0  0.975318  0
H  H35  1  0.98403675  0.77373219  0.59618716  1  0.123985  0  0.119074  0.135881  0  0.975339  0
H  H36  1  0.48401704  0.72627891  0.59621279  1  0.123082  0  0.119153  0.135844  0  0.975249  0
H  H37  1  0.48401609  0.77371785  0.90378723  1  0.123212  0  0.119157  0.1358  0  0.975259  0
H  H38  1  0.01596506  0.27372634  0.09619956  1  0.123571  0  0.119089  0.135818  0  0.975407  0
H  H39  1  0.01597856  0.22627805  0.40379198  1  0.123513  0  0.119142  0.135825  0  0.975258  0
H  H40  1  0.67930574  0.23972626  0.59210794  1  0.117923  0  0.117563  0.131477  0  0.977694  0
H  H41  1  0.67930564  0.26026726  0.90789473  1  0.118376  0  0.117579  0.13138  0  0.97783  0
H  H42  1  0.82065249  0.76028401  0.09212100  1  0.118157  0  0.117531  0.131365  0  0.977792  0
H  H43  1  0.82065838  0.73971794  0.40787566  1  0.118144  0  0.117575  0.131485  0  0.977805  0
H  H44  1  0.32069901  0.76026772  0.40789350  1  0.118161  0  0.117563  0.131412  0  0.977749  0
H  H45  1  0.32069515  0.73972672  0.09210857  1  0.117875  0  0.117547  0.131474  0  0.977714  0
H  H46  1  0.17934171  0.23972623  0.90788602  1  0.117947  0  0.117485  0.13128  0  0.977909  0
H  H47  1  0.17931736  0.26026915  0.59211323  1  0.118043  0  0.11754  0.13141  0  0.977756  0
H  H48  1  0.46619839  0.14916903  0.39366380  1  0.135955  0  0.139298  0.131237  0  0.962451  0
H  H49  1  0.46620409  0.35082936  0.10633592  1  0.136026  0  0.139285  0.131227  0  0.962437  0
H  H50  1  0.03379250  0.85082635  0.89367062  1  0.136205  0  0.13921  0.131139  0  0.962497  0
H  H51  1  0.03379364  0.64918331  0.60632772  1  0.136196  0  0.139197  0.131126  0  0.96245  0
H  H52  1  0.53380241  0.85082594  0.60633810  1  0.136064  0  0.139298  0.13128  0  0.962421  0
H  H53  1  0.53380857  0.64917201  0.89366320  1  0.136014  0  0.139286  0.131245  0  0.962482  0
H  H54  1  0.96619379  0.14917749  0.10633267  1  0.136111  0  0.139202  0.131048  0  0.962487  0
H  H55  1  0.96619661  0.35082743  0.39366489  1  0.136094  0  0.139269  0.131241  0  0.962415  0
H  H56  1  0.61007304  0.11750590  0.57621643  1  0.18446  0  0.137513  0.136297  0  0.994981  0
H  H57  1  0.61008543  0.38248635  0.92378269  1  0.184578  0  0.13748  0.136301  0  0.99484  0
H  H58  1  0.88986703  0.88250481  0.07621993  1  0.184488  0  0.137518  0.136272  0  0.994854  0
H  H59  1  0.88987565  0.61749989  0.42378167  1  0.184538  0  0.137537  0.136294  0  0.994903  0
H  H60  1  0.38993962  0.88248660  0.42378269  1  0.18447  0  0.137508  0.136359  0  0.994852  0
H  H61  1  0.38994438  0.61750813  0.07621828  1  0.184311  0  0.137463  0.136251  0  0.994946  0
H  H62  1  0.11011926  0.11750740  0.92378244  1  0.184753  0  0.137519  0.136252  0  0.995021  0
H  H63  1  0.11007899  0.38248917  0.57622302  1  0.184428  0  0.13745  0.136201  0  0.994986  0
Pb  Pb64  1  0.23786237  0.02101381  0.53778632  1  1.444869  0  0.618815  1.102083  0  1.893174  0
Pb  Pb65  1  0.23787024  0.47898378  0.96221604  1  1.444917  0  0.618822  1.102089  0  1.893216  0
Pb  Pb66  1  0.26213668  0.97898041  0.03778207  1  1.444907  0  0.61878  1.102072  0  1.893181  0
Pb  Pb67  1  0.26212856  0.52101773  0.46221829  1  1.444898  0  0.618855  1.10212  0  1.893096  0
Pb  Pb68  1  0.76213579  0.97898362  0.46220768  1  1.444861  0  0.618836  1.102131  0  1.893076  0
Pb  Pb69  1  0.76214111  0.52101808  0.03779144  1  1.444854  0  0.618802  1.102099  0  1.893179  0
Pb  Pb70  1  0.73787203  0.02101752  0.96221194  1  1.444946  0  0.618839  1.102125  0  1.893108  0
Pb  Pb71  1  0.73786433  0.47898069  0.53779105  1  1.444785  0  0.61882  1.102056  0  1.893125  0
C  C72  1  0.94070799  0.07750614  0.67112213  1  0.345389  0  0.037728  -0.047216  0  3.842529  0
C  C73  1  0.94072337  0.42249637  0.82887804  1  0.345815  0  0.037782  -0.046978  0  3.842561  0
C  C74  1  0.55927641  0.92249356  0.17112935  1  0.346388  0  0.037808  -0.047025  0  3.842395  0
C  C75  1  0.55927646  0.57751271  0.32887353  1  0.345267  0  0.037703  -0.047278  0  3.842312  0
C  C76  1  0.05928621  0.92249080  0.32887002  1  0.344899  0  0.037794  -0.047129  0  3.842283  0
C  C77  1  0.05929457  0.57750944  0.17112572  1  0.345143  0  0.037697  -0.047275  0  3.842351  0
C  C78  1  0.44072043  0.07750830  0.82887813  1  0.345255  0  0.037706  -0.047097  0  3.842427  0
C  C79  1  0.44070060  0.42248472  0.67112931  1  0.345376  0  0.037662  -0.047311  0  3.842426  0
C  C80  1  0.85928074  0.01146226  0.75970778  1  0.017682  0  -0.007254  -0.006718  0  3.963862  0
C  C81  1  0.85927602  0.48853547  0.74028980  1  0.017148  0  -0.007223  -0.006863  0  3.964025  0
C  C82  1  0.64072701  0.98853625  0.25971222  1  0.017971  0  -0.007145  -0.006717  0  3.964146  0
C  C83  1  0.64071497  0.51147135  0.24028999  1  0.016915  0  -0.007169  -0.006933  0  3.964307  0
C  C84  1  0.14072401  0.98853566  0.24028715  1  0.017462  0  -0.007115  -0.006794  0  3.964153  0
C  C85  1  0.14072610  0.51146492  0.25970978  1  0.017912  0  -0.007187  -0.006847  0  3.964179  0
C  C86  1  0.35926983  0.01146611  0.74028922  1  0.01777  0  -0.007104  -0.006772  0  3.964108  0
C  C87  1  0.35927660  0.48853199  0.75971284  1  0.017372  0  -0.007083  -0.006797  0  3.964236  0
C  C88  1  0.93003604  0.06933880  0.73468034  1  -0.013361  0  -0.073462  -0.118546  0  3.997727  0
C  C89  1  0.93004365  0.43065972  0.76532078  1  -0.012625  0  -0.073521  -0.118471  0  3.997557  0
C  C90  1  0.56996033  0.93065717  0.23468710  1  -0.013069  0  -0.073441  -0.118587  0  3.997599  0
C  C91  1  0.56995081  0.56934866  0.26531575  1  -0.012825  0  -0.073471  -0.118414  0  3.997625  0
C  C92  1  0.06997135  0.93065420  0.26531274  1  -0.012544  0  -0.073507  -0.1186  0  3.997538  0
C  C93  1  0.06997165  0.56934362  0.23468298  1  -0.013377  0  -0.073382  -0.118383  0  3.997377  0
C  C94  1  0.43004574  0.06934470  0.76531713  1  -0.013268  0  -0.073446  -0.118519  0  3.997366  0
C  C95  1  0.43003416  0.43065222  0.73468662  1  -0.012783  0  -0.073415  -0.118532  0  3.997513  0
C  C96  1  0.80278448  0.96248080  0.71857440  1  0.03139  0  -0.068297  -0.108486  0  3.96344  0
C  C97  1  0.80278823  0.53751532  0.78142484  1  0.031481  0  -0.068333  -0.108387  0  3.963823  0
C  C98  1  0.69721747  0.03751708  0.21858091  1  0.031198  0  -0.068463  -0.108565  0  3.964082  0
C  C99  1  0.69720461  0.46249016  0.28142010  1  0.031301  0  -0.068489  -0.108348  0  3.963842  0
C  C100  1  0.19721368  0.03751663  0.28142007  1  0.03098  0  -0.068429  -0.108507  0  3.963987  0
C  C101  1  0.19720861  0.46248507  0.21857660  1  0.031242  0  -0.068349  -0.108299  0  3.963861  0
C  C102  1  0.30278332  0.96248725  0.78142192  1  0.031081  0  -0.068448  -0.108336  0  3.963805  0
C  C103  1  0.30279224  0.53751171  0.71858041  1  0.031008  0  -0.06839  -0.108147  0  3.963942  0
C  C104  1  0.81718979  0.97138957  0.65512630  1  0.369418  0  0.050622  -0.013931  0  3.804858  0
C  C105  1  0.81719205  0.52861450  0.84487105  1  0.369374  0  0.050639  -0.01395  0  3.805069  0
C  C106  1  0.68281734  0.02860811  0.15513467  1  0.369362  0  0.050705  -0.013937  0  3.804992  0
C  C107  1  0.68279692  0.47139612  0.34486684  1  0.369433  0  0.050607  -0.014212  0  3.804632  0
C  C108  1  0.18281497  0.02860638  0.34486771  1  0.369688  0  0.050697  -0.014037  0  3.80504  0
C  C109  1  0.18281402  0.47139180  0.15513039  1  0.369466  0  0.050642  -0.014121  0  3.805038  0
C  C110  1  0.31718609  0.97139228  0.84486862  1  0.36961  0  0.050696  -0.013996  0  3.805025  0
C  C111  1  0.31720388  0.52860575  0.65513414  1  0.369506  0  0.050684  -0.014186  0  3.804918  0
C  C112  1  0.60062851  0.26540118  0.49900459  1  -0.063854  0  -0.004134  -0.002158  0  3.957755  0
C  C113  1  0.60062889  0.23459284  0.00099759  1  -0.064322  0  -0.004109  -0.002096  0  3.957667  0
C  C114  1  0.89936146  0.73460254  0.99902177  1  -0.063751  0  -0.003979  -0.00183  0  3.957416  0
C  C115  1  0.89935878  0.76540433  0.50097491  1  -0.063732  0  -0.003922  -0.001802  0  3.957425  0
C  C116  1  0.39936833  0.73459132  0.50099778  1  -0.06425  0  -0.004152  -0.002045  0  3.957486  0
C  C117  1  0.39936927  0.76540262  0.99900385  1  -0.063769  0  -0.004187  -0.002159  0  3.957767  0
C  C118  1  0.10063670  0.26540819  0.00098525  1  -0.06428  0  -0.004063  -0.001952  0  3.95722  0
C  C119  1  0.10063278  0.23459310  0.49900980  1  -0.063933  0  -0.004074  -0.002069  0  3.957357  0
C  C120  1  0.54102572  0.24015679  0.44227845  1  0.064011  0  -0.071403  -0.124124  0  3.983038  0
C  C121  1  0.54102707  0.25984142  0.05772341  1  0.064513  0  -0.07148  -0.124232  0  3.983162  0
C  C122  1  0.95898512  0.75984183  0.94229603  1  0.063739  0  -0.071463  -0.124488  0  3.983277  0
C  C123  1  0.95898721  0.74016480  0.55770051  1  0.063595  0  -0.071398  -0.124428  0  3.98333  0
C  C124  1  0.45896585  0.75983769  0.55772438  1  0.064405  0  -0.07144  -0.124268  0  3.983046  0
C  C125  1  0.45896714  0.74015847  0.94227710  1  0.064043  0  -0.071509  -0.12421  0  3.983065  0
C  C126  1  0.04102227  0.24016447  0.05771145  1  0.064246  0  -0.071439  -0.124394  0  3.983278  0
C  C127  1  0.04102413  0.25983805  0.44228188  1  0.064025  0  -0.071483  -0.124272  0  3.982932  0
C  C128  1  0.63078296  0.22129458  0.54779610  1  -0.001599  0  -0.069307  -0.112117  0  3.958442  0
C  C129  1  0.63079178  0.27869825  0.95220576  1  -0.001974  0  -0.069318  -0.111899  0  3.95852  0
C  C130  1  0.86920118  0.77871161  0.04781141  1  -0.002412  0  -0.069488  -0.112259  0  3.958695  0
C  C131  1  0.86920568  0.72129252  0.45218652  1  -0.002814  0  -0.069497  -0.112412  0  3.958797  0
C  C132  1  0.36922443  0.77869891  0.45220488  1  -0.001519  0  -0.069384  -0.112107  0  3.958591  0
C  C133  1  0.36921957  0.72129524  0.04779893  1  -0.001441  0  -0.069294  -0.112242  0  3.958439  0
C  C134  1  0.13080489  0.22129715  0.95219653  1  -0.001973  0  -0.069277  -0.11183  0  3.958549  0
C  C135  1  0.13078720  0.27870245  0.54780237  1  -0.002222  0  -0.069315  -0.112093  0  3.95854  0
C  C136  1  0.63460676  0.33809768  0.50678171  1  1.579567  0  0.191673  0.539208  0  4.286618  0
C  C137  1  0.63460742  0.16189812  0.99322153  1  1.579286  0  0.191598  0.5392  0  4.286649  0
C  C138  1  0.86539399  0.66190444  0.00679761  1  1.579882  0  0.191957  0.539596  0  4.285954  0
C  C139  1  0.86538397  0.83809918  0.49319987  1  1.579645  0  0.191912  0.539711  0  4.286074  0
C  C140  1  0.36538349  0.66189827  0.49321927  1  1.57926  0  0.191653  0.539176  0  4.286779  0
C  C141  1  0.36537755  0.83809586  0.00678037  1  1.579685  0  0.191643  0.539245  0  4.286877  0
C  C142  1  0.13460944  0.33810235  0.99320848  1  1.579968  0  0.191898  0.539446  0  4.286089  0
C  C143  1  0.13460628  0.16189924  0.50678577  1  1.57948  0  0.191701  0.539313  0  4.286349  0
C  C144  1  0.83866546  0.00361414  0.82887428  1  1.593152  0  0.188245  0.537699  0  4.287892  0
C  C145  1  0.83867417  0.49638104  0.67112382  1  1.593166  0  0.188261  0.537849  0  4.287724  0
C  C146  1  0.66133173  0.99638164  0.32887915  1  1.593194  0  0.188257  0.537856  0  4.287696  0
C  C147  1  0.66132738  0.50362309  0.17112394  1  1.593174  0  0.188209  0.537823  0  4.287707  0
C  C148  1  0.16134193  0.99638526  0.17112252  1  1.593207  0  0.188325  0.538134  0  4.287629  0
C  C149  1  0.16133191  0.50361737  0.32887623  1  1.593135  0  0.188298  0.537963  0  4.28757  0
C  C150  1  0.33866775  0.00362022  0.67112322  1  1.593194  0  0.188266  0.537886  0  4.287735  0
C  C151  1  0.33866814  0.49638124  0.82887936  1  1.593237  0  0.188234  0.537948  0  4.28775  0
C  C152  1  0.51196775  0.17336159  0.43566331  1  0.396442  0  0.049826  -0.019836  0  3.842004  0
C  C153  1  0.51196960  0.32663502  0.06433676  1  0.396502  0  0.049839  -0.01981  0  3.841965  0
C  C154  1  0.98804322  0.82663306  0.93567405  1  0.395965  0  0.049967  -0.019565  0  3.841978  0
C  C155  1  0.98803796  0.67337320  0.56432520  1  0.396653  0  0.049965  -0.019524  0  3.841809  0
C  C156  1  0.48804491  0.82663140  0.56433766  1  0.396644  0  0.049889  -0.019731  0  3.841678  0
C  C157  1  0.48804570  0.67336586  0.93566328  1  0.396551  0  0.049936  -0.019711  0  3.841973  0
C  C158  1  0.01196022  0.17337226  0.06432925  1  0.396553  0  0.049906  -0.019519  0  3.842082  0
C  C159  1  0.01195493  0.32663113  0.43566834  1  0.396645  0  0.049922  -0.019748  0  3.841944  0
C  C160  1  0.59761055  0.15486344  0.54027777  1  0.386151  0  0.054059  -0.013337  0  3.816025  0
C  C161  1  0.59761720  0.34512925  0.95972138  1  0.386049  0  0.054013  -0.013475  0  3.81623  0
C  C162  1  0.90234472  0.84514273  0.04028345  1  0.386071  0  0.054088  -0.013242  0  3.816462  0
C  C163  1  0.90235110  0.65486301  0.45971440  1  0.386096  0  0.054003  -0.013222  0  3.816586  0
C  C164  1  0.40239289  0.84512956  0.45972228  1  0.385895  0  0.054116  -0.013357  0  3.816149  0
C  C165  1  0.40239810  0.65486424  0.04027820  1  0.38618  0  0.054129  -0.013109  0  3.815978  0
C  C166  1  0.09763629  0.15486899  0.95971939  1  0.38576  0  0.054032  -0.013409  0  3.816906  0
C  C167  1  0.09761409  0.34513097  0.54028378  1  0.386265  0  0.054134  -0.013125  0  3.816625  0
N  N168  1  0.53817922  0.13196350  0.48462720  1  -0.645756  0  -0.103414  0.328058  0  3.944499  0
N  N169  1  0.53818717  0.36803174  0.01537142  1  -0.645263  0  -0.103206  0.328098  0  3.944199  0
N  N170  1  0.96179256  0.86803771  0.98463302  1  -0.645172  0  -0.103325  0.328112  0  3.944722  0
N  N171  1  0.96179100  0.63196893  0.51536536  1  -0.644503  0  -0.103262  0.328005  0  3.944382  0
N  N172  1  0.46182817  0.86802802  0.51537331  1  -0.644657  0  -0.103416  0.327934  0  3.943968  0
N  N173  1  0.46183341  0.63196816  0.98462724  1  -0.645952  0  -0.103406  0.327882  0  3.944547  0
N  N174  1  0.03818977  0.13197056  0.01536842  1  -0.644429  0  -0.103265  0.328065  0  3.944455  0
N  N175  1  0.03817815  0.36802850  0.48463422  1  -0.644586  0  -0.103435  0.32789  0  3.944481  0
N  N176  1  0.88375403  0.02878666  0.63223407  1  -0.621406  0  -0.104809  0.341546  0  3.955106  0
N  N177  1  0.88376481  0.47121758  0.86776438  1  -0.621253  0  -0.104793  0.34134  0  3.954908  0
N  N178  1  0.61623772  0.97121045  0.13224130  1  -0.620558  0  -0.104768  0.341617  0  3.954677  0
N  N179  1  0.61623164  0.52879705  0.36776190  1  -0.621003  0  -0.104564  0.341836  0  3.954271  0
N  N180  1  0.11624677  0.97121028  0.36775854  1  -0.620232  0  -0.10476  0.341809  0  3.954497  0
N  N181  1  0.11625181  0.52879167  0.13223613  1  -0.621286  0  -0.1048  0.341656  0  3.954693  0
N  N182  1  0.38375781  0.02878846  0.86776293  1  -0.62131  0  -0.104796  0.341564  0  3.954902  0
N  N183  1  0.38375729  0.47120383  0.63224232  1  -0.620439  0  -0.104827  0.341674  0  3.954252  0
O  O184  1  0.60563245  0.37573745  0.46110026  1  -1.171357  0  -0.319315  -0.579149  0  2.157234  0
O  O185  1  0.60563285  0.12425857  0.03890330  1  -1.171539  0  -0.319201  -0.579064  0  2.157105  0
O  O186  1  0.89438857  0.62426123  0.96111480  1  -1.171318  0  -0.319495  -0.579403  0  2.156729  0
O  O187  1  0.89436861  0.87574168  0.53888329  1  -1.171208  0  -0.319407  -0.579438  0  2.157014  0
O  O188  1  0.39435120  0.62425604  0.53890117  1  -1.171416  0  -0.319216  -0.579131  0  2.157233  0
O  O189  1  0.39434158  0.87573738  0.96109814  1  -1.171561  0  -0.319204  -0.579096  0  2.157433  0
O  O190  1  0.10563728  0.37574458  0.03889268  1  -1.171461  0  -0.319354  -0.579271  0  2.156861  0
O  O191  1  0.10563087  0.12425624  0.46110328  1  -1.171243  0  -0.319276  -0.57918  0  2.157047  0
O  O192  1  0.50098469  0.06864729  0.47798560  1  -0.655096  0  -0.20228  -0.504142  0  2.097864  0
O  O193  1  0.50099568  0.43135026  0.02201172  1  -0.655586  0  -0.202384  -0.504189  0  2.09772  0
O  O194  1  0.99900436  0.93135242  0.97799012  1  -0.655287  0  -0.202322  -0.504205  0  2.097788  0
O  O195  1  0.99899423  0.56865142  0.52200956  1  -0.656195  0  -0.202411  -0.504221  0  2.097612  0
O  O196  1  0.49902666  0.93134669  0.52201398  1  -0.656143  0  -0.202278  -0.504103  0  2.097583  0
O  O197  1  0.49903676  0.56865013  0.97798647  1  -0.654956  0  -0.202263  -0.504017  0  2.09767  0
O  O198  1  0.00098852  0.06865289  0.02200992  1  -0.65625  0  -0.202343  -0.504177  0  2.097536  0
O  O199  1  0.00097756  0.43134651  0.47799280  1  -0.656112  0  -0.202254  -0.504073  0  2.097528  0
O  O200  1  0.69542009  0.35630722  0.55958098  1  -1.158811  0  -0.313464  -0.56968  0  2.195635  0
O  O201  1  0.69543179  0.14368884  0.94042444  1  -1.158515  0  -0.31352  -0.569779  0  2.195877  0
O  O202  1  0.80459284  0.64369014  0.05959418  1  -1.159215  0  -0.313566  -0.569879  0  2.195646  0
O  O203  1  0.80458305  0.85631125  0.44040438  1  -1.159181  0  -0.313654  -0.569972  0  2.195607  0
O  O204  1  0.30455434  0.64368972  0.44042557  1  -1.15862  0  -0.313529  -0.569704  0  2.196045  0
O  O205  1  0.30456505  0.85630564  0.05957886  1  -1.158795  0  -0.313514  -0.56974  0  2.195722  0
O  O206  1  0.19542642  0.35631222  0.94041330  1  -1.159248  0  -0.313643  -0.569839  0  2.195633  0
O  O207  1  0.19542171  0.14368766  0.55958034  1  -1.159  0  -0.313554  -0.569787  0  2.195725  0
O  O208  1  0.89756192  0.03771907  0.57174086  1  -0.658522  0  -0.21445  -0.530804  0  2.053552  0
O  O209  1  0.89758183  0.46228719  0.92826081  1  -0.658483  0  -0.21445  -0.530695  0  2.05338  0
O  O210  1  0.60243890  0.96227734  0.07174577  1  -0.659357  0  -0.21446  -0.530808  0  2.053399  0
O  O211  1  0.60243456  0.53772763  0.42825699  1  -0.658461  0  -0.214502  -0.530852  0  2.053385  0
O  O212  1  0.10244811  0.96227442  0.42825314  1  -0.659383  0  -0.214499  -0.530854  0  2.053269  0
O  O213  1  0.10244403  0.53772354  0.07174110  1  -0.658414  0  -0.214421  -0.530767  0  2.053446  0
O  O214  1  0.39755926  0.03772107  0.92825799  1  -0.658512  0  -0.214455  -0.530837  0  2.053502  0
O  O215  1  0.39755569  0.46227127  0.57174537  1  -0.659374  0  -0.214425  -0.530738  0  2.053172  0
O  O216  1  0.74539829  0.95626973  0.84869550  1  -1.169817  0  -0.33047  -0.579936  0  2.115817  0
O  O217  1  0.74537834  0.54372122  0.65130388  1  -1.169655  0  -0.330377  -0.579907  0  2.115697  0
O  O218  1  0.75463809  0.04372168  0.34869911  1  -1.169777  0  -0.330434  -0.579955  0  2.115711  0
O  O219  1  0.75463414  0.45628334  0.15130455  1  -1.169491  0  -0.330368  -0.57983  0  2.115616  0
O  O220  1  0.25461174  0.04373115  0.15130082  1  -1.169956  0  -0.330566  -0.580157  0  2.115695  0
O  O221  1  0.25460663  0.45627227  0.34869710  1  -1.169707  0  -0.33041  -0.579929  0  2.11558  0
O  O222  1  0.24537721  0.95627772  0.65130280  1  -1.169715  0  -0.330401  -0.579945  0  2.115728  0
O  O223  1  0.24538512  0.54372444  0.84869921  1  -1.169776  0  -0.330437  -0.580031  0  2.115746  0
O  O224  1  0.91169349  0.04747181  0.86316874  1  -1.170663  0  -0.318911  -0.568631  0  2.160655  0
O  O225  1  0.91170816  0.45252712  0.63683010  1  -1.170828  0  -0.319001  -0.56874  0  2.160725  0
O  O226  1  0.58828459  0.95253541  0.36317273  1  -1.170857  0  -0.318971  -0.56872  0  2.160753  0
O  O227  1  0.58829668  0.54747345  0.13682728  1  -1.171011  0  -0.318982  -0.568798  0  2.160933  0
O  O228  1  0.08832445  0.95252808  0.13682573  1  -1.170798  0  -0.318915  -0.568767  0  2.160654  0
O  O229  1  0.08830318  0.54747228  0.36317087  1  -1.170826  0  -0.319  -0.568817  0  2.160632  0
O  O230  1  0.41169379  0.04747582  0.63682917  1  -1.170941  0  -0.31899  -0.568772  0  2.16073  0
O  O231  1  0.41168565  0.45252644  0.86317183  1  -1.171021  0  -0.318952  -0.568756  0  2.160791  0
