# generated using pymatgen
data_Zn2H40(C9N2)5
_symmetry_space_group_name_H-M   'P 1'
_cell_length_a   19.95648656
_cell_length_b   20.07020087
_cell_length_c   20.46812456
_cell_angle_alpha   108.39182670
_cell_angle_beta   106.56215209
_cell_angle_gamma   112.19775574
_symmetry_Int_Tables_number   1
_chemical_formula_structural   Zn2H40(C9N2)5
_chemical_formula_sum   'Zn4 H80 C90 N20'
_cell_volume   6395.05172145
_cell_formula_units_Z   2
loop_
 _symmetry_equiv_pos_site_id
 _symmetry_equiv_pos_as_xyz
  1  'x, y, z'
loop_
 _atom_site_type_symbol
 _atom_site_label
 _atom_site_symmetry_multiplicity
 _atom_site_fract_x
 _atom_site_fract_y
 _atom_site_fract_z
 _atom_site_occupancy
 _atom_site_pbe_bader_charge
 _atom_site_pbe_bader_spin_density
 _atom_site_pbe_cm5_charge
 _atom_site_pbe_ddec_charge
 _atom_site_pbe_ddec_spin_density
 _atom_site_pbe_ddec_sum_bond_order
 _atom_site_pbe_magmom
Zn  Zn0  1  0.60776099  0.60593213  0.50605863  1  1.190247  0  0.748432  0.609011  0  2.476705  0
Zn  Zn1  1  0.39125110  0.39714599  0.49245514  1  1.180643  0  0.735798  0.620625  0  2.430399  0
Zn  Zn2  1  0.51110687  0.59376452  0.61220841  1  1.19052  0  0.748467  0.628585  0  2.428475  0
Zn  Zn3  1  0.49567933  0.40829953  0.39506063  1  1.185487  0  0.739628  0.620835  0  2.442573  0
H  H4  1  0.76529011  0.61389086  0.61407412  1  0.111306  0  0.116307  0.098987  0  1.015124  0
H  H5  1  0.50284871  0.02873914  0.45647047  1  0.038997  0  0.096387  0.086486  0  0.995676  0
H  H6  1  0.45679374  0.97088350  0.55568354  1  0.073991  0  0.097165  0.084658  0  0.995522  0
H  H7  1  0.53770131  0.13543944  0.67394000  1  0.048136  0  0.09745  0.0839  0  0.994139  0
H  H8  1  0.40212294  0.60494908  0.82509096  1  0.027463  0  0.097533  0.095557  0  1.008364  0
H  H9  1  0.47763636  0.59921388  0.76408094  1  0.056771  0  0.116813  0.102819  0  1.003118  0
H  H10  1  0.37754053  0.60932060  0.93808611  1  0.083046  0  0.103015  0.102839  0  1.020601  0
H  H11  1  0.43686978  0.66805300  0.14799815  1  0.069759  0  0.104152  0.105475  0  0.998843  0
H  H12  1  0.47504787  0.66934484  0.27552711  1  0.030437  0  0.098926  0.100378  0  1.000903  0
H  H13  1  0.26345343  0.34083740  0.70996996  1  0.075012  0  0.098676  0.100451  0  0.999683  0
H  H14  1  0.25501200  0.41280310  0.03292820  1  0.093235  0  0.103451  0.104138  0  1.015835  0
H  H15  1  0.25466104  0.39707031  0.36487388  1  0.093798  0  0.118363  0.110569  0  1.006286  0
H  H16  1  0.09168085  0.97770754  0.01738921  1  0.080936  0  0.103107  0.105087  0  1.014592  0
H  H17  1  0.61988356  0.38356335  0.31626419  1  0.123007  0  0.122749  0.1121  0  0.988002  0
H  H18  1  0.88058989  0.65097490  0.72116760  1  0.067496  0  0.097714  0.10099  0  1.02721  0
H  H19  1  0.21238136  0.05245321  0.29566333  1  0.042816  0  0.09692  0.099987  0  1.035473  0
H  H20  1  0.75231439  0.66411758  0.85792313  1  0.054152  0  0.098432  0.100404  0  1.004885  0
H  H21  1  0.77338087  0.64213651  0.48040289  1  0.1057  0  0.121186  0.111879  0  0.988216  0
H  H22  1  0.62994501  0.58564559  0.74557088  1  0.078272  0  0.118132  0.104695  0  1.004036  0
H  H23  1  0.50822086  0.66314973  0.39786984  1  0.085849  0  0.115997  0.102014  0  1.011172  0
H  H24  1  0.46345934  0.20198285  0.28916220  1  0.008974  0  0.085082  0.113156  0  1.015532  0
H  H25  1  0.37028671  0.11200745  0.21472815  1  0.035259  0  0.090512  0.123754  0  0.999138  0
H  H26  1  0.54944016  0.78736578  0.68571396  1  0.093402  0  0.122201  0.112417  0  0.993468  0
H  H27  1  0.44395611  0.16708345  0.19041203  1  0.015359  0  0.086322  0.112422  0  1.001593  0
H  H28  1  0.33018154  0.19576835  0.16135336  1  0.07337  0  0.095702  0.0934  0  0.984995  0
H  H29  1  0.42254002  0.28568893  0.23403861  1  0.003014  0  0.090706  0.079106  0  0.992214  0
H  H30  1  0.14123569  0.25956181  0.32105283  1  0.01744  0  0.085386  0.11117  0  1.01513  0
H  H31  1  0.10048035  0.15437981  0.25868214  1  0.023842  0  0.089092  0.120978  0  1.003808  0
H  H32  1  0.08170997  0.18358147  0.34012358  1  0.028027  0  0.086933  0.114194  0  0.997209  0
H  H33  1  0.18897077  0.14701557  0.36981285  1  0.030244  0  0.09493  0.091142  0  0.987146  0
H  H34  1  0.23113210  0.25213299  0.43012955  1  0.018719  0  0.089085  0.075241  0  1.00197  0
H  H35  1  0.41818356  0.74413740  0.54507900  1  0.020645  0  0.084229  0.115511  0  1.02074  0
H  H36  1  0.31055361  0.69635472  0.50952529  1  0.03274  0  0.087077  0.119373  0  1.011045  0
H  H37  1  0.66122378  0.79236965  0.53334249  1  0.083194  0  0.120967  0.110453  0  0.987843  0
H  H38  1  0.37693453  0.77220312  0.60826403  1  0.000294  0  0.08443  0.110833  0  1.001185  0
H  H39  1  0.31776112  0.63390287  0.59836321  1  0.054086  0  0.099096  0.099302  0  0.959519  0
H  H40  1  0.42373185  0.67845766  0.63275565  1  0.011583  0  0.086939  0.06869  0  1.021209  0
H  H41  1  0.08310778  0.63454272  0.37618786  1  0.046557  0  0.097223  0.084015  0  0.996376  0
H  H42  1  0.33284937  0.23513168  0.50897038  1  0.00314  0  0.078153  0.098015  0  1.048774  0
H  H43  1  0.38628798  0.18462508  0.52771209  1  0.029584  0  0.087741  0.118692  0  1.001943  0
H  H44  1  0.34540152  0.21657980  0.58998189  1  0.038936  0  0.084155  0.110205  0  1.003444  0
H  H45  1  0.49671404  0.31161865  0.65199672  1  0.060233  0  0.098141  0.100694  0  0.968702  0
H  H46  1  0.44522328  0.36423338  0.63557549  1  0.057993  0  0.092058  0.092498  0  1.01862  0
H  H47  1  0.92436740  0.50135319  0.26329721  1  0.065428  0  0.097518  0.084677  0  0.995191  0
H  H48  1  0.36673420  0.39886315  0.25556218  1  0.080362  0  0.117501  0.104035  0  1.009799  0
H  H49  1  0.95289349  0.31234866  0.37693439  1  0.032233  0  0.084844  0.108393  0  1.009034  0
H  H50  1  0.00186552  0.37878076  0.47814211  1  0.017243  0  0.08586  0.110533  0  1.006681  0
H  H51  1  0.90442430  0.28944060  0.43395291  1  0.018095  0  0.085195  0.109646  0  1.005638  0
H  H52  1  0.88963196  0.41312030  0.46037578  1  0.036085  0  0.09137  0.084946  0  0.981741  0
H  H53  1  0.84189364  0.34761257  0.35965501  1  0.02719  0  0.090511  0.083861  0  0.975623  0
H  H54  1  0.68277423  0.13107645  0.72933915  1  0.063663  0  0.09779  0.085292  0  0.995636  0
H  H55  1  0.62160761  0.05324255  0.41159501  1  0.038772  0  0.084956  0.109093  0  1.006933  0
H  H56  1  0.72198142  0.12379705  0.48840937  1  0.008093  0  0.085165  0.109363  0  1.007213  0
H  H57  1  0.70064644  0.03179981  0.41453540  1  0.008559  0  0.085478  0.109716  0  1.005079  0
H  H58  1  0.71221127  0.01902520  0.53531148  1  0.028435  0  0.090941  0.084669  0  0.975845  0
H  H59  1  0.02858219  0.65013296  0.49109250  1  0.043647  0  0.096136  0.082637  0  0.996398  0
H  H60  1  0.61244225  0.94895505  0.45895999  1  0.023801  0  0.090224  0.08353  0  0.976317  0
H  H61  1  0.23616421  0.34674234  0.82269624  1  0.090836  0  0.104128  0.105943  0  0.997853  0
H  H62  1  0.28934621  0.41360965  0.15981171  1  0.035715  0  0.099861  0.100526  0  1.000304  0
H  H63  1  0.19097796  0.12411487  0.11726948  1  0.055636  0  0.097999  0.098512  0  1.006518  0
H  H64  1  0.99637098  0.68746170  0.71567886  1  0.037474  0  0.082653  0.104592  0  1.01481  0
H  H65  1  0.00946464  0.78678938  0.74687472  1  0.024535  0  0.083946  0.10931  0  1.003681  0
H  H66  1  0.09567943  0.77488230  0.76838758  1  0.011618  0  0.086575  0.112415  0  1.002459  0
H  H67  1  0.08067429  0.81849404  0.88817365  1  0.059306  0  0.093637  0.083786  0  1.013991  0
H  H68  1  0.06047152  0.71815753  0.85496468  1  0.02564  0  0.097292  0.095901  0  0.956412  0
H  H69  1  0.88488785  0.76236854  0.97675273  1  0.067221  0  0.103293  0.10357  0  1.016081  0
H  H70  1  0.07404234  0.54098030  0.52162654  1  0.057373  0  0.096458  0.086552  0  0.994286  0
H  H71  1  0.19761208  0.95041196  0.32312517  1  0.030387  0  0.084039  0.107199  0  1.009491  0
H  H72  1  0.10674135  0.95237578  0.31104189  1  0.029412  0  0.083751  0.107796  0  1.006116  0
H  H73  1  0.10828146  0.86138082  0.29827431  1  0.041888  0  0.087343  0.113823  0  1.000585  0
H  H74  1  0.03811296  0.84478805  0.16781815  1  0.061062  0  0.094829  0.088  0  0.988279  0
H  H75  1  0.12980543  0.84841816  0.18139519  1  0.035792  0  0.096987  0.095236  0  0.958836  0
H  H76  1  0.28317860  0.35177930  0.59216136  1  0.068126  0  0.118905  0.106686  0  0.99941  0
H  H77  1  0.72795859  0.45728509  0.53134221  1  0.017465  0  0.082457  0.112209  0  1.021571  0
H  H78  1  0.73073535  0.38457620  0.56242269  1  0.024174  0  0.087615  0.117502  0  1.002175  0
H  H79  1  0.74958465  0.38381067  0.48215998  1  0.021231  0  0.084851  0.111316  0  1.011633  0
H  H80  1  0.60820471  0.27063396  0.43709895  1  0.02648  0  0.096011  0.095245  0  0.97308  0
H  H81  1  0.96944138  0.39192506  0.29342155  1  0.055591  0  0.097167  0.087827  0  0.994546  0
H  H82  1  0.60523419  0.34134091  0.40404513  1  0.020667  0  0.086124  0.069925  0  1.046264  0
H  H83  1  0.72912183  0.18885211  0.63031604  1  0.057611  0  0.096646  0.08691  0  0.995076  0
C  C84  1  0.72074288  0.60233900  0.63587097  1  0.401233  0  0.013006  -0.038111  0  3.950091  0
C  C85  1  0.63294691  0.77816604  0.56908940  1  0.41577  0  0.012419  -0.056534  0  3.975673  0
C  C86  1  0.40714235  0.46224805  0.30046970  1  0.449919  0  0.011891  -0.043611  0  3.965345  0
C  C87  1  0.49836002  0.33898208  0.56083809  1  0.446851  0  0.09853  0.174852  0  3.948705  0
C  C88  1  0.35185249  0.57890275  0.51852121  1  0.466742  0  0.101552  0.171955  0  3.916432  0
C  C89  1  0.41952643  0.53484623  0.29718259  1  0.012076  0  -0.034408  -0.043396  0  4.068507  0
C  C90  1  0.27869994  0.51792484  0.44927192  1  0.111237  0  -0.032641  -0.020667  0  4.181899  0
C  C91  1  0.60702986  0.82275971  0.61304000  1  0.173388  0  -0.031331  0.043581  0  4.215487  0
C  C92  1  0.26809194  0.18305064  0.27322752  1  0.045285  0  -0.041764  -0.166721  0  4.03464  0
C  C93  1  0.03992491  0.53213663  0.46416896  1  -0.056645  0  -0.076352  -0.116683  0  3.625583  0
C  C94  1  0.01630119  0.59284041  0.44734745  1  -0.014591  0  -0.075376  -0.076554  0  3.657222  0
C  C95  1  0.54929309  0.31217939  0.54115568  1  0.115675  0  -0.03715  -0.088858  0  4.167586  0
C  C96  1  0.79306494  0.51406372  0.38240519  1  0.004424  0  -0.070175  -0.129116  0  4.229019  0
C  C97  1  0.20576283  0.51881241  0.42523167  1  -0.377688  0  -0.063962  -0.10104  0  4.233459  0
C  C98  1  0.95291562  0.45751077  0.40154498  1  0.038646  0  0.002387  0.090114  0  3.627354  0
C  C99  1  0.43456787  0.53988004  0.71297412  1  0.424268  0  0.006177  -0.058895  0  4.021907  0
C  C100  1  0.92746124  0.51902439  0.38457852  1  0.123137  0  0.001514  0.099568  0  3.80468  0
C  C101  1  0.98195661  0.44928338  0.33734084  1  -0.04115  0  -0.076136  -0.116642  0  3.62793  0
C  C102  1  0.07072652  0.52294608  0.40030212  1  0.108504  0  0.003136  0.141415  0  3.817352  0
C  C103  1  0.95815593  0.51010385  0.32073347  1  -0.047861  0  -0.074823  -0.076957  0  3.653608  0
C  C104  1  0.04530537  0.58406785  0.38336123  1  -0.006639  0  -0.074421  -0.081717  0  3.637549  0
C  C105  1  0.85452189  0.51678274  0.38018768  1  -0.379128  0  -0.063114  -0.13139  0  4.166115  0
C  C106  1  0.36509645  0.47354406  0.70182139  1  -0.01507  0  -0.038476  -0.048181  0  4.095708  0
C  C107  1  0.14391188  0.52258844  0.41109510  1  -0.009516  0  -0.066307  -0.151618  0  4.145792  0
C  C108  1  0.64284690  0.10898568  0.66866452  1  -0.031663  0  -0.074802  -0.078989  0  3.659479  0
C  C109  1  0.66857652  0.14000878  0.61380946  1  -0.043927  0  -0.075859  -0.119212  0  3.620012  0
C  C110  1  0.56874042  0.25780887  0.55948205  1  -0.493842  0  -0.060177  -0.085426  0  4.247378  0
C  C111  1  0.64608144  0.44651053  0.35911386  1  0.370601  0  0.016093  -0.046979  0  3.964698  0
C  C112  1  0.60686207  0.89364139  0.61573816  1  -0.09317  0  -0.070168  -0.130534  0  4.228514  0
C  C113  1  0.56225806  0.11010284  0.63806582  1  -0.008392  0  -0.073974  -0.07692  0  3.641912  0
C  C114  1  0.58785154  0.14281138  0.58290213  1  0.125518  0  0.002606  0.140714  0  3.821547  0
C  C115  1  0.51717264  0.01992164  0.57213544  1  -0.047288  0  -0.075407  -0.079135  0  3.655963  0
C  C116  1  0.59794169  0.01715231  0.60324832  1  0.12676  0  0.001097  0.095849  0  3.802865  0
C  C117  1  0.72571073  0.51319037  0.39195601  1  0.112872  0  -0.030757  0.044807  0  4.215963  0
C  C118  1  0.54280296  0.05078306  0.51721333  1  -0.021028  0  -0.076471  -0.120854  0  3.62228  0
C  C119  1  0.62364783  0.04954156  0.54747654  1  0.018201  0  0.001855  0.105668  0  3.600029  0
C  C120  1  0.58024676  0.20638050  0.57195577  1  0.069075  0  -0.068851  -0.16248  0  4.145586  0
C  C121  1  0.60334302  0.95177269  0.61173522  1  -0.335072  0  -0.06058  -0.127615  0  4.162004  0
C  C122  1  0.38735684  0.54055627  0.22694719  1  -0.035127  0  -0.002208  0.098932  0  4.023279  0
C  C123  1  0.33586569  0.41356022  0.62572857  1  0.471428  0  0.010775  -0.049857  0  3.974255  0
C  C124  1  0.32243678  0.46958027  0.15754754  1  -0.076539  0  -0.093164  -0.128542  0  3.984962  0
C  C125  1  0.30225154  0.46863801  0.08663533  1  0.036511  0  -0.086514  -0.132832  0  3.973341  0
C  C126  1  0.34588643  0.54006495  0.08279583  1  0.362033  0  0.07872  0.160567  0  4.070302  0
C  C127  1  0.40477490  0.61308526  0.15210660  1  -0.068774  0  -0.08426  -0.136307  0  3.98535  0
C  C128  1  0.47995363  0.59709664  0.37280983  1  0.399977  0  0.010363  -0.04248  0  3.943289  0
C  C129  1  0.42550822  0.61325652  0.22298485  1  0.055017  0  -0.097049  -0.136408  0  3.993614  0
C  C130  1  0.35227047  0.55113594  0.88744260  1  -0.019563  0  -0.08861  -0.134538  0  3.977997  0
C  C131  1  0.36649157  0.54791193  0.82462570  1  -0.079723  0  -0.095716  -0.130243  0  3.997499  0
C  C132  1  0.30680682  0.47798489  0.88785455  1  0.368335  0  0.079099  0.164549  0  4.0597  0
C  C133  1  0.33750068  0.47251782  0.76039538  1  -0.002092  0  -0.007017  0.092936  0  4.037109  0
C  C134  1  0.28747721  0.39996034  0.75907936  1  -0.093713  0  -0.098191  -0.138688  0  3.999233  0
C  C135  1  0.72459540  0.57867276  0.44293833  1  0.406601  0  0.011968  -0.060565  0  3.976797  0
C  C136  1  0.27207914  0.40274386  0.82178627  1  0.006097  0  -0.085598  -0.138093  0  3.980661  0
C  C137  1  0.80696785  0.65236237  0.78023310  1  0.052953  0  -0.00437  0.101237  0  4.049921  0
C  C138  1  0.80905672  0.68080678  0.85373068  1  -0.075977  0  -0.098454  -0.140272  0  4.012174  0
C  C139  1  0.29440048  0.45580813  0.41716064  1  0.40782  0  0.012136  -0.044307  0  3.959006  0
C  C140  1  0.88255620  0.73540937  0.92023969  1  0.030879  0  -0.088915  -0.133789  0  4.004105  0
C  C141  1  0.95655597  0.76342910  0.91580225  1  0.319264  0  0.079839  0.099491  0  4.044381  0
C  C142  1  0.95664695  0.73001143  0.84346568  1  -0.007032  0  0.001933  0.078403  0  3.907245  0
C  C143  1  0.88165090  0.67491317  0.77745690  1  -0.071789  0  -0.099332  -0.199915  0  3.954315  0
C  C144  1  0.11993875  0.99526974  0.07876708  1  -0.069986  0  -0.092755  -0.14494  0  4.016672  0
C  C145  1  0.17520717  0.07633920  0.13445041  1  -0.014567  0  -0.101098  -0.147564  0  4.027479  0
C  C146  1  0.09581815  0.93353189  0.10045027  1  0.353831  0  0.079435  0.103364  0  4.048403  0
C  C147  1  0.56898589  0.34463359  0.49283035  1  0.438646  0  0.097787  0.170874  0  3.956538  0
C  C148  1  0.20866779  0.09796092  0.21356632  1  -0.005851  0  -0.00803  0.115399  0  4.055177  0
C  C149  1  0.18449220  0.03552740  0.23442337  1  -0.042163  0  -0.099813  -0.205066  0  3.959355  0
C  C150  1  0.57583064  0.77548819  0.64694035  1  0.397303  0  0.014524  -0.04809  0  3.965758  0
C  C151  1  0.12841855  0.95354798  0.17979908  1  -0.048951  0  -0.002217  0.069305  0  3.913733  0
C  C152  1  0.65203773  0.58874696  0.70326548  1  0.423468  0  0.011213  -0.042962  0  3.950323  0
C  C153  1  0.73060072  0.61153315  0.70977896  1  -0.011019  0  -0.033578  -0.039368  0  4.055498  0
C  C154  1  0.37660914  0.22499507  0.22171769  1  -0.022464  0  -0.156352  -0.151935  0  4.005457  0
C  C155  1  0.41603147  0.17352838  0.22942284  1  -0.024848  0  -0.242053  -0.347492  0  3.953111  0
C  C156  1  0.20504195  0.20568707  0.36944896  1  0.026511  0  -0.155472  -0.15122  0  4.00487  0
C  C157  1  0.12752185  0.20045882  0.31939930  1  -0.051755  0  -0.240954  -0.344725  0  3.949378  0
C  C158  1  0.36663022  0.65379339  0.58138989  1  0.00149  0  -0.153793  -0.146948  0  4.001453  0
C  C159  1  0.36831839  0.72062369  0.55967114  1  -0.018644  0  -0.244239  -0.351035  0  3.957984  0
C  C160  1  0.45600062  0.31603625  0.60649067  1  -0.015806  0  -0.160367  -0.16407  0  3.990806  0
C  C161  1  0.33989932  0.23740086  0.27559631  1  0.419552  0  0.087934  0.153222  0  4.003879  0
C  C162  1  0.37531746  0.23333050  0.55543204  1  -0.057383  0  -0.242383  -0.342936  0  3.956728  0
C  C163  1  0.90180858  0.38822873  0.41167134  1  -0.007189  0  -0.160622  -0.145675  0  4.016686  0
C  C164  1  0.94239687  0.33944824  0.42600000  1  -0.063263  0  -0.243199  -0.34655  0  3.985252  0
C  C165  1  0.65700102  0.01489011  0.49787302  1  -0.008467  0  -0.160829  -0.150219  0  4.017424  0
C  C166  1  0.67641900  0.05827120  0.45046178  1  -0.043614  0  -0.243154  -0.34707  0  3.98719  0
C  C167  1  0.03667223  0.75579287  0.84030982  1  0.010362  0  -0.160403  -0.141083  0  3.984066  0
C  C168  1  0.03401466  0.75067179  0.76345932  1  -0.072659  0  -0.2438  -0.345556  0  3.992656  0
C  C169  1  0.10464336  0.88634273  0.20207265  1  -0.010053  0  -0.157636  -0.136606  0  3.992027  0
C  C170  1  0.13090215  0.91444718  0.28832783  1  -0.102751  0  -0.24403  -0.346474  0  3.993458  0
C  C171  1  0.62155748  0.33403281  0.45618837  1  0.024795  0  -0.159311  -0.157732  0  4.003787  0
C  C172  1  0.26879594  0.22761791  0.34259824  1  0.419394  0  0.08809  0.15264  0  3.994428  0
C  C173  1  0.71303664  0.39352100  0.51132023  1  -0.027365  0  -0.242233  -0.341676  0  3.94214  0
N  N174  1  0.64339632  0.57833755  0.59073659  1  -0.786707  0  -0.282034  -0.183516  0  3.624277  0
N  N175  1  0.29954487  0.47421800  0.95319982  1  -0.508177  0  -0.166898  -0.161137  0  3.293509  0
N  N176  1  0.02912532  0.83248295  0.97762668  1  -0.522652  0  -0.153389  -0.131316  0  3.360408  0
N  N177  1  0.48851264  0.38405063  0.52614906  1  -0.822782  0  -0.281679  -0.243021  0  3.560571  0
N  N178  1  0.03378787  0.85279683  0.04501416  1  -0.491322  0  -0.158198  -0.143447  0  3.313069  0
N  N179  1  0.44554401  0.52114531  0.64953089  1  -0.796467  0  -0.272339  -0.182139  0  3.561248  0
N  N180  1  0.60211091  0.47010200  0.38912343  1  -0.778167  0  -0.266347  -0.181249  0  3.52214  0
N  N181  1  0.38397350  0.44252859  0.59467610  1  -0.78878  0  -0.263521  -0.172626  0  3.517649  0
N  N182  1  0.65091608  0.55247096  0.44068861  1  -0.802414  0  -0.271686  -0.174303  0  3.574734  0
N  N183  1  0.53206437  0.38779598  0.48471864  1  -0.762126  0  -0.2819  -0.238826  0  3.561681  0
N  N184  1  0.60114319  0.56998590  0.63216094  1  -0.793522  0  -0.282572  -0.183061  0  3.632707  0
N  N185  1  0.37079508  0.47780132  0.46334830  1  -0.784229  0  -0.287628  -0.20029  0  3.623893  0
N  N186  1  0.50181367  0.56323950  0.41609935  1  -0.813511  0  -0.280016  -0.177211  0  3.607576  0
N  N187  1  0.58168619  0.70812454  0.62419518  1  -0.774217  0  -0.268543  -0.187443  0  3.516539  0
N  N188  1  0.38058146  0.30826359  0.34216829  1  -0.809741  0  -0.276043  -0.236879  0  3.539357  0
N  N189  1  0.33666434  0.30273205  0.38309075  1  -0.80971  0  -0.274756  -0.233635  0  3.53508  0
N  N190  1  0.61772324  0.71030813  0.57605588  1  -0.810165  0  -0.274984  -0.176636  0  3.572736  0
N  N191  1  0.45722857  0.48061011  0.37132244  1  -0.775329  0  -0.282164  -0.181743  0  3.666043  0
N  N192  1  0.40597558  0.55385014  0.52401116  1  -0.789927  0  -0.283201  -0.237508  0  3.604637  0
N  N193  1  0.34158953  0.54338890  0.01439027  1  -0.521265  0  -0.163993  -0.153696  0  3.32017  0
