# generated using pymatgen
data_ZnH15C17(NO3)2
_symmetry_space_group_name_H-M   'P 1'
_cell_length_a   10.84282299
_cell_length_b   11.80881462
_cell_length_c   13.14636408
_cell_angle_alpha   85.62405988
_cell_angle_beta   88.85030328
_cell_angle_gamma   85.65961621
_symmetry_Int_Tables_number   1
_chemical_formula_structural   ZnH15C17(NO3)2
_chemical_formula_sum   'Zn2 H30 C34 N4 O12'
_cell_volume   1673.37881044
_cell_formula_units_Z   2
loop_
 _symmetry_equiv_pos_site_id
 _symmetry_equiv_pos_as_xyz
  1  'x, y, z'
loop_
 _atom_site_type_symbol
 _atom_site_label
 _atom_site_symmetry_multiplicity
 _atom_site_fract_x
 _atom_site_fract_y
 _atom_site_fract_z
 _atom_site_occupancy
 _atom_site_pbe_bader_charge
 _atom_site_pbe_bader_spin_density
 _atom_site_pbe_cm5_charge
 _atom_site_pbe_ddec_charge
 _atom_site_pbe_ddec_spin_density
 _atom_site_pbe_ddec_sum_bond_order
 _atom_site_pbe_magmom
Zn  Zn0  1  0.48959828  0.62067128  0.50580668  1  1.289179  0  0.674564  0.813397  0  2.442397  0
Zn  Zn1  1  0.51302959  0.38307214  0.50278982  1  1.282176  0  0.667044  0.812136  0  2.435316  0
H  H2  1  0.09845861  0.62306213  0.62489298  1  0.08556  0  0.102145  0.111274  0  1.000019  0
H  H3  1  0.07781223  0.48200139  0.67500917  1  0.024475  0  0.097843  0.107252  0  0.980573  0
H  H4  1  0.09879144  0.66208734  0.43230093  1  0.070235  0  0.094639  0.107282  0  1.010786  0
H  H5  1  0.11795826  0.34402626  0.43311273  1  0.035651  0  0.09058  0.093066  0  0.974012  0
H  H6  1  0.11619734  0.31881741  0.56692206  1  0.018445  0  0.08559  0.083381  0  0.995021  0
H  H7  1  0.89976771  0.33854909  0.57272389  1  0.026338  0  0.08875  0.086925  0  1.003328  0
H  H8  1  0.90197058  0.34411208  0.43973864  1  0.044084  0  0.091901  0.092172  0  0.998172  0
H  H9  1  0.13922728  0.55128247  0.35242397  1  0.047007  0  0.091799  0.100567  0  0.977541  0
H  H10  1  0.94054526  0.49682033  0.34275922  1  -0.012378  0  0.094922  0.065014  0  0.970298  0
H  H11  1  0.53693219  0.36089742  0.18428471  1  0.07705  0  0.109598  0.117315  0  0.995647  0
H  H12  1  0.58305624  0.26894952  0.02098347  1  0.069991  0  0.105797  0.107394  0  0.990201  0
H  H13  1  0.41837234  0.72943844  0.98792854  1  0.104439  0  0.116989  0.129679  0  0.976338  0
H  H14  1  0.58756211  0.28344806  0.83016972  1  0.107956  0  0.106768  0.113064  0  0.995465  0
H  H15  1  0.46761085  0.63832777  0.82352808  1  0.103104  0  0.108344  0.117943  0  0.999698  0
H  H16  1  0.62449982  0.81307037  0.41888710  1  0.126855  0  0.13692  0.115622  0  0.97126  0
H  H17  1  0.32048775  0.78215228  0.61172499  1  0.138282  0  0.131961  0.110844  0  0.97212  0
H  H18  1  0.70420278  0.01096556  0.36831065  1  0.108843  0  0.126192  0.135166  0  0.966609  0
H  H19  1  0.29670996  0.99271169  0.63379090  1  0.097557  0  0.122707  0.129239  0  0.97346  0
H  H20  1  0.68031837  0.22187296  0.39012995  1  0.134554  0  0.129522  0.107702  0  0.97578  0
H  H21  1  0.37847383  0.19059018  0.58506873  1  0.149864  0  0.133318  0.110417  0  0.972987  0
H  H22  1  0.97832325  0.51770073  0.81259272  1  0.018543  0  0.081608  0.104144  0  1.019816  0
H  H23  1  0.87259598  0.64069287  0.79975691  1  0.045115  0  0.085482  0.116865  0  1.00909  0
H  H24  1  0.82254639  0.50982042  0.85379635  1  0.054027  0  0.086605  0.118422  0  1.003097  0
H  H25  1  0.74577622  0.54223316  0.67869255  1  0.058325  0  0.096441  0.102189  0  1.030769  0
H  H26  1  0.85277520  0.42205674  0.68915955  1  -0.006812  0  0.095855  0.101541  0  0.988942  0
H  H27  1  0.71586141  0.60424744  0.28899666  1  0.03743  0  0.077884  0.11437  0  1.042788  0
H  H28  1  0.75552575  0.72947822  0.21764133  1  0.027898  0  0.080656  0.109876  0  1.004691  0
H  H29  1  0.84149948  0.59832664  0.20000818  1  0.006263  0  0.079096  0.102416  0  1.010513  0
H  H30  1  0.83686715  0.72850672  0.39477505  1  0.021283  0  0.082256  0.073591  0  1.038643  0
H  H31  1  0.95903461  0.72101916  0.30550228  1  0.014642  0  0.090927  0.092304  0  0.971788  0
C  C32  1  0.52574902  0.47066847  0.70249901  1  1.503424  0  0.214167  0.584877  0  4.188966  0
C  C33  1  0.26255905  0.49651958  0.52337485  1  1.540573  0  0.222508  0.59398  0  4.089084  0
C  C34  1  0.47251509  0.52347269  0.30638787  1  1.569293  0  0.214065  0.590802  0  4.197786  0
C  C35  1  0.74024052  0.51257238  0.48598169  1  1.560067  0  0.221892  0.591619  0  4.108558  0
C  C36  1  0.05886269  0.54366101  0.60917243  1  -0.034006  0  -0.155661  -0.24757  0  3.831555  0
C  C37  1  0.91682028  0.56365208  0.59729944  1  0.169903  0  0.086199  0.122709  0  3.575069  0
C  C38  1  0.08225476  0.57416271  0.41900936  1  -0.039507  0  -0.164715  -0.233863  0  3.86762  0
C  C39  1  0.07944605  0.37723183  0.50384776  1  -0.017654  0  -0.167592  -0.184364  0  3.909679  0
C  C40  1  0.12250874  0.49635021  0.51382273  1  0.055334  0  -0.018493  0.042401  0  3.815461  0
C  C41  1  0.88124215  0.51012536  0.49575375  1  0.027167  0  -0.003248  -0.058889  0  3.672416  0
C  C42  1  0.94432028  0.56375396  0.39658029  1  0.028439  0  -0.079667  0.011833  0  3.742851  0
C  C43  1  0.93678494  0.38460619  0.50464900  1  -0.048081  0  -0.165563  -0.179561  0  3.898115  0
C  C44  1  0.46853109  0.53333911  0.19201823  1  0.053019  0  -0.007924  -0.070235  0  3.955754  0
C  C45  1  0.52647695  0.46230281  0.81692810  1  0.053925  0  -0.014119  -0.021871  0  3.967241  0
C  C46  1  0.55726064  0.34957543  0.97775168  1  -0.003661  0  -0.087006  -0.134494  0  3.995923  0
C  C47  1  0.56005154  0.35718475  0.87264017  1  -0.070608  0  -0.082983  -0.093141  0  3.989267  0
C  C48  1  0.49171171  0.55821200  0.86791462  1  -0.053106  0  -0.073832  -0.131957  0  3.914427  0
C  C49  1  0.48552782  0.55236447  0.97560309  1  -0.004812  0  -0.001067  0.089078  0  4.010254  0
C  C50  1  0.51838318  0.44581447  0.03197078  1  0.037932  0  -0.001995  0.075486  0  4.007512  0
C  C51  1  0.50994328  0.44027813  0.13969198  1  -0.015256  0  -0.070416  -0.118297  0  3.919505  0
C  C52  1  0.43488155  0.63725663  0.13417766  1  0.175862  0  0.08212  0.060843  0  3.941114  0
C  C53  1  0.44485216  0.64812840  0.02959021  1  -0.004926  0  -0.076312  -0.176645  0  3.942163  0
C  C54  1  0.63134887  0.04738636  0.41694615  1  0.014032  0  -0.061205  -0.146439  0  3.943996  0
C  C55  1  0.61900090  0.16251069  0.42820490  1  0.400839  0  0.0517  0.079179  0  3.922204  0
C  C56  1  0.44908756  0.14651154  0.53896823  1  0.533337  0  0.083994  0.075225  0  3.84198  0
C  C57  1  0.45374112  0.02712516  0.53282150  1  0.012427  0  0.015383  0.05477  0  4.00629  0
C  C58  1  0.54806366  0.97656523  0.46998424  1  0.023636  0  0.018286  0.058221  0  3.991916  0
C  C59  1  0.55342824  0.85702000  0.46457758  1  0.558093  0  0.091147  0.091591  0  3.820662  0
C  C60  1  0.38246941  0.84140002  0.57445024  1  0.481945  0  0.055835  0.08907  0  3.911266  0
C  C61  1  0.37001098  0.95647217  0.58552269  1  -0.052885  0  -0.065293  -0.15393  0  3.955848  0
C  C62  1  0.84374947  0.51522594  0.69001151  1  0.035526  0  -0.171588  -0.190063  0  3.95077  0
C  C63  1  0.88242557  0.54813839  0.79435311  1  -0.098458  0  -0.247987  -0.343189  0  3.966489  0
C  C64  1  0.88384616  0.67302530  0.34054858  1  0.008987  0  -0.173061  -0.13853  0  3.94071  0
C  C65  1  0.79422390  0.64981995  0.25752986  1  -0.07408  0  -0.254219  -0.35658  0  3.98208  0
N  N66  1  0.47371132  0.79333231  0.51490779  1  -1.23721  0  -0.307595  -0.172011  0  3.514153  0
N  N67  1  0.52888949  0.21044567  0.48895080  1  -1.216336  0  -0.309622  -0.174619  0  3.525346  0
N  N68  1  0.37765841  0.73669926  0.18394530  1  0.410754  0  0.058163  0.526891  0  4.2282  0
N  N69  1  0.88410484  0.69657878  0.59047171  1  0.485074  0  0.055353  0.4949  0  4.076098  0
O  O70  1  0.50568966  0.57007377  0.65877121  1  -1.170556  0  -0.316209  -0.551057  0  2.35601  0
O  O71  1  0.54451977  0.37854358  0.65812901  1  -1.157677  0  -0.321842  -0.548209  0  2.295841  0
O  O72  1  0.30598784  0.59394000  0.51957062  1  -1.166972  0  -0.315186  -0.540964  0  2.341002  0
O  O73  1  0.32609229  0.40114166  0.53223976  1  -1.172998  0  -0.317677  -0.551474  0  2.34214  0
O  O74  1  0.48038007  0.61532355  0.34945120  1  -1.15944  0  -0.308432  -0.534113  0  2.351724  0
O  O75  1  0.47271115  0.42361445  0.34985128  1  -1.169569  0  -0.318279  -0.548401  0  2.321579  0
O  O76  1  0.67939620  0.60809385  0.49136551  1  -1.161322  0  -0.307568  -0.540207  0  2.399385  0
O  O77  1  0.69327005  0.41882333  0.47410236  1  -1.174276  0  -0.317501  -0.550318  0  2.349703  0
O  O78  1  0.42973098  0.82676109  0.17199759  1  -0.457598  0  -0.153325  -0.354807  0  1.854364  0
O  O79  1  0.27824396  0.72395517  0.22958660  1  -0.444681  0  -0.129124  -0.32309  0  1.891847  0
O  O80  1  0.95783350  0.75806675  0.54430769  1  -0.481897  0  -0.139348  -0.343125  0  1.969901  0
O  O81  1  0.78881086  0.73373285  0.63325439  1  -0.457995  0  -0.129863  -0.324027  0  1.975568  0
