# generated using pymatgen
data_ZnH9C18NO6
_symmetry_space_group_name_H-M   'P 1'
_cell_length_a   11.80602506
_cell_length_b   13.15664807
_cell_length_c   13.15904512
_cell_angle_alpha   88.52135435
_cell_angle_beta   85.90000996
_cell_angle_gamma   85.17107535
_symmetry_Int_Tables_number   1
_chemical_formula_structural   ZnH9C18NO6
_chemical_formula_sum   'Zn2 H18 C36 N2 O12'
_cell_volume   2031.09442961
_cell_formula_units_Z   2
loop_
 _symmetry_equiv_pos_site_id
 _symmetry_equiv_pos_as_xyz
  1  'x, y, z'
loop_
 _atom_site_type_symbol
 _atom_site_label
 _atom_site_symmetry_multiplicity
 _atom_site_fract_x
 _atom_site_fract_y
 _atom_site_fract_z
 _atom_site_occupancy
 _atom_site_pbe_bader_charge
 _atom_site_pbe_bader_spin_density
 _atom_site_pbe_cm5_charge
 _atom_site_pbe_ddec_charge
 _atom_site_pbe_ddec_spin_density
 _atom_site_pbe_ddec_sum_bond_order
 _atom_site_pbe_magmom
Zn  Zn0  1  0.38111972  0.49878807  0.49639639  1  1.292299  0  0.671419  0.817596  0  2.439942  0
Zn  Zn1  1  0.61888519  0.50121430  0.50360917  1  1.293028  0  0.671401  0.817495  0  2.440084  0
H  H2  1  0.17109205  0.59372236  0.58852278  1  0.11872  0  0.133012  0.109497  0  0.970119  0
H  H3  1  0.72542048  0.48347857  0.17297736  1  0.133947  0  0.10702  0.105772  0  1.011741  0
H  H4  1  0.71326953  0.16967298  0.55181531  1  0.104546  0  0.10822  0.10779  0  1.009715  0
H  H5  1  0.28673870  0.83032110  0.44816741  1  0.104594  0  0.108257  0.107873  0  1.009491  0
H  H6  1  0.96143743  0.65270227  0.64514123  1  0.114193  0  0.126189  0.133908  0  0.969374  0
H  H7  1  0.03856811  0.34730316  0.35486119  1  0.114202  0  0.126193  0.133899  0  0.969399  0
H  H8  1  0.24519386  0.36834411  0.37391516  1  0.127728  0  0.13527  0.114902  0  0.962309  0
H  H9  1  0.75481089  0.63166058  0.62608580  1  0.127708  0  0.135285  0.114895  0  0.962474  0
H  H10  1  0.82891134  0.40627775  0.41148215  1  0.118853  0  0.132944  0.109322  0  0.970228  0
H  H11  1  0.63943778  0.48454261  0.82013509  1  0.17424  0  0.111189  0.12682  0  1.035906  0
H  H12  1  0.36055666  0.51548505  0.17986756  1  0.173987  0  0.111146  0.126812  0  1.035911  0
H  H13  1  0.37066876  0.18190003  0.46108056  1  0.161003  0  0.110545  0.124009  0  1.038789  0
H  H14  1  0.62933481  0.81810928  0.53891430  1  0.161169  0  0.11051  0.123891  0  1.038934  0
H  H15  1  0.83969980  0.46994185  0.03514977  1  0.017566  0  0.095507  0.025288  0  0.969858  0
H  H16  1  0.16029637  0.53010713  0.96485236  1  0.017542  0  0.095493  0.025312  0  0.969826  0
H  H17  1  0.18292358  0.96958325  0.41128037  1  0.050921  0  0.095923  0.024366  0  0.967322  0
H  H18  1  0.81708074  0.03040628  0.58870724  1  0.051039  0  0.095831  0.024323  0  0.967108  0
H  H19  1  0.27457573  0.51655898  0.82702574  1  0.13437  0  0.107004  0.105737  0  1.011721  0
C  C20  1  0.53469829  0.30087937  0.50198459  1  1.561953  0  0.215271  0.59159  0  4.174169  0
C  C21  1  0.01842449  0.53565869  0.53397445  1  -0.022856  0  0.014746  0.054157  0  4.004656  0
C  C22  1  0.98158128  0.46434369  0.46602801  1  -0.091972  0  0.014684  0.054045  0  4.00469  0
C  C23  1  0.82240228  0.58625882  0.58315747  1  0.444424  0  0.059455  0.096506  0  3.892635  0
C  C24  1  0.17760173  0.41374434  0.41684584  1  0.443754  0  0.059393  0.096383  0  3.892506  0
C  C25  1  0.93581806  0.59722971  0.59301131  1  0.016023  0  -0.058812  -0.142024  0  3.932413  0
C  C26  1  0.06418675  0.40277421  0.40699042  1  0.021874  0  -0.058746  -0.141861  0  3.93245  0
C  C27  1  0.46531160  0.69912448  0.49801912  1  1.562023  0  0.215159  0.591494  0  4.173898  0
C  C28  1  0.86283634  0.45918549  0.46183155  1  0.61014  0  0.082465  0.074144  0  3.848923  0
C  C29  1  0.13716772  0.54081689  0.53817406  1  0.610027  0  0.082289  0.073829  0  3.848989  0
C  C30  1  0.45837023  0.50060410  0.81294640  1  0.071715  0  -0.011897  -0.019428  0  3.963877  0
C  C31  1  0.54161995  0.49942358  0.18706030  1  0.071997  0  -0.011803  -0.019304  0  3.964089  0
C  C32  1  0.54104596  0.18640238  0.50543900  1  0.05741  0  -0.010371  -0.015342  0  3.96158  0
C  C33  1  0.45896260  0.81359775  0.49455346  1  0.057389  0  -0.010463  -0.015301  0  3.961169  0
C  C34  1  0.46658045  0.49873648  0.69856892  1  1.535229  0  0.214951  0.591616  0  4.170985  0
C  C35  1  0.65641766  0.48707450  0.02569583  1  -0.059867  0  -0.017827  -0.037148  0  3.984598  0
C  C36  1  0.34357351  0.51296232  0.97430911  1  -0.059887  0  -0.017762  -0.036961  0  3.984235  0
C  C37  1  0.35369937  0.97666101  0.45963176  1  0.015806  0  -0.018421  -0.038788  0  3.983482  0
C  C38  1  0.64630924  0.02333919  0.54034777  1  0.016453  0  -0.018366  -0.038881  0  3.983473  0
C  C39  1  0.53341571  0.50127969  0.30143916  1  1.535298  0  0.215034  0.591627  0  4.171193  0
C  C40  1  0.64820563  0.48924664  0.13142522  1  -0.094681  0  -0.064805  -0.105481  0  3.946517  0
C  C41  1  0.35178988  0.51078941  0.86857339  1  -0.095385  0  -0.064802  -0.105545  0  3.946103  0
C  C42  1  0.35953484  0.87083128  0.46635849  1  -0.149489  0  -0.063984  -0.10551  0  3.943552  0
C  C43  1  0.64047636  0.12916809  0.53362699  1  -0.149536  0  -0.064062  -0.105308  0  3.94393  0
C  C44  1  0.44238815  0.50742753  0.13617821  1  -0.028458  0  -0.060821  -0.100178  0  3.865586  0
C  C45  1  0.55760457  0.49260012  0.86382986  1  -0.027991  0  -0.060716  -0.099946  0  3.865313  0
C  C46  1  0.55265070  0.86290250  0.51794909  1  -0.015214  0  -0.060944  -0.101288  0  3.869546  0
C  C47  1  0.44735418  0.13710150  0.48203896  1  -0.015043  0  -0.06097  -0.101487  0  3.869813  0
C  C48  1  0.44564989  0.50519003  0.02859405  1  0.016901  0  0.008996  0.059563  0  3.930854  0
C  C49  1  0.55434601  0.49484064  0.97141073  1  -0.042484  0  0.008636  0.059246  0  3.930957  0
C  C50  1  0.55039465  0.97059526  0.51511397  1  0.017948  0  0.009305  0.060219  0  3.929  0
C  C51  1  0.44960881  0.02940576  0.48486510  1  -0.04222  0  0.009215  0.060338  0  3.92905  0
C  C52  1  0.77389512  0.47763967  0.97757792  1  0.948315  0  0.094181  0.26846  0  3.998317  0
C  C53  1  0.22609957  0.52239561  0.02242456  1  0.948627  0  0.094193  0.268654  0  3.998355  0
C  C54  1  0.24574139  0.02614120  0.42481941  1  0.920484  0  0.095013  0.271849  0  3.992968  0
C  C55  1  0.75426446  0.97385062  0.57516578  1  0.919455  0  0.095181  0.271981  0  3.992913  0
N  N56  1  0.21247215  0.48232957  0.48184639  1  -1.231535  0  -0.311067  -0.180823  0  3.526666  0
N  N57  1  0.78753196  0.51767205  0.51815923  1  -1.23211  0  -0.311181  -0.18091  0  3.526669  0
O  O58  1  0.43559512  0.34631956  0.49818726  1  -1.172781  0  -0.314716  -0.548861  0  2.345877  0
O  O59  1  0.37221853  0.65712635  0.49655324  1  -1.170138  0  -0.315811  -0.539783  0  2.296296  0
O  O60  1  0.37396446  0.50119558  0.65415687  1  -1.160793  0  -0.316503  -0.543093  0  2.2971  0
O  O61  1  0.62603248  0.49883281  0.34584485  1  -1.160796  0  -0.316549  -0.543069  0  2.297152  0
O  O62  1  0.62779175  0.34287378  0.50343380  1  -1.170228  0  -0.315845  -0.539751  0  2.296451  0
O  O63  1  0.80387473  0.47804249  0.88627502  1  -1.079554  0  -0.274547  -0.366248  0  2.125615  0
O  O64  1  0.19611465  0.52197378  0.11373043  1  -1.079737  0  -0.274588  -0.366495  0  2.125475  0
O  O65  1  0.22052897  0.11755817  0.40979749  1  -1.078158  0  -0.274512  -0.370434  0  2.12809  0
O  O66  1  0.56441209  0.65368416  0.50184321  1  -1.172972  0  -0.314678  -0.548783  0  2.345727  0
O  O67  1  0.77946797  0.88243908  0.59018737  1  -1.077609  0  -0.274588  -0.37048  0  2.128471  0
O  O68  1  0.56661005  0.49497984  0.65535989  1  -1.156575  0  -0.313201  -0.543392  0  2.350067  0
O  O69  1  0.43339382  0.50501417  0.34464437  1  -1.156831  0  -0.313168  -0.543302  0  2.350065  0
