# generated using pymatgen
data_TbH19(C3O)8
_symmetry_space_group_name_H-M   'P 1'
_cell_length_a   7.32491411
_cell_length_b   8.59455619
_cell_length_c   16.57200000
_cell_angle_alpha   82.75987282
_cell_angle_beta   88.83283945
_cell_angle_gamma   71.39727434
_symmetry_Int_Tables_number   1
_chemical_formula_structural   TbH19(C3O)8
_chemical_formula_sum   'Tb2 H38 C48 O16'
_cell_volume   980.66999359
_cell_formula_units_Z   2
loop_
 _symmetry_equiv_pos_site_id
 _symmetry_equiv_pos_as_xyz
  1  'x, y, z'
loop_
 _atom_site_type_symbol
 _atom_site_label
 _atom_site_symmetry_multiplicity
 _atom_site_fract_x
 _atom_site_fract_y
 _atom_site_fract_z
 _atom_site_occupancy
 _atom_site_hle17_bader_spin_density
 _atom_site_hle17_ddec_charge
 _atom_site_hle17_ddec_spin_density
 _atom_site_hle17_ddec_sum_bond_order
 _atom_site_hle17_magmom
 _atom_site_hse06_10hf_bader_spin_density
 _atom_site_hse06_10hf_ddec_charge
 _atom_site_hse06_10hf_ddec_spin_density
 _atom_site_hse06_10hf_ddec_sum_bond_order
 _atom_site_hse06_10hf_magmom
 _atom_site_hse06_bader_spin_density
 _atom_site_hse06_ddec_charge
 _atom_site_hse06_ddec_spin_density
 _atom_site_hse06_ddec_sum_bond_order
 _atom_site_hse06_magmom
 _atom_site_pbe_bader_charge
 _atom_site_pbe_bader_spin_density
 _atom_site_pbe_cm5_charge
 _atom_site_pbe_ddec_charge
 _atom_site_pbe_ddec_spin_density
 _atom_site_pbe_ddec_sum_bond_order
 _atom_site_pbe_magmom
Tb  Tb0  1  0.57662120  0.25271118  0.01595586  1  0  2.307732  0  1.663167  0  0  2.171402  0  2.125748  0  0  2.282326  0  1.961594  0  2.195672  0  1.52642  2.137302  0  2.158273  0
Tb  Tb1  1  0.42337376  0.74729255  0.98404582  1  0  2.307759  0  1.663204  0  0  2.171356  0  2.12589  0  0  2.282346  0  1.96163  0  2.195724  0  1.526432  2.137287  0  2.15836  0
H  H2  1  0.15572150  0.41880341  0.95215162  1  0  0.433452  0  0.865203  0  0  0.400226  0  0.932189  0  0  0.412007  0  0.915165  0  0.648018  0  0.300938  0.392029  0  0.94421  0
H  H3  1  0.84427575  0.58119784  0.04784717  1  0  0.433388  0  0.865304  0  0  0.400192  0  0.932249  0  0  0.411973  0  0.915225  0  0.648036  0  0.300946  0.391993  0  0.944273  0
H  H4  1  0.14192132  0.37579343  0.04735048  1  0  0.431259  0  0.864377  0  0  0.401958  0  0.925747  0  0  0.41194  0  0.911437  0  0.663434  0  0.305146  0.395066  0  0.935745  0
H  H5  1  0.85807593  0.62420782  0.95264892  1  0  0.431229  0  0.864431  0  0  0.40192  0  0.925806  0  0  0.411904  0  0.911495  0  0.663411  0  0.305124  0.395029  0  0.935804  0
H  H6  1  0.94339038  0.93966179  0.05048775  1  0  0.45636  0  0.809083  0  0  0.432823  0  0.867614  0  0  0.442428  0  0.853413  0  0.646538  0  0.324088  0.426066  0  0.877727  0
H  H7  1  0.05660822  0.06034317  0.94951260  1  0  0.456341  0  0.809033  0  0  0.432792  0  0.867637  0  0  0.442405  0  0.853427  0  0.64652  0  0.324091  0.426036  0  0.877749  0
H  H8  1  0.79492467  0.86903577  0.01440645  1  0  0.449743  0  0.837633  0  0  0.419581  0  0.899075  0  0  0.430448  0  0.883297  0  0.640175  0  0.308174  0.411928  0  0.910321  0
H  H9  1  0.20507257  0.13096919  0.98559452  1  0  0.449785  0  0.83759  0  0  0.419648  0  0.899013  0  0  0.430516  0  0.883233  0  0.640133  0  0.308221  0.411996  0  0.91026  0
H  H10  1  0.46767146  0.69491428  0.78699684  1  0  0.095928  0  0.986776  0  0  0.100069  0  1.059768  0  0  0.102982  0  1.058261  0  0.072411  0  0.107099  0.097427  0  1.062013  0
H  H11  1  0.53232670  0.30508821  0.21300307  1  0  0.095971  0  0.986771  0  0  0.10012  0  1.059733  0  0  0.103033  0  1.058226  0  0.072437  0  0.107119  0.097477  0  1.061979  0
H  H12  1  0.45132740  0.76804634  0.63927932  1  0  0.082529  0  0.996779  0  0  0.09361  0  1.059618  0  0  0.095413  0  1.060922  0  0.048605  0  0.095008  0.09261  0  1.057802  0
H  H13  1  0.54867211  0.23195986  0.36072094  1  0  0.082515  0  0.996816  0  0  0.093613  0  1.059642  0  0  0.095431  0  1.060928  0  0.048642  0  0.094999  0.092588  0  1.057851  0
H  H14  1  0.89926632  0.30894691  0.61369771  1  0  0.082607  0  0.975344  0  0  0.092732  0  1.04174  0  0  0.095185  0  1.041556  0  0.056079  0  0.094281  0.090922  0  1.042176  0
H  H15  1  0.10073092  0.69105806  0.38630265  1  0  0.082593  0  0.975328  0  0  0.092695  0  1.041758  0  0  0.095145  0  1.041578  0  0.056038  0  0.094258  0.090889  0  1.042189  0
H  H16  1  0.90931471  0.23478024  0.76434366  1  0  0.099333  0  0.962676  0  0  0.107758  0  1.028082  0  0  0.110546  0  1.026551  0  0.093388  0  0.103672  0.106041  0  1.028432  0
H  H17  1  0.09068162  0.76522348  0.23565558  1  0  0.099342  0  0.962669  0  0  0.107765  0  1.028078  0  0  0.110551  0  1.026549  0  0.093337  0  0.1037  0.106058  0  1.028416  0
H  H18  1  0.76890884  0.48756567  0.49386112  1  0  0.086806  0  0.952701  0  0  0.101305  0  1.011382  0  0  0.104114  0  1.010091  0  0.059886  0  0.098341  0.099131  0  1.012606  0
H  H19  1  0.23109022  0.51243805  0.50613870  1  0  0.086858  0  0.952571  0  0  0.101358  0  1.011251  0  0  0.104169  0  1.009953  0  0.059873  0  0.098371  0.099185  0  1.012475  0
H  H20  1  0.47251765  0.82338980  0.51886131  1  0  0.081459  0  0.971275  0  0  0.094496  0  1.0347  0  0  0.097084  0  1.033582  0  0.061505  0  0.096448  0.092778  0  1.035312  0
H  H21  1  0.52748006  0.17661022  0.48113816  1  0  0.081454  0  0.9712  0  0  0.094493  0  1.034634  0  0  0.097081  0  1.033517  0  0.061091  0  0.096442  0.092777  0  1.035244  0
H  H22  1  0.35393817  0.01726018  0.41077695  1  0  0.081493  0  0.977811  0  0  0.091544  0  1.045254  0  0  0.093557  0  1.045691  0  0.06406  0  0.094384  0.090222  0  1.044698  0
H  H23  1  0.64605772  0.98273736  0.58922331  1  0  0.081505  0  0.977801  0  0  0.091557  0  1.045236  0  0  0.09357  0  1.045672  0  0.064056  0  0.09441  0.090237  0  1.044675  0
H  H24  1  0.32773025  0.11647743  0.26270083  1  0  0.094987  0  0.986148  0  0  0.104296  0  1.049785  0  0  0.106566  0  1.049682  0  0.10809  0  0.10147  0.103576  0  1.047807  0
H  H25  1  0.67226929  0.88352135  0.73729931  1  0  0.09499  0  0.986039  0  0  0.104303  0  1.049663  0  0  0.106574  0  1.04956  0  0.108077  0  0.101446  0.103582  0  1.047685  0
H  H26  1  0.71269264  0.64501112  0.21400232  1  0  0.108951  0  0.943132  0  0  0.116548  0  1.006619  0  0  0.119878  0  1.004932  0  0.078619  0  0.108057  0.114341  0  1.007723  0
H  H27  1  0.28730644  0.35498890  0.78599775  1  0  0.108952  0  0.943145  0  0  0.116548  0  1.006636  0  0  0.119877  0  1.00495  0  0.078621  0  0.108047  0.11434  0  1.00774  0
H  H28  1  0.74698231  0.54694974  0.36132005  1  0  0.08501  0  0.982894  0  0  0.095229  0  1.048696  0  0  0.097319  0  1.049186  0  0.083714  0  0.095619  0.094094  0  1.047602  0
H  H29  1  0.25301223  0.45304779  0.63868022  1  0  0.085012  0  0.982915  0  0  0.095273  0  1.048666  0  0  0.097366  0  1.049156  0  0.083726  0  0.095645  0.094138  0  1.047574  0
H  H30  1  0.04064198  0.27631135  0.41677215  1  0  0.079753  0  0.976112  0  0  0.090692  0  1.041071  0  0  0.093139  0  1.04064  0  0.055496  0  0.095161  0.088964  0  1.04147  0
H  H31  1  0.95937307  0.72367877  0.58322782  1  0  0.079742  0  0.976113  0  0  0.090697  0  1.041046  0  0  0.093141  0  1.040616  0  0.055643  0  0.095164  0.088981  0  1.041436  0
H  H32  1  0.02321833  0.41168005  0.27495791  1  0  0.094916  0  0.986469  0  0  0.100933  0  1.057274  0  0  0.103107  0  1.057644  0  0.095909  0  0.101902  0.099103  0  1.057558  0
H  H33  1  0.97680446  0.58830759  0.72504095  1  0  0.094858  0  0.986515  0  0  0.100953  0  1.057255  0  0  0.103132  0  1.057623  0  0.096114  0  0.101874  0.099121  0  1.057543  0
H  H34  1  0.83914431  0.90142753  0.33397964  1  0  0.083797  0  0.994808  0  0  0.09377  0  1.060778  0  0  0.095372  0  1.062598  0  0.068998  0  0.096898  0.092301  0  1.0601  0
H  H35  1  0.16085523  0.09857124  0.66602051  1  0  0.083821  0  0.99483  0  0  0.093791  0  1.060795  0  0  0.095393  0  1.062615  0  0.068982  0  0.096903  0.092322  0  1.060117  0
H  H36  1  0.82632247  0.03772686  0.19245989  1  0  0.096292  0  0.966953  0  0  0.101844  0  1.035692  0  0  0.105033  0  1.033765  0  0.067939  0  0.110157  0.099263  0  1.03786  0
H  H37  1  0.17368070  0.96227315  0.80753893  1  0  0.09631  0  0.96688  0  0  0.101843  0  1.035638  0  0  0.105032  0  1.033709  0  0.067948  0  0.110151  0.099262  0  1.037805  0
H  H38  1  0.89211313  0.88714491  0.47312381  1  0  0.081742  0  0.965463  0  0  0.093749  0  1.031064  0  0  0.096415  0  1.029756  0  0.074575  0  0.096973  0.091777  0  1.032205  0
H  H39  1  0.10789505  0.11285263  0.52687514  1  0  0.081728  0  0.965463  0  0  0.09372  0  1.031095  0  0  0.096387  0  1.029785  0  0.074518  0  0.096946  0.091748  0  1.032233  0
C  C40  1  0.68630408  0.40886832  0.87369014  1  0  0.690583  0  3.868252  0  0  0.642312  0  4.16125  0  0  0.677552  0  4.156808  0  1.52253  0  0.210008  0.617412  0  4.170762  0
C  C41  1  0.31369363  0.59113169  0.12631055  1  0  0.690591  0  3.868262  0  0  0.642293  0  4.161293  0  0  0.677531  0  4.15686  0  1.522246  0  0.210005  0.617394  0  4.170812  0
C  C42  1  0.68955826  0.46008082  0.78520796  1  0  -0.062604  0  3.737509  0  0  -0.040857  0  3.970764  0  0  -0.049172  0  3.990779  0  -0.015749  0  -0.012266  -0.034349  0  3.956373  0
C  C43  1  0.31043899  0.53992043  0.21479204  1  0  -0.062567  0  3.737498  0  0  -0.040807  0  3.970742  0  0  -0.04912  0  3.990755  0  -0.015746  0  -0.012208  -0.034302  0  3.956355  0
C  C44  1  0.56149051  0.61018385  0.74893735  1  0  -0.049754  0  3.721687  0  0  -0.075007  0  3.972373  0  0  -0.073151  0  3.991334  0  -0.002691  0  -0.07636  -0.076779  0  3.958366  0
C  C45  1  0.43850856  0.38981617  0.25106333  1  0  -0.049833  0  3.72172  0  0  -0.075077  0  3.972419  0  0  -0.073222  0  3.99138  0  -0.002688  0  -0.076391  -0.076854  0  3.958419  0
C  C46  1  0.55436463  0.65131522  0.66530179  1  0  -0.115152  0  3.714622  0  0  -0.130112  0  3.955092  0  0  -0.135188  0  3.977784  0  -0.053418  0  -0.088388  -0.126189  0  3.936811  0
C  C47  1  0.44563216  0.34868727  0.33469814  1  0  -0.115082  0  3.714638  0  0  -0.130083  0  3.955161  0  0  -0.135172  0  3.977849  0  -0.053418  0  -0.08839  -0.126142  0  3.936899  0
C  C48  1  0.67674244  0.54448825  0.61475755  1  0  0.096153  0  3.823424  0  0  0.115689  0  4.048393  0  0  0.117883  0  4.072409  0  -0.058258  0  -0.007662  0.11438  0  4.031589  0
C  C49  1  0.32325481  0.45551300  0.38524305  1  0  0.096149  0  3.823322  0  0  0.115675  0  4.048314  0  0  0.117866  0  4.072334  0  -0.058362  0  -0.007668  0.114367  0  4.031504  0
C  C50  1  0.80550621  0.39398920  0.65205370  1  0  -0.123924  0  3.726745  0  0  -0.139587  0  3.972237  0  0  -0.144888  0  3.994388  0  -0.068984  0  -0.089352  -0.136246  0  3.957083  0
C  C51  1  0.19449194  0.60601329  0.34794622  1  0  -0.123964  0  3.72666  0  0  -0.139603  0  3.972162  0  0  -0.144902  0  3.994311  0  -0.068887  0  -0.08937  -0.136265  0  3.957009  0
C  C52  1  0.81209024  0.35216604  0.73589443  1  0  -0.046128  0  3.718796  0  0  -0.071792  0  3.968283  0  0  -0.069601  0  3.987245  0  0.049713  0  -0.076439  -0.072997  0  3.954075  0
C  C53  1  0.18790655  0.64783645  0.26410550  1  0  -0.046121  0  3.718801  0  0  -0.071774  0  3.96827  0  0  -0.069585  0  3.987233  0  0.049709  0  -0.07645  -0.072988  0  3.954061  0
C  C54  1  0.67463460  0.58428182  0.52673087  1  0  -0.112554  0  3.751967  0  0  -0.131094  0  4.000101  0  0  -0.133187  0  4.020105  0  -0.023991  0  -0.090709  -0.129546  0  3.986414  0
C  C55  1  0.32536630  0.41571695  0.47326865  1  0  -0.11266  0  3.752014  0  0  -0.131193  0  4.000155  0  0  -0.133284  0  4.020159  0  -0.023964  0  -0.090753  -0.129645  0  3.986467  0
C  C56  1  0.56590840  0.72867725  0.48472326  1  0  -0.110698  0  3.759946  0  0  -0.131504  0  4.011834  0  0  -0.133324  0  4.031896  0  -0.120639  0  -0.092169  -0.130103  0  3.997817  0
C  C57  1  0.43408611  0.27132400  0.51527617  1  0  -0.110675  0  3.759938  0  0  -0.13149  0  4.011816  0  0  -0.133311  0  4.031876  0  -0.120225  0  -0.092175  -0.130089  0  3.997799  0
C  C58  1  0.55421054  0.77613624  0.39733609  1  0  0.084711  0  3.841858  0  0  0.10253  0  4.071848  0  0  0.104245  0  4.095461  0  0.002437  0  -0.013807  0.101927  0  4.055567  0
C  C59  1  0.44578536  0.22386130  0.60266356  1  0  0.084732  0  3.841889  0  0  0.10258  0  4.071851  0  0  0.104297  0  4.095463  0  0.002368  0  -0.013767  0.101976  0  4.055572  0
C  C60  1  0.43458521  0.93632782  0.36766715  1  0  -0.120899  0  3.74056  0  0  -0.13713  0  3.987483  0  0  -0.141872  0  4.009942  0  -0.114589  0  -0.0908  -0.13439  0  3.970859  0
C  C61  1  0.56541160  0.06367096  0.63233302  1  0  -0.120875  0  3.740662  0  0  -0.137112  0  3.987565  0  0  -0.141854  0  4.010023  0  -0.114533  0  -0.090823  -0.134372  0  3.970943  0
C  C62  1  0.41829845  0.99200541  0.28512869  1  0  -0.06004  0  3.751355  0  0  -0.084139  0  3.996126  0  0  -0.083285  0  4.017365  0  -0.009435  0  -0.083781  -0.083496  0  3.977735  0
C  C63  1  0.58169926  0.00799460  0.71487139  1  0  -0.060138  0  3.751366  0  0  -0.084221  0  3.996165  0  0  -0.08337  0  4.017402  0  -0.009399  0  -0.083802  -0.083578  0  3.977775  0
C  C64  1  0.51768999  0.88770676  0.22939564  1  0  -0.07184  0  3.731199  0  0  -0.048677  0  3.959263  0  0  -0.056945  0  3.979892  0  -0.037268  0  -0.012767  -0.042691  0  3.943615  0
C  C65  1  0.48231273  0.11229078  0.77060576  1  0  -0.071636  0  3.731065  0  0  -0.04859  0  3.959162  0  0  -0.05685  0  3.97978  0  -0.037277  0  -0.012701  -0.042607  0  3.943516  0
C  C66  1  0.63518350  0.72622565  0.25760820  1  0  -0.057471  0  3.712474  0  0  -0.080598  0  3.962092  0  0  -0.079739  0  3.981629  0  0.010087  0  -0.077712  -0.080889  0  3.947735  0
C  C67  1  0.36481558  0.27377436  0.74239187  1  0  -0.057509  0  3.712485  0  0  -0.08062  0  3.962132  0  0  -0.079763  0  3.98167  0  0.010118  0  -0.07771  -0.080909  0  3.947774  0
C  C68  1  0.65483389  0.67217173  0.34049783  1  0  -0.115995  0  3.721597  0  0  -0.132365  0  3.967289  0  0  -0.136561  0  3.989188  0  -0.047769  0  -0.08952  -0.129468  0  3.951069  0
C  C69  1  0.34516883  0.32782581  0.65950177  1  0  -0.116024  0  3.721743  0  0  -0.132456  0  3.967455  0  0  -0.136656  0  3.98936  0  -0.047763  0  -0.089566  -0.129559  0  3.951233  0
C  C70  1  0.99309543  0.22270790  0.36817337  1  0  -0.117855  0  3.719476  0  0  -0.132935  0  3.962028  0  0  -0.137296  0  3.982536  0  -0.07902  0  -0.088834  -0.13034  0  3.948655  0
C  C71  1  0.00691778  0.77728717  0.63182448  1  0  -0.117946  0  3.719593  0  0  -0.133041  0  3.962226  0  0  -0.137398  0  3.982737  0  -0.078863  0  -0.088866  -0.130459  0  3.948847  0
C  C72  1  0.49774165  0.95131584  0.14117381  1  0  0.735906  0  3.846059  0  0  0.690726  0  4.129105  0  0  0.727804  0  4.119438  0  1.561753  0  0.240749  0.665319  0  4.138225  0
C  C73  1  0.50225697  0.04868541  0.85882859  1  0  0.735766  0  3.846364  0  0  0.690775  0  4.12911  0  0  0.727851  0  4.119446  0  1.56205  0  0.240697  0.665369  0  4.138229  0
C  C74  1  0.90689128  0.31840554  0.13992612  1  0  0.703175  0  3.857771  0  0  0.652347  0  4.149452  0  0  0.687883  0  4.139598  0  1.59226  0  0.23347  0.628827  0  4.155745  0
C  C75  1  0.09311054  0.68159076  0.86007477  1  0  0.703143  0  3.857766  0  0  0.652388  0  4.149304  0  0  0.687925  0  4.139452  0  1.592257  0  0.233491  0.628884  0  4.155577  0
C  C76  1  0.92492494  0.23291277  0.22485137  1  0  -0.075847  0  3.73968  0  0  -0.053828  0  3.971135  0  0  -0.062353  0  3.99249  0  -0.018578  0  -0.014153  -0.048361  0  3.956532  0
C  C77  1  0.07508370  0.76708353  0.77514705  1  0  -0.075941  0  3.739548  0  0  -0.05392  0  3.970992  0  0  -0.062446  0  3.992348  0  -0.018144  0  -0.0142  -0.048458  0  3.956383  0
C  C78  1  0.98432971  0.29923705  0.28881812  1  0  -0.06087  0  3.743826  0  0  -0.083942  0  3.991421  0  0  -0.082652  0  4.011427  0  -0.009598  0  -0.079708  -0.084695  0  3.978287  0
C  C79  1  0.01568714  0.70075554  0.71117925  1  0  -0.060712  0  3.743766  0  0  -0.083871  0  3.991362  0  0  -0.082584  0  4.01137  0  -0.01005  0  -0.079685  -0.084623  0  3.978234  0
C  C80  1  0.94349626  0.07652915  0.38597476  1  0  0.089772  0  3.828801  0  0  0.108433  0  4.056043  0  0  0.110357  0  4.079358  0  0.061748  0  -0.009278  0.107053  0  4.040584  0
C  C81  1  0.05651284  0.92346591  0.61402313  1  0  0.089971  0  3.828675  0  0  0.108605  0  4.055953  0  0  0.110531  0  4.079264  0  0.061074  0  -0.009223  0.107223  0  4.0405  0
C  C82  1  0.88151069  0.01258346  0.32131337  1  0  -0.114937  0  3.721778  0  0  -0.130269  0  3.963778  0  0  -0.134881  0  3.985771  0  -0.087243  0  -0.085731  -0.127257  0  3.948973  0
C  C83  1  0.11849020  0.98741532  0.67868495  1  0  -0.115125  0  3.721886  0  0  -0.130442  0  3.963887  0  0  -0.135057  0  3.985881  0  -0.086937  0  -0.085781  -0.12743  0  3.949083  0
C  C84  1  0.87433014  0.08841092  0.24195171  1  0  -0.052483  0  3.730063  0  0  -0.074465  0  3.976349  0  0  -0.07298  0  3.994895  0  -0.05992  0  -0.074788  -0.07531  0  3.963827  0
C  C85  1  0.12567030  0.91158909  0.75804714  1  0  -0.05241  0  3.729993  0  0  -0.07438  0  3.976259  0  0  -0.072895  0  3.994808  0  -0.060009  0  -0.074753  -0.075225  0  3.963737  0
C  C86  1  0.95662839  0.98667402  0.46706953  1  0  -0.111452  0  3.756308  0  0  -0.131273  0  4.006914  0  0  -0.132993  0  4.026462  0  -0.060515  0  -0.090492  -0.130153  0  3.993957  0
C  C87  1  0.04338162  0.01332228  0.53292826  1  0  -0.111328  0  3.756127  0  0  -0.131121  0  4.006722  0  0  -0.132842  0  4.026271  0  -0.159741  0  -0.090355  -0.130001  0  3.993764  0
O  O88  1  0.22271244  0.33804801  0.00021675  1  0  -0.903104  0  1.92108  0  0  -0.847125  0  2.113938  0  0  -0.874655  0  2.078657  0  -1.302247  0  -0.612582  -0.833168  0  2.136696  0
O  O89  1  0.77728618  0.66195324  0.99978264  1  0  -0.903033  0  1.921193  0  0  -0.84706  0  2.113998  0  0  -0.874601  0  2.078715  0  -1.302221  0  -0.612572  -0.833105  0  2.136755  0
O  O90  1  0.81667467  0.97368465  0.02360774  1  0  -0.911486  0  1.857907  0  0  -0.864681  0  2.05358  0  0  -0.889889  0  2.016608  0  -1.260726  0  -0.619381  -0.851985  0  2.07589  0
O  O91  1  0.18332166  0.02631908  0.97639452  1  0  -0.911508  0  1.857793  0  0  -0.86471  0  2.05347  0  0  -0.889943  0  2.016477  0  -1.260633  0  -0.619422  -0.852017  0  2.07577  0
O  O92  1  0.79984507  0.27205663  0.90640842  1  0  -0.668835  0  1.972035  0  0  -0.621622  0  2.208603  0  0  -0.650388  0  2.196369  0  -1.179172  0  -0.360888  -0.606146  0  2.216348  0
O  O93  1  0.20015218  0.72794462  0.09359218  1  0  -0.668858  0  1.972002  0  0  -0.621645  0  2.208615  0  0  -0.650419  0  2.196381  0  -1.178866  0  -0.360915  -0.606171  0  2.216352  0
O  O94  1  0.55320870  0.49906380  0.91734043  1  0  -0.862397  0  2.099536  0  0  -0.806016  0  2.369154  0  0  -0.847899  0  2.356244  0  -1.226228  0  -0.445103  -0.789088  0  2.379941  0
O  O95  1  0.44678809  0.50093869  0.08266191  1  0  -0.862381  0  2.099629  0  0  -0.805988  0  2.369253  0  0  -0.847871  0  2.356346  0  -1.226192  0  -0.445101  -0.789035  0  2.379986  0
O  O96  1  0.51398652  0.84910743  0.09054286  1  0  -0.749437  0  2.114792  0  0  -0.69458  0  2.376071  0  0  -0.730926  0  2.36233  0  -1.199392  0  -0.412695  -0.675599  0  2.384167  0
O  O97  1  0.48601344  0.15090125  0.90945603  1  0  -0.749337  0  2.114989  0  0  -0.694555  0  2.376174  0  0  -0.73089  0  2.362441  0  -1.199341  0  -0.412633  -0.675565  0  2.384269  0
O  O98  1  0.46800542  0.10598172  0.12097557  1  0  -0.744868  0  2.013527  0  0  -0.694439  0  2.271123  0  0  -0.728898  0  2.255056  0  -1.20061  0  -0.41012  -0.6769  0  2.280846  0
O  O99  1  0.53198180  0.89402448  0.87902903  1  0  -0.744967  0  2.013752  0  0  -0.694553  0  2.27124  0  0  -0.729023  0  2.25517  0  -1.200986  0  -0.410176  -0.67702  0  2.280962  0
O  O100  1  0.82774179  0.26324896  0.08710766  1  0  -0.769244  0  2.100381  0  0  -0.717675  0  2.374037  0  0  -0.753166  0  2.356303  0  -1.214303  0  -0.437525  -0.699288  0  2.382857  0
O  O101  1  0.17225866  0.73674734  0.91289384  1  0  -0.769216  0  2.100417  0  0  -0.71767  0  2.374047  0  0  -0.753175  0  2.356312  0  -1.214351  0  -0.43754  -0.699291  0  2.382853  0
O  O102  1  0.96969520  0.44074650  0.12368759  1  0  -0.624602  0  1.948867  0  0  -0.560909  0  2.157267  0  0  -0.584726  0  2.145764  0  -1.183692  0  -0.30148  -0.544462  0  2.164431  0
O  O103  1  0.03030389  0.55924980  0.87631091  1  0  -0.624634  0  1.948925  0  0  -0.56095  0  2.157291  0  0  -0.584768  0  2.145787  0  -1.183757  0  -0.301459  -0.544509  0  2.164446  0
