# generated using pymatgen
data_CaH28C26(NO3)4
_symmetry_space_group_name_H-M   'P 1'
_cell_length_a   9.53280810
_cell_length_b   9.65198494
_cell_length_c   10.81902403
_cell_angle_alpha   89.74348840
_cell_angle_beta   121.67319930
_cell_angle_gamma   77.04595159
_symmetry_Int_Tables_number   1
_chemical_formula_structural   CaH28C26(NO3)4
_chemical_formula_sum   'Ca1 H28 C26 N4 O12'
_cell_volume   816.62747734
_cell_formula_units_Z   1
loop_
 _symmetry_equiv_pos_site_id
 _symmetry_equiv_pos_as_xyz
  1  'x, y, z'
loop_
 _atom_site_type_symbol
 _atom_site_label
 _atom_site_symmetry_multiplicity
 _atom_site_fract_x
 _atom_site_fract_y
 _atom_site_fract_z
 _atom_site_occupancy
 _atom_site_hle17_bader_spin_density
 _atom_site_hle17_ddec_charge
 _atom_site_hle17_ddec_spin_density
 _atom_site_hle17_ddec_sum_bond_order
 _atom_site_hle17_magmom
 _atom_site_hse06_10hf_bader_spin_density
 _atom_site_hse06_10hf_ddec_charge
 _atom_site_hse06_10hf_ddec_spin_density
 _atom_site_hse06_10hf_ddec_sum_bond_order
 _atom_site_hse06_10hf_magmom
 _atom_site_hse06_bader_spin_density
 _atom_site_hse06_ddec_charge
 _atom_site_hse06_ddec_spin_density
 _atom_site_hse06_ddec_sum_bond_order
 _atom_site_hse06_magmom
 _atom_site_pbe_bader_spin_density
 _atom_site_pbe_cm5_charge
 _atom_site_pbe_ddec_charge
 _atom_site_pbe_ddec_spin_density
 _atom_site_pbe_ddec_sum_bond_order
 _atom_site_pbe_magmom
Ca  Ca0  1  0.00000308  0.50000578  0.50000899  1  0  1.584691  0  1.149739  0  0  1.457049  0  1.519625  0  0  1.500527  0  1.469739  0  0  0.926258  1.42441  0  1.554894  0
H  H1  1  0.30700990  0.12258027  0.18869122  1  0  0.12695  0  0.971903  0  0  0.131638  0  1.037941  0  0  0.136426  0  1.034217  0  0  0.112017  0.128218  0  1.040612  0
H  H2  1  0.69298386  0.87742405  0.81131539  1  0  0.126922  0  0.971939  0  0  0.131578  0  1.037997  0  0  0.136365  0  1.034275  0  0  0.112011  0.128157  0  1.04066  0
H  H3  1  0.35549138  0.49854627  0.40396344  1  0  0.099365  0  0.972221  0  0  0.106858  0  1.039494  0  0  0.109691  0  1.038811  0  0  0.107036  0.104856  0  1.040001  0
H  H4  1  0.64450400  0.50145810  0.59603346  1  0  0.099326  0  0.972157  0  0  0.106815  0  1.039457  0  0  0.109634  0  1.038788  0  0  0.107001  0.104828  0  1.039953  0
H  H5  1  0.58402216  0.52050098  0.36065576  1  0  0.106693  0  0.958527  0  0  0.113663  0  1.02268  0  0  0.118009  0  1.018845  0  0  0.115603  0.110514  0  1.025477  0
H  H6  1  0.41597138  0.47950369  0.63933768  1  0  0.106632  0  0.958462  0  0  0.113563  0  1.022663  0  0  0.117936  0  1.018799  0  0  0.115545  0.110416  0  1.025458  0
H  H7  1  0.86636181  0.10442315  0.48793728  1  0  0.138828  0  0.94952  0  0  0.157073  0  1.008687  0  0  0.159021  0  1.008701  0  0  0.101506  0.155684  0  1.008718  0
H  H8  1  0.13362533  0.89557925  0.51205111  1  0  0.138847  0  0.94959  0  0  0.157126  0  1.008698  0  0  0.159072  0  1.008714  0  0  0.101511  0.155737  0  1.008733  0
H  H9  1  0.98867270  0.99473948  0.66283418  1  0  0.14805  0  0.947581  0  0  0.164556  0  1.010406  0  0  0.167811  0  1.008584  0  0  0.105555  0.162318  0  1.011618  0
H  H10  1  0.01131633  0.00525441  0.33715207  1  0  0.148035  0  0.947571  0  0  0.164552  0  1.010378  0  0  0.167808  0  1.008555  0  0  0.105586  0.162315  0  1.01159  0
H  H11  1  0.77178864  0.08559426  0.59067077  1  0  0.132003  0  0.935131  0  0  0.152109  0  0.991772  0  0  0.154418  0  0.991405  0  0  0.100413  0.150543  0  0.991927  0
H  H12  1  0.22820108  0.91440664  0.40932414  1  0  0.132049  0  0.935152  0  0  0.152121  0  0.991818  0  0  0.154432  0  0.991448  0  0  0.10041  0.150551  0  0.991978  0
H  H13  1  0.96653109  0.16352473  0.97888900  1  0  0.112626  0  0.949934  0  0  0.132143  0  1.012838  0  0  0.133706  0  1.011754  0  0  0.110581  0.1309  0  1.013875  0
H  H14  1  0.03349823  0.83645768  0.02111987  1  0  0.112569  0  0.950174  0  0  0.13214  0  1.012983  0  0  0.133702  0  1.011899  0  0  0.110612  0.130894  0  1.014026  0
H  H15  1  0.76716278  0.17717123  0.81267209  1  0  0.096392  0  0.919101  0  0  0.116842  0  0.979098  0  0  0.117297  0  0.979139  0  0  0.102195  0.11667  0  0.978743  0
H  H16  1  0.23286438  0.82280496  0.18734538  1  0  0.096435  0  0.91909  0  0  0.116856  0  0.97914  0  0  0.11731  0  0.979178  0  0  0.102258  0.116685  0  0.978786  0
H  H17  1  0.95219056  0.03707372  0.85680948  1  0  0.105527  0  0.952535  0  0  0.124919  0  1.016419  0  0  0.125255  0  1.017102  0  0  0.108578  0.124473  0  1.016246  0
H  H18  1  0.04783137  0.96291076  0.14319211  1  0  0.105627  0  0.9524  0  0  0.125075  0  1.01624  0  0  0.125397  0  1.01693  0  0  0.108635  0.124627  0  1.016071  0
H  H19  1  0.12786870  0.31748593  0.98168478  1  0  0.093389  0  0.975152  0  0  0.112673  0  1.041806  0  0  0.11248  0  1.043296  0  0  0.098735  0.112751  0  1.04083  0
H  H20  1  0.87212188  0.68251300  0.01830108  1  0  0.09335  0  0.975244  0  0  0.112609  0  1.04192  0  0  0.112419  0  1.043411  0  0  0.098718  0.112687  0  1.040948  0
H  H21  1  0.05282286  0.42144691  0.81148858  1  0  0.112831  0  0.96598  0  0  0.127317  0  1.034239  0  0  0.12954  0  1.032146  0  0  0.116118  0.125738  0  1.03575  0
H  H22  1  0.94716521  0.57855233  0.18849640  1  0  0.112804  0  0.965904  0  0  0.127326  0  1.034099  0  0  0.129546  0  1.032012  0  0  0.116125  0.125731  0  1.03562  0
H  H23  1  0.91625530  0.43265083  0.88068686  1  0  0.090785  0  0.947525  0  0  0.113433  0  1.007328  0  0  0.112976  0  1.008951  0  0  0.099775  0.113746  0  1.006166  0
H  H24  1  0.08373337  0.56734416  0.11929834  1  0  0.090726  0  0.947568  0  0  0.113377  0  1.007364  0  0  0.112952  0  1.008954  0  0  0.099742  0.113692  0  1.0062  0
H  H25  1  0.64882127  0.13603618  0.12660633  1  0  0.312636  0  0.929218  0  0  0.282343  0  1.012137  0  0  0.292615  0  1.002985  0  0  0.306637  0.275004  0  1.018732  0
H  H26  1  0.35118397  0.86396859  0.87341275  1  0  0.312432  0  0.929451  0  0  0.28222  0  1.012241  0  0  0.292488  0  1.003093  0  0  0.306584  0.274882  0  1.018825  0
H  H27  1  0.95366168  0.24809472  0.22872143  1  0  0.402585  0  0.897353  0  0  0.366316  0  0.982957  0  0  0.381011  0  0.963646  0  0  0.298111  0.356039  0  0.993399  0
H  H28  1  0.04633311  0.75191360  0.77128742  1  0  0.402517  0  0.897459  0  0  0.366283  0  0.983051  0  0  0.380946  0  0.963756  0  0  0.298098  0.356018  0  0.993458  0
C  C29  1  0.72580535  0.34957438  0.24642952  1  0  0.680044  0  3.880949  0  0  0.625306  0  4.185215  0  0  0.660892  0  4.174913  0  0  0.228223  0.601171  0  4.191316  0
C  C30  1  0.27419499  0.65043979  0.75357005  1  0  0.680007  0  3.881299  0  0  0.625367  0  4.185415  0  0  0.660952  0  4.175111  0  0  0.228204  0.601226  0  4.191525  0
C  C31  1  0.57814919  0.33314243  0.25578230  1  0  -0.146898  0  3.67426  0  0  -0.133228  0  3.9155  0  0  -0.142837  0  3.936884  0  0  -0.011274  -0.126795  0  3.901032  0
C  C32  1  0.42183588  0.66686853  0.74420722  1  0  -0.146952  0  3.67435  0  0  -0.133216  0  3.915508  0  0  -0.142826  0  3.9369  0  0  -0.011251  -0.126785  0  3.901043  0
C  C33  1  0.49685108  0.22054170  0.20411233  1  0  0.260895  0  3.739756  0  0  0.249029  0  3.989659  0  0  0.258407  0  4.010748  0  0  0.113984  0.242684  0  3.975511  0
C  C34  1  0.50313517  0.77945945  0.79588884  1  0  0.261063  0  3.739791  0  0  0.249085  0  3.989811  0  0  0.258464  0  4.010896  0  0  0.114071  0.242739  0  3.975665  0
C  C35  1  0.36912191  0.20844574  0.22896493  1  0  -0.173225  0  3.692603  0  0  -0.205365  0  3.946856  0  0  -0.208973  0  3.964162  0  0  -0.088405  -0.203225  0  3.935396  0
C  C36  1  0.63087386  0.79155311  0.77104239  1  0  -0.173201  0  3.692203  0  0  -0.205252  0  3.946506  0  0  -0.208859  0  3.96381  0  0  -0.088472  -0.203109  0  3.935035  0
C  C37  1  0.32117748  0.30718251  0.30275772  1  0  -0.053549  0  3.793985  0  0  -0.033935  0  4.032887  0  0  -0.039059  0  4.054512  0  0  -0.013494  -0.030372  0  4.018328  0
C  C38  1  0.67883398  0.69280611  0.69725233  1  0  -0.053584  0  3.793924  0  0  -0.034124  0  4.032847  0  0  -0.039247  0  4.054463  0  0  -0.013555  -0.030562  0  4.018296  0
C  C39  1  0.39783445  0.42028488  0.35045819  1  0  -0.091012  0  3.75618  0  0  -0.117907  0  4.010734  0  0  -0.120379  0  4.032171  0  0  -0.088946  -0.116505  0  3.996372  0
C  C40  1  0.60216622  0.57971763  0.64954712  1  0  -0.090929  0  3.756367  0  0  -0.117801  0  4.010904  0  0  -0.120261  0  4.032352  0  0  -0.088862  -0.116414  0  3.996541  0
C  C41  1  0.52358691  0.43267171  0.32566883  1  0  -0.05479  0  3.75112  0  0  -0.078249  0  4.003809  0  0  -0.077471  0  4.023128  0  0  -0.076694  -0.078627  0  3.990761  0
C  C42  1  0.47641399  0.56733720  0.67433001  1  0  -0.054689  0  3.750991  0  0  -0.07811  0  4.003634  0  0  -0.077358  0  4.022944  0  0  -0.076615  -0.078478  0  3.990582  0
C  C43  1  0.18003730  0.30089249  0.32409397  1  0  0.682358  0  3.824589  0  0  0.632039  0  4.120015  0  0  0.667013  0  4.108841  0  0  0.246395  0.608147  0  4.127571  0
C  C44  1  0.81996913  0.69911331  0.67591991  1  0  0.68225  0  3.824595  0  0  0.632256  0  4.119563  0  0  0.667233  0  4.108384  0  0  0.246592  0.608364  0  4.127122  0
C  C45  1  0.45603218  0.03647109  0.03871206  1  0  0.445771  0  3.829588  0  0  0.407479  0  4.109873  0  0  0.43274  0  4.108958  0  0  0.245846  0.390599  0  4.109861  0
C  C46  1  0.54398068  0.96351821  0.96130597  1  0  0.445948  0  3.829113  0  0  0.407629  0  4.109438  0  0  0.432906  0  4.108504  0  0  0.245898  0.390747  0  4.109424  0
C  C47  1  0.94667688  0.22204511  0.66785265  1  0  0.598632  0  3.769237  0  0  0.558825  0  4.051833  0  0  0.58852  0  4.052045  0  0  0.253492  0.538685  0  4.051094  0
C  C48  1  0.05331653  0.77794918  0.33213889  1  0  0.59902  0  3.768933  0  0  0.5591  0  4.051746  0  0  0.588799  0  4.051946  0  0  0.253488  0.538877  0  4.051116  0
C  C49  1  0.88857568  0.09446791  0.59787410  1  0  -0.43809  0  3.66613  0  0  -0.513757  0  3.899296  0  0  -0.520455  0  3.90285  0  0  -0.236409  -0.509112  0  3.896699  0
C  C50  1  0.11141386  0.90552892  0.40211701  1  0  -0.438229  0  3.666238  0  0  -0.513857  0  3.899396  0  0  -0.520558  0  3.902948  0  0  -0.236447  -0.509195  0  3.896843  0
C  C51  1  0.90648035  0.14976333  0.86308697  1  0  -0.166462  0  3.651651  0  0  -0.266745  0  3.902744  0  0  -0.263293  0  3.913394  0  0  -0.13199  -0.268769  0  3.895557  0
C  C52  1  0.09353743  0.85022172  0.13691128  1  0  -0.166639  0  3.651481  0  0  -0.266948  0  3.902602  0  0  -0.263477  0  3.91326  0  0  -0.132218  -0.268972  0  3.895427  0
C  C53  1  0.01623152  0.36125932  0.87080537  1  0  -0.167851  0  3.656369  0  0  -0.267887  0  3.903952  0  0  -0.263913  0  3.91385  0  0  -0.136698  -0.270355  0  3.897216  0
C  C54  1  0.98376269  0.63873610  0.12917897  1  0  -0.167699  0  3.656301  0  0  -0.267728  0  3.903914  0  0  -0.263783  0  3.913794  0  0  -0.136672  -0.270191  0  3.897195  0
N  N55  1  0.54267480  0.12638169  0.12624227  1  0  -0.418798  0  3.392761  0  0  -0.363242  0  3.628493  0  0  -0.386306  0  3.637809  0  0  -0.388817  -0.347767  0  3.622071  0
N  N56  1  0.45733298  0.87361676  0.87376741  1  0  -0.418708  0  3.393056  0  0  -0.363176  0  3.628869  0  0  -0.38624  0  3.638182  0  0  -0.38879  -0.3477  0  3.622441  0
N  N57  1  0.95449309  0.24372379  0.79383948  1  0  -0.143428  0  3.441759  0  0  -0.045436  0  3.675636  0  0  -0.0669  0  3.700011  0  0  -0.27761  -0.031034  0  3.65881  0
N  N58  1  0.04550872  0.75626218  0.20615409  1  0  -0.143503  0  3.441363  0  0  -0.04555  0  3.675382  0  0  -0.067018  0  3.699756  0  0  -0.277525  -0.031116  0  3.658577  0
O  O59  1  0.77414098  0.46274757  0.27931358  1  0  -0.690769  0  1.963317  0  0  -0.637282  0  2.201575  0  0  -0.662582  0  2.188622  0  0  -0.373126  -0.619265  0  2.209836  0
O  O60  1  0.22585384  0.53726939  0.72068311  1  0  -0.690828  0  1.963576  0  0  -0.637354  0  2.201773  0  0  -0.662658  0  2.188821  0  0  -0.373182  -0.619334  0  2.210046  0
O  O61  1  0.79918798  0.24350826  0.21003797  1  0  -0.607581  0  2.025949  0  0  -0.54894  0  2.24982  0  0  -0.573872  0  2.235154  0  0  -0.303453  -0.531517  0  2.258396  0
O  O62  1  0.20081065  0.75650002  0.78995445  1  0  -0.607407  0  2.026011  0  0  -0.548911  0  2.249908  0  0  -0.573822  0  2.235246  0  0  -0.303407  -0.531487  0  2.258465  0
O  O63  1  0.32360841  0.01205516  0.01783441  1  0  -0.492439  0  1.931101  0  0  -0.452996  0  2.136461  0  0  -0.470246  0  2.131324  0  0  -0.279323  -0.440742  0  2.139417  0
O  O64  1  0.67640203  0.98794544  0.98216031  1  0  -0.492734  0  1.93062  0  0  -0.453244  0  2.135983  0  0  -0.4705  0  2.130837  0  0  -0.279482  -0.440988  0  2.138941  0
O  O65  1  0.17052456  0.35716395  0.42382968  1  0  -0.651569  0  1.970588  0  0  -0.601891  0  2.208472  0  0  -0.625343  0  2.195552  0  0  -0.335773  -0.585654  0  2.21756  0
O  O66  1  0.82947205  0.64285361  0.57617699  1  0  -0.651468  0  1.970454  0  0  -0.601932  0  2.208195  0  0  -0.625383  0  2.195277  0  0  -0.33586  -0.585694  0  2.21728  0
O  O67  1  0.06952780  0.23718983  0.22758961  1  0  -0.559312  0  2.098011  0  0  -0.505262  0  2.32207  0  0  -0.529523  0  2.305162  0  0  -0.312697  -0.488566  0  2.331538  0
O  O68  1  0.93047859  0.76281877  0.77243828  1  0  -0.559294  0  2.09805  0  0  -0.505346  0  2.321921  0  0  -0.529592  0  2.305001  0  0  -0.312754  -0.488655  0  2.331375  0
O  O69  1  0.98868409  0.30372043  0.60924433  1  0  -0.682883  0  1.976566  0  0  -0.630926  0  2.220733  0  0  -0.656907  0  2.211092  0  0  -0.379162  -0.612601  0  2.226904  0
O  O70  1  0.01129512  0.69627787  0.39073565  1  0  -0.683092  0  1.976577  0  0  -0.631091  0  2.220823  0  0  -0.657073  0  2.211178  0  0  -0.379183  -0.612735  0  2.227026  0
