# generated using pymatgen
data_CuH26C14O5
_symmetry_space_group_name_H-M   'P 1'
_cell_length_a   8.85292758
_cell_length_b   9.81988006
_cell_length_c   10.96757075
_cell_angle_alpha   84.81405047
_cell_angle_beta   66.35626164
_cell_angle_gamma   71.36810016
_symmetry_Int_Tables_number   1
_chemical_formula_structural   CuH26C14O5
_chemical_formula_sum   'Cu2 H52 C28 O10'
_cell_volume   826.86739051
_cell_formula_units_Z   2
loop_
 _symmetry_equiv_pos_site_id
 _symmetry_equiv_pos_as_xyz
  1  'x, y, z'
loop_
 _atom_site_type_symbol
 _atom_site_label
 _atom_site_symmetry_multiplicity
 _atom_site_fract_x
 _atom_site_fract_y
 _atom_site_fract_z
 _atom_site_occupancy
 _atom_site_hle17_ddec_charge
 _atom_site_hle17_ddec_spin_density
 _atom_site_hle17_ddec_sum_bond_order
 _atom_site_hle17_magmom
 _atom_site_hse06_10hf_ddec_charge
 _atom_site_hse06_10hf_ddec_spin_density
 _atom_site_hse06_10hf_ddec_sum_bond_order
 _atom_site_hse06_10hf_magmom
 _atom_site_hse06_ddec_charge
 _atom_site_hse06_ddec_spin_density
 _atom_site_hse06_ddec_sum_bond_order
 _atom_site_hse06_magmom
 _atom_site_pbe_cm5_charge
 _atom_site_pbe_ddec_charge
 _atom_site_pbe_ddec_spin_density
 _atom_site_pbe_ddec_sum_bond_order
 _atom_site_pbe_magmom
Cu  Cu0  1  0.12592740  0.52389506  0.00974050  1  0.851741  0.659526  1.88436  0.471  0.84208  0.788025  2.288892  0.618  0.943617  0.877968  2.206293  0.716  0.673767  0.776577  0.685725  2.347672  0.528
Cu  Cu1  1  0.87410209  0.47610921  0.99026029  1  0.851902  -0.659535  1.884253  -0.472  0.84232  -0.788032  2.28877  -0.618  0.943745  -0.877967  2.206191  -0.716  0.673894  0.77669  -0.685745  2.347684  -0.528
H  H2  1  0.16677207  0.48868216  0.54823195  1  0.109019  0.0011  0.915026  0.001  0.125174  0.000792  0.96637  0.001  0.127235  0.000535  0.965678  0.001  0.101499  0.12303  0.000847  0.967812  0.001
H  H3  1  0.83321726  0.51132086  0.45177535  1  0.108984  -0.001096  0.915081  -0.001  0.125148  -0.000791  0.96641  -0.001  0.127209  -0.000535  0.965717  -0.001  0.101487  0.123003  -0.000848  0.967853  -0.001
H  H4  1  0.35223451  0.51203217  0.56075939  1  0.099304  -0.000986  0.95105  -0.001  0.112472  -0.000651  1.013521  -0.001  0.114091  -0.000439  1.013422  0.0  0.097387  0.110641  -0.000776  1.014634  -0.001
H  H5  1  0.64775896  0.48796654  0.43924330  1  0.099253  0.000989  0.950978  0.001  0.112442  0.000651  1.013438  0.001  0.11406  0.000439  1.013339  0.0  0.097385  0.110611  0.000776  1.014552  0.001
H  H6  1  0.58508407  0.29423646  0.59160569  1  0.094418  3.8e-05  0.952851  0.0  0.116588  4.9e-05  1.014212  0.0  0.117828  3.1e-05  1.014526  0.0  0.084018  0.115508  4.3e-05  1.01452  0.0
H  H7  1  0.41490982  0.70576117  0.40839604  1  0.094385  -4.1e-05  0.952912  0.0  0.116563  -4.9e-05  1.014268  0.0  0.117807  -3.1e-05  1.014579  0.0  0.083996  0.11548  -4.3e-05  1.014577  0.0
H  H8  1  0.43045622  0.24109364  0.73239072  1  0.105346  -2.7e-05  0.961372  0.0  0.125518  -8e-06  1.022853  0.0  0.126918  -2.6e-05  1.023174  0.0  0.085085  0.124453  1.8e-05  1.022677  0.0
H  H9  1  0.56954096  0.75889861  0.26760767  1  0.105291  2.3e-05  0.961362  0.0  0.125468  8e-06  1.022851  0.0  0.126867  2.6e-05  1.023174  0.0  0.085065  0.124401  -1.8e-05  1.022673  0.0
H  H10  1  0.56532251  0.11968736  0.59228203  1  0.093866  3.2e-05  0.961739  0.0  0.115374  2.6e-05  1.025139  0.0  0.116335  1.8e-05  1.026006  0.0  0.08447  0.114585  1.8e-05  1.024596  0.0
H  H11  1  0.43466655  0.88031022  0.40771304  1  0.093926  -3.4e-05  0.961726  0.0  0.115422  -2.6e-05  1.025113  0.0  0.116385  -1.8e-05  1.025981  0.0  0.084472  0.114631  -1.8e-05  1.024569  0.0
H  H12  1  0.52415913  0.16080278  0.37589154  1  0.100081  -9e-06  0.949879  0.0  0.122733  -9e-06  1.008869  0.0  0.123536  -6e-06  1.009981  0.0  0.087505  0.121537  1.1e-05  1.009107  0.0
H  H13  1  0.47582497  0.83920126  0.62410822  1  0.100072  1.4e-05  0.949948  0.0  0.12275  9e-06  1.008896  0.0  0.123552  6e-06  1.010013  0.0  0.087493  0.121567  -1.1e-05  1.009118  0.0
H  H14  1  0.35377767  0.30919304  0.36251292  1  0.094214  4e-05  0.966901  0.0  0.116696  5.6e-05  1.028416  0.0  0.116987  3.9e-05  1.030211  0.0  0.086716  0.116669  6.3e-05  1.026652  0.0
H  H15  1  0.64620020  0.69081100  0.63749521  1  0.094257  -4e-05  0.966831  0.0  0.116761  -5.6e-05  1.028324  0.0  0.117049  -3.8e-05  1.030121  0.0  0.086803  0.11673  -6.3e-05  1.026567  0.0
H  H16  1  0.53871600  0.33794514  0.36997489  1  0.100971  -0.000104  0.964721  0.0  0.121115  -0.000125  1.029355  0.0  0.122499  -7.2e-05  1.029712  0.0  0.086503  0.120019  -0.000129  1.02936  0.0
H  H17  1  0.46126565  0.66205889  0.63002474  1  0.100996  0.000108  0.964672  0.0  0.121108  0.000125  1.029341  0.0  0.12251  7.2e-05  1.029681  0.0  0.086496  0.12  0.000129  1.029362  0.0
H  H18  1  0.16523264  0.20391052  0.71672572  1  0.110803  3.4e-05  0.9582  0.0  0.13161  2e-05  1.016733  0.0  0.132939  3.5e-05  1.017471  0.0  0.087706  0.130672  -1.5e-05  1.016125  0.0
H  H19  1  0.83475474  0.79609461  0.28327382  1  0.110814  -3.5e-05  0.958165  0.0  0.131623  -2e-05  1.016722  0.0  0.132965  -3.5e-05  1.017443  0.0  0.087705  0.130686  1.5e-05  1.016111  0.0
H  H20  1  0.12929019  0.24037516  0.56782256  1  0.096794  -2.4e-05  0.947494  0.0  0.11927  -2e-05  1.006871  0.0  0.120712  -1.1e-05  1.006841  0.0  0.085154  0.118116  -3.2e-05  1.007258  0.0
H  H21  1  0.87069556  0.75963427  0.43217714  1  0.096892  2.3e-05  0.94743  0.0  0.119364  2e-05  1.006805  0.0  0.120806  1.1e-05  1.006776  0.0  0.085171  0.11821  3.2e-05  1.007193  0.0
H  H22  1  0.30094804  0.08752965  0.57305004  1  0.087735  -3.2e-05  0.971384  0.0  0.108067  -2e-05  1.03863  0.0  0.109009  -1.4e-05  1.039384  0.0  0.082267  0.107289  -2.6e-05  1.038351  0.0
H  H23  1  0.69903401  0.91247331  0.42695046  1  0.087688  3.1e-05  0.97144  0.0  0.108059  2e-05  1.038642  0.0  0.108996  1.5e-05  1.039402  0.0  0.082248  0.107283  2.6e-05  1.038363  0.0
H  H24  1  0.65195372  0.96146249  0.99705285  1  0.101732  0.001048  0.931156  0.001  0.114972  0.000692  0.991226  0.001  0.116794  0.000463  0.990794  0.0  0.097022  0.113067  0.000785  0.992577  0.001
H  H25  1  0.34807078  0.03853532  0.00295462  1  0.101671  -0.001049  0.931341  -0.001  0.11497  -0.000692  0.991348  -0.001  0.116784  -0.000464  0.99092  0.0  0.09705  0.113065  -0.000785  0.992701  -0.001
H  H26  1  0.83715226  0.99283264  0.00323571  1  0.11422  -0.001217  0.923028  -0.001  0.1284  -0.000892  0.978432  -0.001  0.130445  -0.000598  0.977955  -0.001  0.102971  0.126195  -0.000852  0.979965  -0.001
H  H27  1  0.16288192  0.00717266  0.99674892  1  0.114148  0.001215  0.922973  0.001  0.128331  0.000891  0.978416  0.001  0.130371  0.000597  0.977938  0.001  0.102939  0.126126  0.000852  0.97995  0.001
H  H28  1  0.84218294  0.75318513  0.74093625  1  0.104384  -2e-06  0.964264  0.0  0.123874  -1.5e-05  1.026657  0.0  0.125387  1.2e-05  1.026934  0.0  0.083309  0.122866  -4.8e-05  1.026417  0.0
H  H29  1  0.15781256  0.24681144  0.25906779  1  0.104364  2e-06  0.964307  0.0  0.123854  1.5e-05  1.026692  0.0  0.125368  -1.2e-05  1.026966  0.0  0.0833  0.122844  4.8e-05  1.026455  0.0
H  H30  1  0.65211382  0.90380993  0.77687300  1  0.09421  -2.1e-05  0.950347  0.0  0.116683  -2.3e-05  1.010731  0.0  0.117736  -1.4e-05  1.011419  0.0  0.083668  0.115834  -2e-05  1.010709  0.0
H  H31  1  0.34787992  0.09618776  0.22314154  1  0.094164  2e-05  0.950377  0.0  0.116636  2.3e-05  1.010753  0.0  0.117682  1.5e-05  1.011448  0.0  0.083639  0.1158  2e-05  1.010716  0.0
H  H32  1  0.83697888  0.89443664  0.62736104  1  0.091593  -3.5e-05  0.961436  0.0  0.112891  -2.6e-05  1.024579  0.0  0.113873  -1.8e-05  1.025205  0.0  0.083489  0.11207  -2e-05  1.024255  0.0
H  H33  1  0.16300434  0.10555987  0.37264418  1  0.09153  3.7e-05  0.961541  0.0  0.112842  2.6e-05  1.024661  0.0  0.113828  1.8e-05  1.025281  0.0  0.083482  0.112018  2e-05  1.02434  0.0
H  H34  1  0.11682301  0.78424021  0.74878669  1  0.102769  -3.6e-05  0.971426  0.0  0.122783  -2.1e-05  1.033255  0.0  0.123886  -3.5e-05  1.034105  0.0  0.083231  0.122114  4e-06  1.03245  0.0
H  H35  1  0.88318166  0.21575202  0.25120111  1  0.102772  4.5e-05  0.971487  0.0  0.122734  2.1e-05  1.033371  0.0  0.123837  3.5e-05  1.034224  0.0  0.08322  0.122067  -4e-06  1.032559  0.0
H  H36  1  0.10841030  0.92433702  0.63468476  1  0.093001  3.3e-05  0.954571  0.0  0.115458  1.9e-05  1.015144  0.0  0.116332  1.3e-05  1.016  0.0  0.083917  0.114836  1.9e-05  1.014349  0.0
H  H37  1  0.89158497  0.07565085  0.36530183  1  0.092879  -2.5e-05  0.954565  0.0  0.115369  -1.9e-05  1.015114  0.0  0.116248  -1.4e-05  1.015965  0.0  0.083868  0.114743  -1.9e-05  1.014325  0.0
H  H38  1  0.11419564  0.95579324  0.78960621  1  0.099058  2.8e-05  0.952181  0.0  0.121188  1.9e-05  1.01305  0.0  0.122569  1.2e-05  1.01318  0.0  0.086425  0.120012  1.9e-05  1.013545  0.0
H  H39  1  0.88581856  0.04419684  0.21037052  1  0.099008  -2.1e-05  0.952219  0.0  0.121122  -1.9e-05  1.013096  0.0  0.122506  -1.2e-05  1.013224  0.0  0.086394  0.119948  -1.9e-05  1.013592  0.0
H  H40  1  0.83943595  0.13596101  0.67995315  1  0.094425  -1.9e-05  0.946828  0.0  0.117285  -1.4e-05  1.005304  0.0  0.11807  -7e-06  1.006307  0.0  0.084379  0.116365  -8e-06  1.00509  0.0
H  H41  1  0.16056418  0.86403337  0.32003865  1  0.09441  2.1e-05  0.94677  0.0  0.117265  1.4e-05  1.005257  0.0  0.11805  7e-06  1.006262  0.0  0.084351  0.116348  8e-06  1.005042  0.0
H  H42  1  0.65307730  0.15143543  0.82976434  1  0.094669  5.4e-05  0.958108  0.0  0.115181  8.2e-05  1.023534  0.0  0.11604  5.1e-05  1.024326  0.0  0.084123  0.114518  6.5e-05  1.02313  0.0
H  H43  1  0.34692476  0.84856009  0.17023769  1  0.094696  -5.3e-05  0.958079  0.0  0.115181  -8.2e-05  1.023537  0.0  0.116041  -5.1e-05  1.02433  0.0  0.084137  0.114519  -6.5e-05  1.023129  0.0
H  H44  1  0.84225387  0.17381385  0.83466688  1  0.118412  -6.3e-05  0.957273  0.0  0.136462  -7.8e-05  1.018609  0.0  0.138309  -4.9e-05  1.018426  0.0  0.09085  0.13491  -5.3e-05  1.018991  0.0
H  H45  1  0.15775652  0.82618273  0.16532239  1  0.118474  6.3e-05  0.957289  0.0  0.136551  7.7e-05  1.01857  0.0  0.138418  4.9e-05  1.018365  0.0  0.090885  0.135003  5.3e-05  1.018953  0.0
H  H46  1  0.39345239  0.68127400  0.86518524  1  0.082251  -3.9e-05  0.924147  0.0  0.099675  -3.6e-05  0.982336  0.0  0.100655  -4e-05  0.981833  0.0  0.113079  0.09863  -3.5e-05  0.983299  0.0
H  H47  1  0.60654145  0.31873011  0.13482144  1  0.082233  3.6e-05  0.924204  0.0  0.099646  3.6e-05  0.982385  0.0  0.100623  4e-05  0.981881  0.0  0.113075  0.098598  3.5e-05  0.983346  0.0
H  H48  1  0.50783248  0.69769033  0.96410964  1  0.067673  -5e-05  0.944326  0.0  0.080712  -7.6e-05  1.01245  0.0  0.083062  -3.2e-05  1.01013  0.0  0.101009  0.078401  -8.4e-05  1.014963  0.0
H  H49  1  0.49216795  0.30231273  0.03589321  1  0.067632  4.5e-05  0.944428  0.0  0.080695  7.7e-05  1.012498  0.0  0.083046  3.2e-05  1.010175  0.0  0.100998  0.078378  8.4e-05  1.015018  0.0
H  H50  1  0.28812410  0.48458717  0.21897483  1  0.078718  -5e-06  0.926478  0.0  0.095333  1.5e-05  0.986123  0.0  0.097121  -9e-06  0.984121  0.0  0.110467  0.093621  4.1e-05  0.988078  0.0
H  H51  1  0.71186531  0.51541259  0.78102541  1  0.0787  3e-06  0.926547  0.0  0.095311  -1.6e-05  0.986147  0.0  0.097091  9e-06  0.984166  0.0  0.110451  0.09362  -4.1e-05  0.988085  0.0
H  H52  1  0.44461006  0.57959408  0.17634579  1  0.066455  2.5e-05  0.929307  0.0  0.08092  1e-05  0.995257  0.0  0.08247  1.7e-05  0.993906  0.0  0.103904  0.079339  2e-06  0.996871  0.0
H  H53  1  0.55537633  0.42040680  0.82366808  1  0.066575  -2.6e-05  0.929231  0.0  0.081003  -1e-05  0.99517  0.0  0.08256  -1.7e-05  0.993818  0.0  0.103937  0.079427  -2e-06  0.996793  0.0
C  C54  1  0.15884987  0.48139101  0.74582802  1  0.693161  -0.000138  3.80861  0.0  0.658906  -0.000215  4.106237  0.0  0.699686  -0.000178  4.099112  0.0  0.215616  0.63134  -0.000158  4.110292  0.0
C  C55  1  0.84115386  0.51860990  0.25417213  1  0.693283  0.000153  3.808279  0.0  0.658879  0.000214  4.106155  0.0  0.699656  0.000172  4.099031  0.0  0.215558  0.631312  0.000156  4.110203  0.0
C  C56  1  0.25863781  0.45145766  0.59722410  1  -0.311202  -0.000131  3.603401  0.0  -0.349879  -1.4e-05  3.832594  0.0  -0.358788  -0.0  3.841066  0.0  -0.15691  -0.342294  -3.7e-05  3.826494  0.0
C  C57  1  0.74135692  0.54854428  0.40277610  1  -0.311154  0.000109  3.603298  0.0  -0.34978  1.4e-05  3.83249  0.0  -0.35869  3e-06  3.840969  0.0  -0.156881  -0.342197  4.1e-05  3.826392  0.0
C  C58  1  0.35730571  0.28872055  0.56073700  1  0.261285  8.5e-05  3.573208  0.0  0.300802  3.7e-05  3.798007  0.0  0.302347  1.5e-05  3.818692  0.0  -0.016055  0.2996  2.4e-05  3.783172  0.0
C  C59  1  0.64268244  0.71127921  0.43926638  1  0.261318  -7.9e-05  3.573072  0.0  0.300825  -3.6e-05  3.79788  0.0  0.30237  -1.6e-05  3.818568  0.0  -0.01604  0.29963  -2.3e-05  3.783032  0.0
C  C60  1  0.49183884  0.23323290  0.62303804  1  -0.345099  6.3e-05  3.663217  0.0  -0.424138  7.4e-05  3.897515  0.0  -0.42739  2e-05  3.908912  0.0  -0.245536  -0.42094  6.9e-05  3.88887  0.0
C  C61  1  0.50814603  0.76676578  0.37696556  1  -0.345068  -5e-05  3.663056  0.0  -0.424102  -7.6e-05  3.897358  0.0  -0.42736  -2e-05  3.908758  0.0  -0.2455  -0.420904  -6.8e-05  3.888718  0.0
C  C62  1  0.44904110  0.27371685  0.40841969  1  -0.344333  -6.7e-05  3.65557  0.0  -0.424043  -9.2e-05  3.89075  0.0  -0.42795  -6.3e-05  3.904016  0.0  -0.2426  -0.420641  -2.3e-05  3.880791  0.0
C  C63  1  0.55094463  0.72628936  0.59158120  1  -0.344428  5.2e-05  3.655613  0.0  -0.424156  9.2e-05  3.890814  0.0  -0.428068  6.2e-05  3.904054  0.0  -0.242686  -0.420753  2.4e-05  3.880868  0.0
C  C64  1  0.23058881  0.20051972  0.60775970  1  -0.345807  1.4e-05  3.662158  0.0  -0.425359  -2e-05  3.896862  0.0  -0.42872  1.7e-05  3.908231  0.0  -0.246121  -0.422131  -9.1e-05  3.888072  0.0
C  C65  1  0.76939976  0.79948543  0.39224310  1  -0.345915  -1e-05  3.662069  0.0  -0.425508  1.9e-05  3.896794  0.0  -0.428877  -1.6e-05  3.908155  0.0  -0.246144  -0.422282  9.2e-05  3.88801  0.0
C  C66  1  0.86087600  0.77088086  0.98620520  1  0.693344  -0.000119  3.808987  0.0  0.659746  -1.4e-05  4.10754  0.0  0.700597  -2.7e-05  4.100584  0.0  0.213878  0.63196  -6.5e-05  4.111296  0.0
C  C67  1  0.13915763  0.22911909  0.01379098  1  0.693515  0.000113  3.808757  0.0  0.659971  1.1e-05  4.107296  0.0  0.700821  1.8e-05  4.100334  0.0  0.214049  0.63219  6.1e-05  4.111051  0.0
C  C68  1  0.79456771  0.92683173  0.95578004  1  -0.311722  0.000132  3.593822  0.0  -0.349674  -1.4e-05  3.824471  0.0  -0.358932  -1.2e-05  3.833156  0.0  -0.155684  -0.341907  -0.000104  3.818225  0.0
C  C69  1  0.20546102  0.07316496  0.04421432  1  -0.311591  -0.000121  3.593679  0.0  -0.349624  1.3e-05  3.82442  0.0  -0.358863  2.2e-05  3.833085  0.0  -0.155712  -0.341852  0.000109  3.818164  0.0
C  C70  1  0.86302313  0.95047862  0.80321436  1  0.263718  1e-05  3.566344  0.0  0.303721  -1e-06  3.790412  0.0  0.305258  -0.0  3.811156  0.0  -0.01379  0.302604  3.6e-05  3.775499  0.0
C  C71  1  0.13697732  0.04951796  0.19678629  1  0.263726  5e-06  3.566369  0.0  0.303732  1e-06  3.790465  0.0  0.305262  -1e-06  3.811219  0.0  -0.013775  0.302611  -3.5e-05  3.775557  0.0
C  C72  1  0.79476135  0.87024763  0.73354140  1  -0.349414  -0.0  3.670722  0.0  -0.427745  -3e-05  3.904982  0.0  -0.431033  9e-06  3.916524  0.0  -0.248643  -0.424792  -5.7e-05  3.896239  0.0
C  C73  1  0.20523169  0.12974893  0.26646251  1  -0.349312  -5e-06  3.670858  0.0  -0.42761  3e-05  3.905052  0.0  -0.430901  -1e-05  3.916613  0.0  -0.248596  -0.424661  5.8e-05  3.896298  0.0
C  C74  1  0.06207198  0.90025708  0.74083053  1  -0.344654  -3.3e-05  3.658114  0.0  -0.421937  1.4e-05  3.889503  0.0  -0.425192  -2.5e-05  3.9012  0.0  -0.247343  -0.418845  4.6e-05  3.880499  0.0
C  C75  1  0.93793890  0.09973516  0.25915074  1  -0.344453  -1.1e-05  3.658289  0.0  -0.421698  -1.4e-05  3.889644  0.0  -0.42496  2.5e-05  3.901347  0.0  -0.247218  -0.418605  -4.5e-05  3.880639  0.0
C  C76  1  0.79574449  0.11249090  0.78634773  1  -0.347187  -1.1e-05  3.647844  0.0  -0.425718  0.0  3.884384  0.0  -0.429691  7e-06  3.897095  0.0  -0.245166  -0.422237  -2.7e-05  3.874439  0.0
C  C77  1  0.20426094  0.88750567  0.21364586  1  -0.347311  5e-06  3.647784  0.0  -0.425851  1e-06  3.884347  0.0  -0.429833  -8e-06  3.89703  0.0  -0.245227  -0.422378  2.8e-05  3.874414  0.0
C  C78  1  0.45779019  0.62528556  0.93076368  1  0.039372  -0.000218  3.621233  0.0  -0.023149  -0.000175  3.889323  0.0  -0.016739  -0.000139  3.893702  0.0  -0.078533  -0.027129  -0.000176  3.886097  0.0
C  C79  1  0.54220734  0.37471857  0.06924183  1  0.039312  0.000235  3.621316  0.0  -0.023116  0.000173  3.889345  0.0  -0.016704  0.000139  3.893696  0.0  -0.078514  -0.027091  0.000175  3.886093  0.0
C  C80  1  0.39658115  0.50972030  0.13765763  1  0.050087  -0.00013  3.617849  0.0  -0.013206  -0.00011  3.88709  0.0  -0.00644  -0.000102  3.891305  0.0  -0.075476  -0.017412  -8.6e-05  3.883883  0.0
C  C81  1  0.60341189  0.49028273  0.86234757  1  0.049884  0.000132  3.617917  0.0  -0.013262  0.000111  3.887036  0.0  -0.006516  0.000103  3.891281  0.0  -0.075452  -0.017502  8.6e-05  3.883854  0.0
O  O82  1  0.23724354  0.50942031  0.81130529  1  -0.588532  0.075071  2.075193  0.098  -0.562678  0.053346  2.356545  0.077  -0.606035  0.043246  2.349489  0.066  -0.31377  -0.534823  0.05485  2.362629  0.076
O  O83  1  0.76276514  0.49058060  0.18869146  1  -0.588507  -0.07508  2.07499  -0.099  -0.562729  -0.05334  2.356411  -0.077  -0.606063  -0.043244  2.349341  -0.066  -0.313836  -0.53485  -0.054846  2.362491  -0.076
O  O84  1  0.99406357  0.52884000  0.20563193  1  -0.579277  0.075288  2.077288  0.099  -0.554223  0.053  2.352398  0.076  -0.597411  0.04292  2.34513  0.065  -0.313281  -0.526342  0.054583  2.358443  0.075
O  O85  1  0.00593758  0.47116417  0.79437972  1  -0.579221  -0.075302  2.077422  -0.099  -0.554255  -0.053006  2.352397  -0.076  -0.597423  -0.042924  2.345116  -0.065  -0.313392  -0.526349  -0.054585  2.35844  -0.075
O  O86  1  0.00292119  0.73189002  0.00292233  1  -0.574993  0.077083  2.056837  0.101  -0.553366  0.053319  2.333313  0.076  -0.596323  0.043062  2.325995  0.065  -0.313307  -0.524902  0.055388  2.339381  0.077
O  O87  1  0.99710672  0.26812177  0.99707561  1  -0.575124  -0.077064  2.056521  -0.101  -0.5535  -0.053309  2.333155  -0.076  -0.596436  -0.043057  2.325825  -0.065  -0.313377  -0.525015  -0.055381  2.339217  -0.077
O  O88  1  0.22662144  0.31091061  0.01271544  1  -0.589631  0.07746  2.073847  0.102  -0.566334  0.054348  2.35576  0.078  -0.610229  0.043852  2.348703  0.067  -0.31586  -0.537601  0.056069  2.361861  0.078
O  O89  1  0.77341713  0.68908936  0.98727825  1  -0.589656  -0.07745  2.073875  -0.102  -0.566225  -0.05434  2.355683  -0.078  -0.610098  -0.04385  2.348612  -0.067  -0.315795  -0.537465  -0.056061  2.36178  -0.078
O  O90  1  0.32594527  0.58780067  0.04475769  1  -0.317053  -0.001237  2.32215  -0.001  -0.240377  -0.000904  2.581898  0.0  -0.261608  -0.000931  2.581713  -0.001  -0.235359  -0.225509  -0.000773  2.582025  0.0
O  O91  1  0.67405101  0.41220670  0.95525069  1  -0.316938  0.001233  2.322001  0.001  -0.240395  0.000902  2.581785  0.0  -0.261588  0.00093  2.58157  0.001  -0.235384  -0.225505  0.000773  2.581913  0.0
