# generated using pymatgen
data_Cu3H12C14(N7O5)2
_symmetry_space_group_name_H-M   'P 1'
_cell_length_a   6.56672503
_cell_length_b   8.44308699
_cell_length_c   11.83224268
_cell_angle_alpha   73.22960189
_cell_angle_beta   89.13265909
_cell_angle_gamma   72.42386599
_symmetry_Int_Tables_number   1
_chemical_formula_structural   Cu3H12C14(N7O5)2
_chemical_formula_sum   'Cu3 H12 C14 N14 O10'
_cell_volume   596.93052944
_cell_formula_units_Z   1
loop_
 _symmetry_equiv_pos_site_id
 _symmetry_equiv_pos_as_xyz
  1  'x, y, z'
loop_
 _atom_site_type_symbol
 _atom_site_label
 _atom_site_symmetry_multiplicity
 _atom_site_fract_x
 _atom_site_fract_y
 _atom_site_fract_z
 _atom_site_occupancy
 _atom_site_hle17_ddec_charge
 _atom_site_hle17_ddec_spin_density
 _atom_site_hle17_ddec_sum_bond_order
 _atom_site_hle17_magmom
 _atom_site_hse06_10hf_ddec_charge
 _atom_site_hse06_10hf_ddec_spin_density
 _atom_site_hse06_10hf_ddec_sum_bond_order
 _atom_site_hse06_10hf_magmom
 _atom_site_hse06_ddec_charge
 _atom_site_hse06_ddec_spin_density
 _atom_site_hse06_ddec_sum_bond_order
 _atom_site_hse06_magmom
 _atom_site_pbe_cm5_charge
 _atom_site_pbe_ddec_charge
 _atom_site_pbe_ddec_spin_density
 _atom_site_pbe_ddec_sum_bond_order
 _atom_site_pbe_magmom
Cu  Cu0  1  0.00006131  0.49950786  0.49996852  1  0.932546  -0.646944  1.79926  -0.457  0.951048  -0.759636  2.187051  -0.595  1.039856  -0.846205  2.11964  -0.69  0.733879  0.899402  -0.692038  2.234424  -0.528
Cu  Cu1  1  0.63468169  0.80318404  0.53739796  1  0.870228  -0.51978  1.861603  -0.369  0.888191  -0.705274  2.283264  -0.553  0.988651  -0.807264  2.200729  -0.659  0.741327  0.831056  -0.612344  2.336797  -0.469
Cu  Cu2  1  0.36495190  0.19704951  0.46259373  1  0.870062  0.541159  1.862006  0.367  0.888189  0.724357  2.2829  0.554  0.989103  0.844594  2.200033  0.663  0.740268  0.830495  0.612966  2.336746  0.464
H  H3  1  0.64473939  0.61752422  0.90420680  1  0.110072  1.6e-05  0.954477  0.0  0.115842  -2.3e-05  1.020007  0.0  0.119247  -2.1e-05  1.018488  0.0  0.107691  0.113427  -3.3e-05  1.021026  0.0
H  H4  1  0.35525125  0.38254533  0.09574470  1  0.110104  4.9e-05  0.954549  0.0  0.115912  8.9e-05  1.019938  0.0  0.119307  6.8e-05  1.018428  0.0  0.107735  0.113494  0.000108  1.020985  0.0
H  H5  1  0.67653380  0.46213986  0.12218263  1  0.121427  -0.000337  0.952542  0.0  0.124664  -0.000373  1.022627  0.0  0.128322  -0.000292  1.019989  0.0  0.114751  0.122103  -0.000443  1.024539  0.0
H  H6  1  0.32354050  0.53800490  0.87777798  1  0.121735  -0.000193  0.95255  0.0  0.124954  -0.000205  1.022527  0.0  0.128582  -0.000145  1.019841  0.0  0.114929  0.122465  -0.000269  1.024415  0.0
H  H7  1  0.18442075  0.03246061  0.06988025  1  0.123047  -6.6e-05  0.94195  0.0  0.128101  -0.000115  1.005479  0.0  0.13178  -8.2e-05  1.003009  0.0  0.117098  0.125364  -0.000139  1.00751  0.0
H  H8  1  0.81575035  0.96769966  0.93012563  1  0.123072  0.000133  0.942418  0.0  0.128345  0.000141  1.005632  0.0  0.131995  0.000104  1.003197  0.0  0.117388  0.125653  0.000164  1.007611  0.0
H  H9  1  0.15147976  0.18794487  0.85261378  1  0.110967  0.000126  0.969034  0.0  0.111944  8.6e-05  1.042948  0.0  0.115832  9.6e-05  1.040539  0.0  0.105507  0.109181  5.2e-05  1.044566  0.0
H  H10  1  0.84861773  0.81214150  0.14737665  1  0.110906  -0.000499  0.969355  0.0  0.111919  -0.000407  1.04319  0.0  0.115842  -0.000306  1.040702  0.0  0.1054  0.109115  -0.000476  1.044859  0.0
H  H11  1  0.02643011  0.86926783  0.41774379  1  0.418798  4e-06  0.878292  0.0  0.392045  4.7e-05  0.936291  0.0  0.404425  3.5e-05  0.918042  0.0  0.291343  0.383786  4.7e-05  0.948477  0.0
H  H12  1  0.97345990  0.13067414  0.58233418  1  0.419671  -4.1e-05  0.877149  0.0  0.392832  -3.5e-05  0.935272  0.0  0.405243  -3.6e-05  0.916964  0.0  0.291744  0.384599  -2.8e-05  0.94745  0.0
H  H13  1  0.07180103  0.81467983  0.55768423  1  0.41326  3.3e-05  0.888412  0.0  0.386543  0.000112  0.947382  0.0  0.398037  9.5e-05  0.930226  0.0  0.291267  0.378788  0.000114  0.959065  0.0
H  H14  1  0.92812025  0.18517725  0.44238174  1  0.413796  -5.1e-05  0.887717  0.0  0.387169  -8.3e-05  0.946433  0.0  0.398713  -8.2e-05  0.929227  0.0  0.291668  0.379377  -7.3e-05  0.958164  0.0
C  C15  1  0.86799269  0.50129193  0.73517994  1  0.651966  0.004967  3.86655  0.009  0.611937  -0.000744  4.159094  0.003  0.652838  8.5e-05  4.151563  0.003  0.2218  0.584631  -0.001544  4.163324  0.003
C  C16  1  0.13182934  0.49854717  0.26472806  1  0.651244  0.00077  3.86865  0.001  0.611165  -7.2e-05  4.160759  0.0  0.652101  2.4e-05  4.15313  0.0  0.221225  0.583779  -0.000217  4.165014  0.0
C  C17  1  0.89127785  0.40939210  0.86563986  1  -0.020776  -0.014174  3.687952  -0.015  -0.006725  -0.009725  3.918791  -0.011  -0.01255  -0.007493  3.938496  -0.009  0.004524  -0.002698  -0.010888  3.90519  -0.012
C  C18  1  0.10865590  0.59064683  0.13429693  1  -0.021709  -0.002727  3.689436  -0.003  -0.006747  -0.000512  3.919382  -0.001  -0.012519  -0.000246  3.938931  0.0  0.004375  -0.002651  -0.000935  3.905892  -0.001
C  C19  1  0.75944817  0.48858293  0.94115869  1  -0.057391  0.001865  3.703273  0.002  -0.075667  5.5e-05  3.944887  0.0  -0.078089  0.000353  3.96672  0.0  -0.073466  -0.074039  -0.000234  3.930147  0.0
C  C20  1  0.24055364  0.51147756  0.05879458  1  -0.05762  -0.000528  3.703811  -0.001  -0.075839  -0.000805  3.945187  -0.001  -0.078213  -0.000515  3.966938  -0.001  -0.073755  -0.074262  -0.001002  3.930521  -0.002
C  C21  1  0.77646667  0.40354646  0.06161040  1  -0.090571  -0.002121  3.707409  -0.002  -0.114597  -0.00076  3.962257  -0.001  -0.115282  -0.000702  3.982574  -0.001  -0.071957  -0.114038  -0.000831  3.948619  -0.001
C  C22  1  0.22357341  0.59656553  0.93836608  1  -0.091071  -0.001246  3.71028  -0.001  -0.114865  -0.000816  3.963363  -0.001  -0.11554  -0.000604  3.98375  -0.001  -0.071805  -0.114274  -0.001015  3.949614  -0.001
C  C23  1  0.92668208  0.23818192  0.10458787  1  0.080243  0.001966  3.711757  0.002  0.062801  0.000668  3.968461  0.001  0.059141  0.000712  3.991574  0.001  0.083157  0.064955  0.000603  3.953133  0.0
C  C24  1  0.07336499  0.76190559  0.89541991  1  0.072  0.00038  3.707852  0.0  0.062919  4.9e-05  3.968986  0.0  0.059214  6.8e-05  3.992176  0.0  0.083174  0.065114  5.2e-05  3.95357  0.0
C  C25  1  0.06488311  0.15872883  0.03194555  1  -0.083394  -0.001787  3.693575  -0.002  -0.107846  -0.000581  3.948817  -0.001  -0.108302  -0.000601  3.968424  -0.001  -0.068188  -0.107592  -0.000552  3.935936  -0.001
C  C26  1  0.93519811  0.84139924  0.96804133  1  -0.083647  0.000213  3.696421  0.0  -0.10781  0.000363  3.949633  0.0  -0.108254  0.000244  3.969238  0.0  -0.068177  -0.107521  0.000403  3.936664  0.0
C  C27  1  0.04599884  0.24598666  0.91157105  1  -0.048543  0.002103  3.675357  0.002  -0.068407  7e-06  3.920713  0.0  -0.070186  0.000298  3.940567  0.0  -0.070494  -0.067174  -0.000204  3.907313  0.0
C  C28  1  0.95402156  0.75411348  0.08841074  1  -0.048907  0.001263  3.676645  0.001  -0.06871  0.000737  3.921746  0.001  -0.070405  0.000582  3.941446  0.001  -0.070584  -0.067527  0.000816  3.908433  0.001
N  N29  1  0.67745067  0.60616211  0.47150104  1  -0.543793  -0.128527  2.880994  -0.157  -0.608897  -0.077186  3.283451  -0.101  -0.67257  -0.053798  3.300889  -0.077  -0.368514  -0.57263  -0.087516  3.275761  -0.108
N  N30  1  0.32392905  0.39468174  0.52803075  1  -0.554272  0.008431  2.883694  0.008  -0.613789  0.0053  3.28101  0.006  -0.676561  0.003538  3.297763  0.004  -0.369664  -0.577864  0.002787  3.273839  0.003
N  N31  1  0.59486647  0.62266143  0.37529671  1  0.403962  0.047808  4.089342  0.069  0.455502  0.008212  4.404003  0.021  0.478576  0.013543  4.440388  0.026  0.099714  0.441194  0.002098  4.380763  0.014
N  N32  1  0.40562233  0.37718557  0.62467667  1  0.404673  -0.000467  4.103827  -0.001  0.455632  -0.000427  4.412328  -0.001  0.478642  -8.6e-05  4.448093  -0.001  0.097765  0.441205  -0.000602  4.389706  -0.001
N  N33  1  0.51652465  0.63254655  0.28552109  1  -0.231273  -0.176297  2.311891  -0.197  -0.257482  -0.095836  2.53772  -0.112  -0.267801  -0.081519  2.550481  -0.1  -0.117237  -0.252404  -0.102992  2.530014  -0.116
N  N34  1  0.48340066  0.36665894  0.71476588  1  -0.241206  0.000837  2.321472  -0.001  -0.261666  0.003192  2.54272  0.003  -0.270871  0.003532  2.554742  0.003  -0.120403  -0.25745  -0.0012  2.535561  -0.002
N  N35  1  0.52320171  0.00800870  0.60482648  1  -0.558089  0.024383  2.899927  0.028  -0.609247  0.009572  3.308387  0.012  -0.669686  0.006805  3.320638  0.008  -0.364147  -0.574006  0.010016  3.302256  0.012
N  N36  1  0.47626970  0.99219161  0.39535195  1  -0.560529  -0.020034  2.903305  -0.026  -0.609911  -0.008048  3.310348  -0.011  -0.670258  -0.004784  3.322402  -0.008  -0.364788  -0.574747  -0.009411  3.304427  -0.012
N  N37  1  0.48525056  0.98912024  0.70796125  1  0.415888  -0.006446  4.106861  -0.01  0.458003  0.000376  4.419714  0.0  0.48048  0.000342  4.456643  0.0  0.101628  0.444231  0.000501  4.393259  0.0
N  N38  1  0.51446635  0.01092774  0.29224448  1  0.416067  0.006089  4.107831  0.009  0.458235  -0.000213  4.418871  0.0  0.480751  -6.2e-05  4.455609  0.0  0.101956  0.444425  -0.000463  4.392594  0.0
N  N39  1  0.45401877  0.96743895  0.80716065  1  -0.27696  0.025084  2.33368  0.027  -0.289974  0.005937  2.559464  0.007  -0.299739  0.004461  2.571444  0.005  -0.126678  -0.281665  0.006032  2.549753  0.007
N  N40  1  0.54595212  0.03230665  0.19309903  1  -0.276995  -0.020117  2.334047  -0.023  -0.288686  -0.004864  2.559015  -0.006  -0.298386  -0.00326  2.570892  -0.005  -0.125965  -0.28035  -0.00558  2.54933  -0.007
N  N41  1  0.93807943  0.14599585  0.22960649  1  0.48325  0.000142  3.913137  0.0  0.528662  5.5e-05  4.175468  0.0  0.551568  2.8e-05  4.183175  0.0  0.059525  0.513326  8.3e-05  4.170471  0.0
N  N42  1  0.06193326  0.85403744  0.77036508  1  0.512403  3.6e-05  3.867211  0.0  0.528527  3.6e-05  4.174523  0.0  0.551501  2.7e-05  4.182192  0.0  0.059594  0.513192  2.9e-05  4.169485  0.0
O  O43  1  0.98231655  0.41727199  0.67105719  1  -0.581236  -0.067498  2.133807  -0.088  -0.543858  -0.049077  2.406498  -0.071  -0.585523  -0.038642  2.400144  -0.059  -0.309196  -0.516651  -0.055271  2.410834  -0.077
O  O44  1  0.01750500  0.58246028  0.32889038  1  -0.582322  -0.066587  2.136318  -0.087  -0.543735  -0.04867  2.408367  -0.069  -0.58516  -0.039333  2.401843  -0.059  -0.308897  -0.51656  -0.05392  2.41278  -0.074
O  O45  1  0.73890132  0.65582576  0.70085662  1  -0.594548  -0.045986  2.122261  -0.061  -0.558425  -0.043795  2.405936  -0.064  -0.600489  -0.036052  2.396655  -0.056  -0.319574  -0.532171  -0.04578  2.412725  -0.065
O  O46  1  0.26091353  0.34399451  0.29900476  1  -0.594005  0.050767  2.121973  0.063  -0.558248  0.046243  2.406029  0.065  -0.600418  0.039558  2.396774  0.058  -0.319291  -0.531716  0.046974  2.412708  0.064
O  O47  1  0.06127362  0.99400202  0.26679754  1  -0.346185  8.3e-05  1.826012  0.0  -0.319656  -0.000277  2.020406  0.0  -0.332991  -0.000192  2.016829  0.0  -0.104888  -0.311185  -0.000321  2.023312  0.0
O  O48  1  0.93877575  0.00604568  0.73315188  1  -0.355779  0.000324  1.812421  0.0  -0.319359  0.000237  2.020761  0.0  -0.332878  0.000211  2.017292  0.0  -0.104447  -0.310749  0.00024  2.023542  0.0
O  O49  1  0.82144723  0.22296978  0.29412004  1  -0.36303  9.4e-05  1.828335  0.0  -0.341904  -0.000288  2.032138  0.0  -0.357026  -0.000247  2.027051  0.0  -0.115228  -0.332742  -0.000294  2.036751  0.0
O  O50  1  0.17849550  0.77696265  0.70588317  1  -0.372636  0.000252  1.814601  0.0  -0.341574  0.000266  2.032287  0.0  -0.356714  0.000255  2.027122  0.0  -0.115114  -0.332395  0.000224  2.03693  0.0
O  O51  1  0.98934039  0.80233602  0.49379925  1  -0.861932  0.003285  1.948313  0.002  -0.833236  0.00264  2.148698  0.001  -0.856059  0.002799  2.106247  0.002  -0.59385  -0.818162  0.002278  2.17797  0.001
O  O52  1  0.01027432  0.19783531  0.50625914  1  -0.862971  -0.000208  1.948636  0.0  -0.834219  6.9e-05  2.149621  0.0  -0.857274  0.000107  2.107207  0.0  -0.594128  -0.819133  3.1e-05  2.178917  0.0
