# generated using pymatgen
data_CdH6C8O5
_symmetry_space_group_name_H-M   'P 1'
_cell_length_a   6.49589086
_cell_length_b   7.24954336
_cell_length_c   18.20251741
_cell_angle_alpha   89.99544442
_cell_angle_beta   89.92429083
_cell_angle_gamma   89.72463930
_symmetry_Int_Tables_number   1
_chemical_formula_structural   CdH6C8O5
_chemical_formula_sum   'Cd4 H24 C32 O20'
_cell_volume   857.18671328
_cell_formula_units_Z   4
loop_
 _symmetry_equiv_pos_site_id
 _symmetry_equiv_pos_as_xyz
  1  'x, y, z'
loop_
 _atom_site_type_symbol
 _atom_site_label
 _atom_site_symmetry_multiplicity
 _atom_site_fract_x
 _atom_site_fract_y
 _atom_site_fract_z
 _atom_site_occupancy
 _atom_site_hle17_bader_spin_density
 _atom_site_hle17_ddec_charge
 _atom_site_hle17_ddec_spin_density
 _atom_site_hle17_ddec_sum_bond_order
 _atom_site_hle17_magmom
 _atom_site_hse06_10hf_bader_spin_density
 _atom_site_hse06_10hf_ddec_charge
 _atom_site_hse06_10hf_ddec_spin_density
 _atom_site_hse06_10hf_ddec_sum_bond_order
 _atom_site_hse06_10hf_magmom
 _atom_site_hse06_bader_spin_density
 _atom_site_hse06_ddec_charge
 _atom_site_hse06_ddec_spin_density
 _atom_site_hse06_ddec_sum_bond_order
 _atom_site_hse06_magmom
 _atom_site_pbe_bader_spin_density
 _atom_site_pbe_cm5_charge
 _atom_site_pbe_ddec_charge
 _atom_site_pbe_ddec_spin_density
 _atom_site_pbe_ddec_sum_bond_order
 _atom_site_pbe_magmom
Cd  Cd0  1  0.83457996  0.74951006  0.49982671  1  0  1.296728  0  1.547613  0  0  1.12249  0  1.990384  0  0  1.179354  0  1.93069  0  0  0.792132  1.081451  0  2.031851  0
Cd  Cd1  1  0.16556950  0.24858586  0.00003165  1  0  1.296402  0  1.547298  0  0  1.121798  0  1.990115  0  0  1.178704  0  1.930405  0  0  0.791999  1.080726  0  2.031587  0
Cd  Cd2  1  0.16545751  0.25056067  0.50016747  1  0  1.296643  0  1.548043  0  0  1.122284  0  1.990867  0  0  1.17909  0  1.931283  0  0  0.792105  1.081286  0  2.032247  0
Cd  Cd3  1  0.83429016  0.75131668  0.99997026  1  0  1.296284  0  1.54715  0  0  1.121751  0  1.989922  0  0  1.178664  0  1.930217  0  0  0.791814  1.08068  0  2.031391  0
H  H4  1  0.39500285  0.83830165  0.52460506  1  0  0.439375  0  0.860533  0  0  0.409521  0  0.921648  0  0  0.420288  0  0.906037  0  0  0.292554  0.401883  0  0.932712  0
H  H5  1  0.60503091  0.15920984  0.02371976  1  0  0.441534  0  0.857111  0  0  0.410549  0  0.920057  0  0  0.421382  0  0.904369  0  0  0.293198  0.402872  0  0.931154  0
H  H6  1  0.60360446  0.33515901  0.97360085  1  0  0.438422  0  0.861543  0  0  0.408802  0  0.922186  0  0  0.419552  0  0.906601  0  0  0.292259  0.401185  0  0.933216  0
H  H7  1  0.39605888  0.66232058  0.47443566  1  0  0.43993  0  0.8596  0  0  0.410281  0  0.920294  0  0  0.421042  0  0.904703  0  0  0.29298  0.402646  0  0.93135  0
H  H8  1  0.60493751  0.16165611  0.47564625  1  0  0.439466  0  0.860395  0  0  0.409346  0  0.92202  0  0  0.420127  0  0.906392  0  0  0.292619  0.401688  0  0.933116  0
H  H9  1  0.39487088  0.84085411  0.97637058  1  0  0.441586  0  0.857095  0  0  0.410552  0  0.920107  0  0  0.421396  0  0.904406  0  0  0.293285  0.402871  0  0.931211  0
H  H10  1  0.39627432  0.66489391  0.02647795  1  0  0.438748  0  0.86111  0  0  0.40916  0  0.921686  0  0  0.419902  0  0.906119  0  0  0.292551  0.401544  0  0.932714  0
H  H11  1  0.60403243  0.33762193  0.52581178  1  0  0.440066  0  0.859383  0  0  0.410106  0  0.920604  0  0  0.420923  0  0.904925  0  0  0.292843  0.402438  0  0.931699  0
H  H12  1  0.52816016  0.55951102  0.63174054  1  0  0.097738  0  0.947952  0  0  0.106928  0  1.011219  0  0  0.110405  0  1.008093  0  0  0.104289  0.104365  0  1.013534  0
H  H13  1  0.47375854  0.44032014  0.13157833  1  0  0.097654  0  0.94569  0  0  0.106551  0  1.009029  0  0  0.110028  0  1.005933  0  0  0.104635  0.104009  0  1.0113  0
H  H14  1  0.46765908  0.05955070  0.86819594  1  0  0.097749  0  0.952216  0  0  0.106514  0  1.016166  0  0  0.110073  0  1.012934  0  0  0.10387  0.103875  0  1.018596  0
H  H15  1  0.53074243  0.94037182  0.36838180  1  0  0.097376  0  0.950298  0  0  0.10658  0  1.013434  0  0  0.110217  0  1.01013  0  0  0.104143  0.103911  0  1.015852  0
H  H16  1  0.47228854  0.44058978  0.36811733  1  0  0.097962  0  0.947771  0  0  0.106929  0  1.011304  0  0  0.110388  0  1.00821  0  0  0.104408  0.104389  0  1.013581  0
H  H17  1  0.52601802  0.55965827  0.86827196  1  0  0.097346  0  0.94591  0  0  0.106763  0  1.00873  0  0  0.110234  0  1.005639  0  0  0.104842  0.10422  0  1.010989  0
H  H18  1  0.53235723  0.94046761  0.13174166  1  0  0.097552  0  0.952319  0  0  0.106369  0  1.016305  0  0  0.109844  0  1.013165  0  0  0.103709  0.103756  0  1.018709  0
H  H19  1  0.46899176  0.05972803  0.63156188  1  0  0.097126  0  0.950953  0  0  0.106561  0  1.013856  0  0  0.110173  0  1.010583  0  0  0.104103  0.103891  0  1.01628  0
H  H20  1  0.34882963  0.62243656  0.74987074  1  0  0.091074  0  0.969017  0  0  0.100365  0  1.03018  0  0  0.102222  0  1.031971  0  0  0.099872  0.098959  0  1.029248  0
H  H21  1  0.65132256  0.37757196  0.24992126  1  0  0.091315  0  0.969132  0  0  0.100485  0  1.030396  0  0  0.102359  0  1.032166  0  0  0.099873  0.099075  0  1.029468  0
H  H22  1  0.64563678  0.12291908  0.74995461  1  0  0.091248  0  0.968376  0  0  0.10007  0  1.030083  0  0  0.101877  0  1.031909  0  0  0.09992  0.098722  0  1.029093  0
H  H23  1  0.35424089  0.87712964  0.24996488  1  0  0.091132  0  0.968523  0  0  0.099916  0  1.030234  0  0  0.10172  0  1.03207  0  0  0.099854  0.098569  0  1.02924  0
H  H24  1  0.05816208  0.36007545  0.75042247  1  0  0.116718  0  0.94555  0  0  0.123253  0  1.012765  0  0  0.126913  0  1.010265  0  0  0.109945  0.120522  0  1.01479  0
H  H25  1  0.94193746  0.63986698  0.24961291  1  0  0.116815  0  0.945859  0  0  0.123343  0  1.013001  0  0  0.126979  0  1.010499  0  0  0.109962  0.120622  0  1.015029  0
H  H26  1  0.93967538  0.85933030  0.74968101  1  0  0.11658  0  0.945317  0  0  0.123214  0  1.012277  0  0  0.126876  0  1.009719  0  0  0.109882  0.120478  0  1.014325  0
H  H27  1  0.06025964  0.14058049  0.25033353  1  0  0.116651  0  0.945186  0  0  0.123319  0  1.012168  0  0  0.126971  0  1.009619  0  0  0.109907  0.120576  0  1.014208  0
C  C28  1  0.91073383  0.41484504  0.61289768  1  0  0.660711  0  3.887738  0  0  0.607826  0  4.174678  0  0  0.643602  0  4.168369  0  0  0.210281  0.583474  0  4.178091  0
C  C29  1  0.09154264  0.58483603  0.11225058  1  0  0.662695  0  3.887337  0  0  0.609759  0  4.174371  0  0  0.645611  0  4.167826  0  0  0.2114  0.585347  0  4.177963  0
C  C30  1  0.08680125  0.91390383  0.88703717  1  0  0.660053  0  3.889989  0  0  0.60758  0  4.175989  0  0  0.643369  0  4.169716  0  0  0.209904  0.583218  0  4.179372  0
C  C31  1  0.91127993  0.08578249  0.38762001  1  0  0.66169  0  3.888669  0  0  0.608289  0  4.175853  0  0  0.644131  0  4.169439  0  0  0.210336  0.583888  0  4.179348  0
C  C32  1  0.08972105  0.58518269  0.38708820  1  0  0.662069  0  3.886295  0  0  0.609036  0  4.17358  0  0  0.644817  0  4.167221  0  0  0.210703  0.584655  0  4.177063  0
C  C33  1  0.90824420  0.41517415  0.88773924  1  0  0.662121  0  3.887902  0  0  0.609167  0  4.174953  0  0  0.645002  0  4.168449  0  0  0.211108  0.584746  0  4.178546  0
C  C34  1  0.91327972  0.08607997  0.11296415  1  0  0.660063  0  3.888932  0  0  0.607572  0  4.174949  0  0  0.643356  0  4.168676  0  0  0.210259  0.583214  0  4.17833  0
C  C35  1  0.08848082  0.91420288  0.61238027  1  0  0.660694  0  3.889426  0  0  0.607684  0  4.176348  0  0  0.643481  0  4.170013  0  0  0.210313  0.583314  0  4.179783  0
C  C36  1  0.80429789  0.45551792  0.68360024  1  0  -0.081958  0  3.758857  0  0  -0.055678  0  3.995096  0  0  -0.067034  0  4.01875  0  0  -0.01983  -0.048364  0  3.979094  0
C  C37  1  0.19688997  0.54439527  0.18310942  1  0  -0.082037  0  3.760486  0  0  -0.055602  0  3.995944  0  0  -0.067007  0  4.019655  0  0  -0.019154  -0.048245  0  3.979909  0
C  C38  1  0.19264071  0.95503027  0.81637550  1  0  -0.083861  0  3.761363  0  0  -0.058058  0  3.99823  0  0  -0.069438  0  4.021836  0  0  -0.020614  -0.050722  0  3.982249  0
C  C39  1  0.80645749  0.04486128  0.31682958  1  0  -0.083441  0  3.762252  0  0  -0.056437  0  3.997777  0  0  -0.067917  0  4.021596  0  0  -0.020431  -0.049037  0  3.981659  0
C  C40  1  0.19599690  0.54452506  0.31635215  1  0  -0.082129  0  3.759323  0  0  -0.055779  0  3.995479  0  0  -0.067132  0  4.019116  0  0  -0.019728  -0.048456  0  3.979493  0
C  C41  1  0.80310015  0.45561754  0.81684577  1  0  -0.082682  0  3.761383  0  0  -0.056047  0  3.996751  0  0  -0.067452  0  4.02049  0  0  -0.019274  -0.048685  0  3.980703  0
C  C42  1  0.80737585  0.04490529  0.18361430  1  0  -0.083695  0  3.760747  0  0  -0.057742  0  3.997536  0  0  -0.069104  0  4.021105  0  0  -0.020639  -0.050422  0  3.98157  0
C  C43  1  0.19340792  0.95513920  0.68315254  1  0  -0.083482  0  3.761842  0  0  -0.056954  0  3.997796  0  0  -0.068424  0  4.021602  0  0  -0.020295  -0.049554  0  3.981679  0
C  C44  1  0.60396809  0.52917222  0.68375329  1  0  -0.022486  0  3.67318  0  0  -0.051793  0  3.922612  0  0  -0.048112  0  3.940631  0  0  -0.067267  -0.053815  0  3.9103  0
C  C45  1  0.39714938  0.47067638  0.18351344  1  0  -0.023534  0  3.675845  0  0  -0.052356  0  3.925359  0  0  -0.048724  0  3.943407  0  0  -0.068195  -0.054372  0  3.913038  0
C  C46  1  0.39203435  0.02904228  0.81619990  1  0  -0.021923  0  3.674145  0  0  -0.050925  0  3.923085  0  0  -0.047247  0  3.940956  0  0  -0.067705  -0.052937  0  3.910863  0
C  C47  1  0.60706221  0.97084356  0.31644977  1  0  -0.022759  0  3.675706  0  0  -0.05223  0  3.924604  0  0  -0.048628  0  3.942552  0  0  -0.067624  -0.054193  0  3.912347  0
C  C48  1  0.39630520  0.47089972  0.31612823  1  0  -0.023508  0  3.674213  0  0  -0.052661  0  3.923857  0  0  -0.048978  0  3.941866  0  0  -0.067785  -0.054682  0  3.91152  0
C  C49  1  0.60282549  0.52934193  0.81637307  1  0  -0.022996  0  3.675903  0  0  -0.052356  0  3.925566  0  0  -0.048715  0  3.943619  0  0  -0.068134  -0.054367  0  3.913227  0
C  C50  1  0.60793431  0.97094847  0.18375694  1  0  -0.021561  0  3.673783  0  0  -0.050759  0  3.922808  0  0  -0.04701  0  3.940705  0  0  -0.067609  -0.052796  0  3.910597  0
C  C51  1  0.39275378  0.02920521  0.68350819  1  0  -0.022271  0  3.675591  0  0  -0.051795  0  3.924547  0  0  -0.048159  0  3.942479  0  0  -0.067579  -0.053769  0  3.9123  0
C  C52  1  0.50400818  0.56507952  0.74999712  1  0  -0.072673  0  3.744118  0  0  -0.082364  0  3.996575  0  0  -0.088434  0  4.020151  0  0  -0.084614  -0.078616  0  3.980869  0
C  C53  1  0.49613450  0.43495661  0.24985366  1  0  -0.071884  0  3.744486  0  0  -0.081403  0  3.996579  0  0  -0.087477  0  4.020153  0  0  -0.083824  -0.077658  0  3.980881  0
C  C54  1  0.49123262  0.06517089  0.74988191  1  0  -0.071378  0  3.741663  0  0  -0.080809  0  3.994119  0  0  -0.086848  0  4.017712  0  0  -0.083823  -0.077098  0  3.978376  0
C  C55  1  0.50866967  0.93486404  0.25006230  1  0  -0.071431  0  3.74273  0  0  -0.08072  0  3.995095  0  0  -0.08676  0  4.018688  0  0  -0.083637  -0.077012  0  3.979357  0
C  C56  1  0.90332736  0.41834160  0.75029931  1  0  -0.052175  0  3.663305  0  0  -0.091123  0  3.913549  0  0  -0.086164  0  3.930435  0  0  -0.068508  -0.094076  0  3.902136  0
C  C57  1  0.09676741  0.58166426  0.24968058  1  0  -0.052862  0  3.663682  0  0  -0.091674  0  3.913932  0  0  -0.086673  0  3.930767  0  0  -0.068727  -0.09464  0  3.902533  0
C  C58  1  0.09379605  0.91776944  0.74972891  1  0  -0.052592  0  3.66295  0  0  -0.091405  0  3.913333  0  0  -0.086434  0  3.93022  0  0  -0.068707  -0.094355  0  3.901916  0
C  C59  1  0.90612190  0.08217721  0.25027408  1  0  -0.052937  0  3.664236  0  0  -0.091921  0  3.914516  0  0  -0.086959  0  3.931416  0  0  -0.068719  -0.09484  0  3.903074  0
O  O60  1  0.81707957  0.44617703  0.55165799  1  0  -0.731249  0  2.106362  0  0  -0.655505  0  2.358214  0  0  -0.685085  0  2.34306  0  0  -0.335079  -0.634531  0  2.367882  0
O  O61  1  0.18556679  0.55167478  0.05115724  1  0  -0.731752  0  2.107674  0  0  -0.656567  0  2.359599  0  0  -0.685911  0  2.344172  0  0  -0.336178  -0.635774  0  2.369492  0
O  O62  1  0.18012633  0.94432957  0.94830843  1  0  -0.730777  0  2.110902  0  0  -0.654231  0  2.362042  0  0  -0.684039  0  2.34726  0  0  -0.335156  -0.633111  0  2.371476  0
O  O63  1  0.81751264  0.05351408  0.44873703  1  0  -0.730216  0  2.108951  0  0  -0.65449  0  2.361017  0  0  -0.684014  0  2.345911  0  0  -0.335151  -0.633552  0  2.370669  0
O  O64  1  0.18345439  0.55375132  0.44828668  1  0  -0.731694  0  2.106544  0  0  -0.656047  0  2.358452  0  0  -0.685574  0  2.343268  0  0  -0.335274  -0.635119  0  2.368196  0
O  O65  1  0.81411375  0.44837407  0.94879359  1  0  -0.731369  0  2.108272  0  0  -0.656382  0  2.360415  0  0  -0.685681  0  2.344923  0  0  -0.335904  -0.6356  0  2.370327  0
O  O66  1  0.81999142  0.05569973  0.05167365  1  0  -0.731046  0  2.110598  0  0  -0.654523  0  2.361739  0  0  -0.684329  0  2.346941  0  0  -0.33539  -0.633397  0  2.371172  0
O  O67  1  0.18209740  0.94645757  0.55123140  1  0  -0.729834  0  2.109506  0  0  -0.65428  0  2.361346  0  0  -0.683802  0  2.346276  0  0  -0.335096  -0.633347  0  2.370968  0
O  O68  1  0.09161214  0.34662322  0.61453246  1  0  -0.616621  0  1.989514  0  0  -0.546749  0  2.231294  0  0  -0.578475  0  2.223784  0  0  -0.308847  -0.524546  0  2.235737  0
O  O69  1  0.91135139  0.65454556  0.11376789  1  0  -0.617341  0  1.989596  0  0  -0.547595  0  2.232324  0  0  -0.579356  0  2.224641  0  0  -0.309279  -0.525361  0  2.236877  0
O  O70  1  0.90641336  0.84603562  0.88542056  1  0  -0.616455  0  1.988091  0  0  -0.546621  0  2.229547  0  0  -0.578386  0  2.221976  0  0  -0.308795  -0.524388  0  2.234034  0
O  O71  1  0.09100257  0.15506940  0.38611120  1  0  -0.617327  0  1.990391  0  0  -0.54731  0  2.232912  0  0  -0.579054  0  2.225145  0  0  -0.309253  -0.525063  0  2.23747  0
O  O72  1  0.90883308  0.65347212  0.38549957  1  0  -0.617529  0  1.988948  0  0  -0.547752  0  2.231099  0  0  -0.579499  0  2.223548  0  0  -0.309401  -0.52553  0  2.235587  0
O  O73  1  0.08846012  0.34543013  0.88626753  1  0  -0.616858  0  1.98921  0  0  -0.547058  0  2.231944  0  0  -0.578788  0  2.224204  0  0  -0.309224  -0.524823  0  2.236507  0
O  O74  1  0.09365526  0.15393579  0.11461538  1  0  -0.61616  0  1.987621  0  0  -0.546394  0  2.229137  0  0  -0.578142  0  2.221564  0  0  -0.308801  -0.524167  0  2.233616  0
O  O75  1  0.90876586  0.84489529  0.61393302  1  0  -0.616714  0  1.990426  0  0  -0.546809  0  2.232661  0  0  -0.578592  0  2.225052  0  0  -0.309039  -0.524561  0  2.237169  0
O  O76  1  0.48998586  0.75061604  0.49931405  1  0  -0.870571  0  1.840698  0  0  -0.801522  0  2.039418  0  0  -0.824896  0  2.003337  0  0  -0.600279  -0.784983  0  2.064612  0
O  O77  1  0.51016590  0.24264648  0.99631290  1  0  -0.870386  0  1.840089  0  0  -0.800362  0  2.039607  0  0  -0.823821  0  2.003489  0  0  -0.599483  -0.783761  0  2.064819  0
O  O78  1  0.51002807  0.24894864  0.50117846  1  0  -0.870644  0  1.8403  0  0  -0.801252  0  2.039277  0  0  -0.824676  0  2.003115  0  0  -0.600127  -0.784675  0  2.064537  0
O  O79  1  0.48971042  0.75755131  0.00386423  1  0  -0.87052  0  1.839588  0  0  -0.80067  0  2.039411  0  0  -0.824117  0  2.003235  0  0  -0.599682  -0.784063  0  2.064627  0
