# generated using pymatgen
data_MgH4(C2O3)2
_symmetry_space_group_name_H-M   'P 1'
_cell_length_a   5.80956961
_cell_length_b   5.80953556
_cell_length_c   9.36787165
_cell_angle_alpha   100.77884781
_cell_angle_beta   100.77840351
_cell_angle_gamma   107.85946734
_symmetry_Int_Tables_number   1
_chemical_formula_structural   MgH4(C2O3)2
_chemical_formula_sum   'Mg2 H8 C8 O12'
_cell_volume   285.35374376
_cell_formula_units_Z   2
loop_
 _symmetry_equiv_pos_site_id
 _symmetry_equiv_pos_as_xyz
  1  'x, y, z'
loop_
 _atom_site_type_symbol
 _atom_site_label
 _atom_site_symmetry_multiplicity
 _atom_site_fract_x
 _atom_site_fract_y
 _atom_site_fract_z
 _atom_site_occupancy
 _atom_site_hle17_bader_spin_density
 _atom_site_hle17_ddec_charge
 _atom_site_hle17_ddec_spin_density
 _atom_site_hle17_ddec_sum_bond_order
 _atom_site_hle17_magmom
 _atom_site_hse06_10hf_bader_spin_density
 _atom_site_hse06_10hf_ddec_charge
 _atom_site_hse06_10hf_ddec_spin_density
 _atom_site_hse06_10hf_ddec_sum_bond_order
 _atom_site_hse06_10hf_magmom
 _atom_site_hse06_bader_spin_density
 _atom_site_hse06_ddec_charge
 _atom_site_hse06_ddec_spin_density
 _atom_site_hse06_ddec_sum_bond_order
 _atom_site_hse06_magmom
 _atom_site_pbe_bader_spin_density
 _atom_site_pbe_cm5_charge
 _atom_site_pbe_ddec_charge
 _atom_site_pbe_ddec_spin_density
 _atom_site_pbe_ddec_sum_bond_order
 _atom_site_pbe_magmom
Mg  Mg0  1  0.85386402  0.14614048  0.74999926  1  0  1.491176  0  1.158542  0  0  1.377474  0  1.425607  0  0  1.401736  0  1.38831  0  0  0.838632  1.360175  0  1.451773  0
Mg  Mg1  1  0.14613424  0.85385348  0.24999627  1  0  1.491138  0  1.158517  0  0  1.377408  0  1.425646  0  0  1.401685  0  1.388318  0  0  0.838639  1.360112  0  1.451814  0
H  H2  1  0.57001910  0.27874011  0.08049173  1  0  0.087149  0  0.904895  0  0  0.093104  0  0.965249  0  0  0.095588  0  0.963799  0  0  0.121536  0.09117  0  0.966667  0
H  H3  1  0.72126605  0.42998609  0.41951142  1  0  0.087168  0  0.904904  0  0  0.093137  0  0.965259  0  0  0.095582  0  0.96386  0  0  0.121539  0.091207  0  0.966673  0
H  H4  1  0.42998416  0.72126326  0.91950865  1  0  0.08717  0  0.904897  0  0  0.093139  0  0.965268  0  0  0.095584  0  0.963868  0  0  0.121536  0.091202  0  0.966685  0
H  H5  1  0.27873369  0.57001724  0.58048855  1  0  0.087154  0  0.904897  0  0  0.093127  0  0.965271  0  0  0.095582  0  0.963861  0  0  0.121536  0.091193  0  0.966688  0
H  H6  1  0.93587299  0.26617170  0.06070710  1  0  0.413086  0  0.873863  0  0  0.381747  0  0.950667  0  0  0.393359  0  0.937344  0  0  0.313906  0.373585  0  0.959965  0
H  H7  1  0.73383047  0.06413010  0.43929352  1  0  0.413081  0  0.87392  0  0  0.381767  0  0.950688  0  0  0.393379  0  0.937363  0  0  0.313904  0.373607  0  0.959986  0
H  H8  1  0.06412914  0.73383351  0.93929123  1  0  0.413096  0  0.87383  0  0  0.381782  0  0.950594  0  0  0.393394  0  0.93727  0  0  0.31392  0.37362  0  0.959891  0
H  H9  1  0.26616620  0.93586944  0.56070354  1  0  0.413139  0  0.873816  0  0  0.381795  0  0.95064  0  0  0.393413  0  0.937295  0  0  0.313911  0.373633  0  0.959942  0
C  C10  1  0.40101214  0.14731231  0.84079919  1  0  0.704154  0  3.811506  0  0  0.649123  0  4.114482  0  0  0.682667  0  4.104071  0  0  0.236652  0.626206  0  4.12116  0
C  C11  1  0.85268995  0.59900620  0.65920692  1  0  0.704  0  3.811907  0  0  0.649203  0  4.114597  0  0  0.682748  0  4.104177  0  0  0.236761  0.626281  0  4.121286  0
C  C12  1  0.59901253  0.85268200  0.15919940  1  0  0.703857  0  3.811971  0  0  0.649087  0  4.114639  0  0  0.68263  0  4.104226  0  0  0.236698  0.626162  0  4.121326  0
C  C13  1  0.14731650  0.40098604  0.34079469  1  0  0.703856  0  3.811805  0  0  0.648982  0  4.114605  0  0  0.682525  0  4.104194  0  0  0.236661  0.626061  0  4.121292  0
C  C14  1  0.56168445  0.13065718  0.98532130  1  0  0.066976  0  3.589639  0  0  0.038425  0  3.843195  0  0  0.039737  0  3.849061  0  0  0.003743  0.037431  0  3.839187  0
C  C15  1  0.86934496  0.43831863  0.51468055  1  0  0.066976  0  3.589668  0  0  0.038342  0  3.843269  0  0  0.039671  0  3.849136  0  0  0.003755  0.037347  0  3.839276  0
C  C16  1  0.43831707  0.86934619  0.01468209  1  0  0.066965  0  3.589643  0  0  0.0383  0  3.843224  0  0  0.039624  0  3.849103  0  0  0.003779  0.037321  0  3.839219  0
C  C17  1  0.13065396  0.56167723  0.48531848  1  0  0.067176  0  3.589626  0  0  0.038473  0  3.843344  0  0  0.039797  0  3.849213  0  0  0.003843  0.03749  0  3.839343  0
O  O18  1  0.46809705  0.08625654  0.72063418  1  0  -0.703973  0  2.044007  0  0  -0.640786  0  2.278638  0  0  -0.665191  0  2.265979  0  0  -0.332771  -0.623863  0  2.287067  0
O  O19  1  0.91375098  0.53189552  0.77937145  1  0  -0.703946  0  2.043889  0  0  -0.640895  0  2.278479  0  0  -0.665304  0  2.26582  0  0  -0.332854  -0.623959  0  2.286903  0
O  O20  1  0.53189539  0.91375608  0.27937563  1  0  -0.703972  0  2.04341  0  0  -0.640962  0  2.278017  0  0  -0.66538  0  2.265364  0  0  -0.332916  -0.624023  0  2.286438  0
O  O21  1  0.08625897  0.46809674  0.22062629  1  0  -0.703952  0  2.04369  0  0  -0.640823  0  2.278266  0  0  -0.665232  0  2.265611  0  0  -0.332845  -0.623891  0  2.286693  0
O  O22  1  0.21590476  0.21225963  0.84808376  1  0  -0.681531  0  2.017181  0  0  -0.631611  0  2.268794  0  0  -0.653865  0  2.255162  0  0  -0.346927  -0.616262  0  2.277912  0
O  O23  1  0.78774749  0.78408660  0.65192887  1  0  -0.681371  0  2.017738  0  0  -0.631525  0  2.269231  0  0  -0.653772  0  2.255593  0  0  -0.346938  -0.616196  0  2.278385  0
O  O24  1  0.78406990  0.78774715  0.15192229  1  0  -0.681096  0  2.018119  0  0  -0.63125  0  2.269614  0  0  -0.653494  0  2.255978  0  0  -0.346778  -0.615921  0  2.278772  0
O  O25  1  0.21225081  0.21590740  0.34807200  1  0  -0.681281  0  2.017826  0  0  -0.631346  0  2.269299  0  0  -0.653596  0  2.255664  0  0  -0.346836  -0.616015  0  2.278455  0
O  O26  1  0.80437000  0.15771424  0.96526829  1  0  -0.631512  0  2.185682  0  0  -0.578769  0  2.431428  0  0  -0.593185  0  2.415783  0  0  -0.415491  -0.568384  0  2.441958  0
O  O27  1  0.84228531  0.19562819  0.53473013  1  0  -0.631542  0  2.185782  0  0  -0.578783  0  2.431523  0  0  -0.593195  0  2.415876  0  0  -0.415504  -0.568377  0  2.442006  0
O  O28  1  0.19562860  0.84229092  0.03472963  1  0  -0.631518  0  2.18559  0  0  -0.57878  0  2.431382  0  0  -0.593192  0  2.415725  0  0  -0.415524  -0.568405  0  2.44192  0
O  O29  1  0.15771056  0.80436389  0.46526598  1  0  -0.63162  0  2.185722  0  0  -0.578883  0  2.431551  0  0  -0.593293  0  2.415897  0  0  -0.415569  -0.568508  0  2.442098  0
