# generated using pymatgen
data_Zn4H10C26S4O13F2
_symmetry_space_group_name_H-M   'P 1'
_cell_length_a   19.65096301
_cell_length_b   19.65154123
_cell_length_c   33.32013068
_cell_angle_alpha   79.08036332
_cell_angle_beta   79.25032988
_cell_angle_gamma   63.90776775
_symmetry_Int_Tables_number   1
_chemical_formula_structural   Zn4H10C26S4O13F2
_chemical_formula_sum   'Zn16 H40 C104 S16 O52 F8'
_cell_volume   11268.74192390
_cell_formula_units_Z   4
loop_
 _symmetry_equiv_pos_site_id
 _symmetry_equiv_pos_as_xyz
  1  'x, y, z'
loop_
 _atom_site_type_symbol
 _atom_site_label
 _atom_site_symmetry_multiplicity
 _atom_site_fract_x
 _atom_site_fract_y
 _atom_site_fract_z
 _atom_site_occupancy
 _atom_site_pbe_bader_charge
 _atom_site_pbe_bader_spin_density
 _atom_site_pbe_cm5_charge
 _atom_site_pbe_ddec_charge
 _atom_site_pbe_ddec_spin_density
 _atom_site_pbe_ddec_sum_bond_order
 _atom_site_pbe_magmom
Zn  Zn0  1  0.05617962  0.40215575  0.47546277  1  1.318254  0  0.671438  0.969847  0  2.355699  0
Zn  Zn1  1  0.99022089  0.47977291  0.55997523  1  1.325215  0  0.675663  0.968871  0  2.364362  0
Zn  Zn2  1  0.05508760  0.56440938  0.48256489  1  1.31798  0  0.673025  0.960668  0  2.369815  0
Zn  Zn3  1  0.89919243  0.55077494  0.48053250  1  1.317593  0  0.673295  0.959174  0  2.382296  0
Zn  Zn4  1  0.69732623  0.34851818  0.27247881  1  1.318541  0  0.672413  0.969631  0  2.360705  0
Zn  Zn5  1  0.68385066  0.19354746  0.26618266  1  1.320191  0  0.671911  0.96591  0  2.377411  0
Zn  Zn6  1  0.76735879  0.26663433  0.19082247  1  1.308341  0  0.674497  0.960059  0  2.389589  0
Zn  Zn7  1  0.84651963  0.18927259  0.27296446  1  1.315732  0  0.674733  0.961244  0  2.37003  0
Zn  Zn8  1  0.27084447  0.76020408  0.68947162  1  1.31379  0  0.671319  0.964519  0  2.363103  0
Zn  Zn9  1  0.34889495  0.69979751  0.77336764  1  1.316927  0  0.673535  0.967128  0  2.369239  0
Zn  Zn10  1  0.19328927  0.85008644  0.76995349  1  1.316695  0  0.671407  0.961224  0  2.369583  0
Zn  Zn11  1  0.19196554  0.68884550  0.76745080  1  1.319092  0  0.673839  0.962035  0  2.369483  0
Zn  Zn12  1  0.56135823  0.05996218  0.98531700  1  1.312043  0  0.672221  0.965853  0  2.369033  0
Zn  Zn13  1  0.40056553  0.05659659  0.97827379  1  1.317124  0  0.672553  0.96595  0  2.362041  0
Zn  Zn14  1  0.55565673  0.90295041  0.97843135  1  1.318943  0  0.673847  0.963496  0  2.37373  0
Zn  Zn15  1  0.48052181  0.98404503  0.06047366  1  1.313115  0  0.672367  0.956386  0  2.393719  0
H  H16  1  0.74839104  0.43563345  0.35323132  1  0.067858  0  0.104377  0.11174  0  1.008088  0
H  H17  1  0.00650293  0.30354530  0.39593999  1  0.112611  0  0.105101  0.114759  0  1.009223  0
H  H18  1  0.21090736  0.68960979  0.60177010  1  0.099978  0  0.10346  0.1124  0  1.012652  0
H  H19  1  0.05060012  0.54872797  0.64743179  1  0.102868  0  0.106631  0.115548  0  1.004408  0
H  H20  1  0.46301139  0.24790165  0.34107979  1  0.119375  0  0.122792  0.148979  0  0.96677  0
H  H21  1  0.48608031  0.68881514  0.60494395  1  0.118482  0  0.122304  0.148322  0  0.968395  0
H  H22  1  0.21057593  0.97290763  0.59628667  1  0.135849  0  0.122314  0.147911  0  0.966686  0
H  H23  1  0.95038675  0.95081687  0.32930853  1  0.118229  0  0.123133  0.149385  0  0.965843  0
H  H24  1  0.64398574  0.15084482  0.05035381  1  0.118113  0  0.104866  0.113728  0  1.009446  0
H  H25  1  0.59578452  0.10734800  0.20118888  1  0.06326  0  0.104893  0.114245  0  1.009989  0
H  H26  1  0.53246606  0.77182245  0.14814778  1  0.11619  0  0.1231  0.14933  0  0.966751  0
H  H27  1  0.15911550  0.15399792  0.04124508  1  0.136193  0  0.123349  0.149459  0  0.965989  0
H  H28  1  0.30157636  0.00824493  0.89905232  1  0.098552  0  0.103691  0.112434  0  1.010677  0
H  H29  1  0.44374083  0.75898951  0.84706956  1  0.101174  0  0.106553  0.116433  0  1.008173  0
H  H30  1  0.30943653  0.27664986  0.89838980  1  0.124691  0  0.122716  0.148899  0  0.967259  0
H  H31  1  0.78166499  0.01644181  0.90383354  1  0.151176  0  0.123285  0.14937  0  0.965779  0
H  H32  1  0.78301518  0.55942475  0.39690882  1  0.050043  0  0.096923  0.141423  0  0.98863  0
H  H33  1  0.75176253  0.50752973  0.43903796  1  0.048899  0  0.095827  0.138714  0  0.990122  0
H  H34  1  0.71163488  0.52967741  0.39186914  1  0.016679  0  0.089639  0.12119  0  1.003847  0
H  H35  1  0.04406185  0.21114260  0.35370654  1  0.042951  0  0.090799  0.123634  0  1.000832  0
H  H36  1  0.99495861  0.22931537  0.31026021  1  0.020861  0  0.095018  0.137531  0  0.989771  0
H  H37  1  0.97241458  0.17772484  0.35571217  1  0.057787  0  0.096151  0.139516  0  0.98968  0
H  H38  1  0.12786539  0.69612780  0.52023869  1  0.063709  0  0.096758  0.141045  0  0.989753  0
H  H39  1  0.20226176  0.60411762  0.52046920  1  0.032943  0  0.095936  0.139887  0  0.988707  0
H  H40  1  0.21777162  0.67903222  0.53433136  1  0.023735  0  0.08968  0.121911  0  1.002856  0
H  H41  1  0.04688913  0.63420623  0.72748576  1  0.043161  0  0.09688  0.140747  0  0.985994  0
H  H42  1  0.13348625  0.55269833  0.73014159  1  0.048732  0  0.095121  0.13803  0  0.992434  0
H  H43  1  0.05422975  0.54707359  0.71450824  1  0.032505  0  0.091129  0.123869  0  1.000874  0
H  H44  1  0.76424578  0.19309227  0.09082607  1  0.08789  0  0.096735  0.141083  0  0.989099  0
H  H45  1  0.68027803  0.27719020  0.09474552  1  0.057384  0  0.096502  0.140953  0  0.988057  0
H  H46  1  0.70248198  0.22642485  0.05155052  1  0.044009  0  0.09035  0.12256  0  1.00194  0
H  H47  1  0.56007876  0.98079504  0.15720411  1  0.061412  0  0.094813  0.136605  0  0.990692  0
H  H48  1  0.47558731  0.06465363  0.16025040  1  0.056613  0  0.095926  0.139358  0  0.99009  0
H  H49  1  0.53615492  0.03284599  0.20002334  1  -0.006791  0  0.090297  0.121956  0  1.002551  0
H  H50  1  0.17907674  0.96893740  0.85750988  1  0.064709  0  0.096231  0.140065  0  0.98942  0
H  H51  1  0.22356149  0.00620986  0.81419580  1  0.085904  0  0.095668  0.138692  0  0.989968  0
H  H52  1  0.20435338  0.04383577  0.86182011  1  0.021618  0  0.089701  0.121602  0  1.003562  0
H  H53  1  0.52227850  0.76168884  0.93166400  1  0.026327  0  0.094714  0.136895  0  0.992193  0
H  H54  1  0.56695354  0.79728601  0.88769389  1  0.068585  0  0.095846  0.139307  0  0.988661  0
H  H55  1  0.54019568  0.72286816  0.88455508  1  0.043001  0  0.091905  0.124815  0  0.999262  0
C  C56  1  0.06697175  0.31236487  0.55715719  1  1.579645  0  0.216601  0.631466  0  4.215629  0
C  C57  1  0.07294964  0.56948689  0.56721437  1  1.551063  0  0.229954  0.611264  0  4.143303  0
C  C58  1  0.18364783  0.44562707  0.43945596  1  1.55433  0  0.21555  0.630235  0  4.216685  0
C  C59  1  0.93030170  0.67994039  0.43605712  1  1.60711  0  0.215073  0.628669  0  4.217184  0
C  C60  1  0.92853253  0.42830517  0.43094026  1  1.572367  0  0.229133  0.608944  0  4.150223  0
C  C61  1  0.82311049  0.55670388  0.56625596  1  1.585521  0  0.216526  0.630466  0  4.214232  0
C  C62  1  0.57102195  0.31231666  0.31712588  1  1.614022  0  0.21851  0.610926  0  4.218725  0
C  C63  1  0.67501481  0.18815367  0.17970377  1  1.546961  0  0.229806  0.61026  0  4.152034  0
C  C64  1  0.68201908  0.43380752  0.18951360  1  1.580385  0  0.216073  0.630488  0  4.21731  0
C  C65  1  0.93464621  0.19325624  0.19157634  1  1.572042  0  0.216658  0.630297  0  4.217397  0
C  C66  1  0.82520861  0.31037987  0.31937631  1  1.537627  0  0.231042  0.615685  0  4.141309  0
C  C67  1  0.80637899  0.05869078  0.30407690  1  1.566188  0  0.219005  0.61161  0  4.215352  0
C  C68  1  0.43846130  0.68369840  0.69154431  1  1.595368  0  0.218019  0.609225  0  4.219648  0
C  C69  1  0.31411733  0.83187046  0.81694146  1  1.55491  0  0.22949  0.608631  0  4.14864  0
C  C70  1  0.19303398  0.92802202  0.68406416  1  1.591462  0  0.219097  0.611501  0  4.214775  0
C  C71  1  0.06635649  0.81133312  0.81097303  1  1.587089  0  0.215873  0.630963  0  4.213409  0
C  C72  1  0.18367232  0.67427124  0.68192327  1  1.537252  0  0.230021  0.611977  0  4.144637  0
C  C73  1  0.31421386  0.57028906  0.81450513  1  1.5871  0  0.216258  0.631223  0  4.213498  0
C  C74  1  0.43985878  0.18597589  0.94136759  1  1.564802  0  0.218853  0.611797  0  4.214631  0
C  C75  1  0.43134971  0.93358287  0.92982270  1  1.535752  0  0.230341  0.612394  0  4.144488  0
C  C76  1  0.68466352  0.94054705  0.93972458  1  1.577953  0  0.21914  0.610935  0  4.213863  0
C  C77  1  0.55552556  0.81688343  0.06154801  1  1.599328  0  0.218519  0.608633  0  4.217734  0
C  C78  1  0.56719681  0.06762259  0.07190525  1  1.527469  0  0.22893  0.60992  0  4.150598  0
C  C79  1  0.31335999  0.06574718  0.06072418  1  1.590847  0  0.218057  0.608454  0  4.219897  0
C  C80  1  0.89900470  0.40013401  0.40232437  1  -0.091899  0  -0.014597  -0.090777  0  3.927065  0
C  C81  1  0.85518200  0.33803125  0.34786561  1  0.052104  0  -0.013987  -0.088335  0  3.940109  0
C  C82  1  0.82419775  0.43952550  0.39070298  1  0.042586  0  0.003183  0.163847  0  3.936817  0
C  C83  1  0.92981099  0.29849789  0.35947156  1  0.007078  0  0.001393  0.160181  0  3.944754  0
C  C84  1  0.80512437  0.40678862  0.36330357  1  -0.072843  0  -0.085792  -0.15629  0  3.951592  0
C  C85  1  0.94931646  0.33164466  0.38645942  1  -0.043253  0  -0.08563  -0.156469  0  3.946051  0
C  C86  1  0.10404796  0.59671432  0.59546023  1  -0.04872  0  -0.013224  -0.085726  0  3.932287  0
C  C87  1  0.15466809  0.64469200  0.65377150  1  -0.030829  0  -0.016092  -0.092751  0  3.929289  0
C  C88  1  0.15045128  0.63674745  0.58129028  1  0.0136  0  0.001621  0.159916  0  3.944315  0
C  C89  1  0.10893361  0.60382837  0.66792302  1  -0.001455  0  0.003383  0.163692  0  3.935639  0
C  C90  1  0.17460196  0.65914259  0.61134543  1  -0.014372  0  -0.086412  -0.15679  0  3.948936  0
C  C91  1  0.08544688  0.58075194  0.63783522  1  -0.039036  0  -0.084637  -0.1559  0  3.943885  0
C  C92  1  0.30968956  0.45560135  0.40727878  1  0.588164  0  0.101245  0.249766  0  4.080524  0
C  C93  1  0.44837696  0.30221206  0.35168979  1  0.029825  0  -0.086727  -0.13012  0  3.961952  0
C  C94  1  0.25995847  0.42046166  0.41628612  1  -0.086906  0  -0.037071  -0.245957  0  3.978993  0
C  C95  1  0.49661833  0.33867110  0.34257697  1  -0.182389  0  -0.02253  -0.116883  0  3.975709  0
C  C96  1  0.38034469  0.34516941  0.37534882  1  -0.136244  0  -0.020383  0.006124  0  4.09121  0
C  C97  1  0.37860552  0.41357030  0.38387388  1  -0.157328  0  -0.031484  -0.133816  0  4.100626  0
C  C98  1  0.73188534  0.57609222  0.63429184  1  0.537905  0  0.102505  0.253468  0  4.077819  0
C  C99  1  0.53049709  0.66374255  0.62530920  1  0.073345  0  -0.087329  -0.131756  0  3.962963  0
C  C100  1  0.74912674  0.58116139  0.59179744  1  -0.134168  0  -0.036709  -0.245986  0  3.978226  0
C  C101  1  0.51451225  0.65784828  0.66770937  1  -0.208629  0  -0.02204  -0.116795  0  3.974515  0
C  C102  1  0.60992875  0.63337430  0.61337997  1  -0.162547  0  -0.020784  0.006379  0  4.090625  0
C  C103  1  0.65271812  0.60536379  0.64717389  1  -0.073804  0  -0.031564  -0.136966  0  4.100106  0
C  C104  1  0.08243600  0.21943171  0.62391250  1  0.527344  0  0.102066  0.253639  0  4.080608  0
C  C105  1  0.18090279  0.01780688  0.61616803  1  -0.024943  0  -0.086056  -0.130573  0  3.956087  0
C  C106  1  0.09273635  0.23689978  0.58150623  1  -0.070051  0  -0.037146  -0.245324  0  3.975139  0
C  C107  1  0.16934086  0.00263749  0.65854850  1  -0.15694  0  -0.022709  -0.118617  0  3.976346  0
C  C108  1  0.14928982  0.09729685  0.60359096  1  -0.123274  0  -0.019509  0.008503  0  4.078652  0
C  C109  1  0.11430004  0.14038444  0.63699376  1  -0.11496  0  -0.03303  -0.138412  0  4.116741  0
C  C110  1  0.83371739  0.79906578  0.39635427  1  0.597697  0  0.102099  0.253189  0  4.079244  0
C  C111  1  0.90244899  0.93542314  0.33873287  1  0.04223  0  -0.085856  -0.129887  0  3.961195  0
C  C112  1  0.90523082  0.75224364  0.40876525  1  -0.148729  0  -0.036806  -0.246183  0  3.97967  0
C  C113  1  0.83028593  0.98230000  0.32768414  1  -0.152182  0  -0.023025  -0.117534  0  3.975429  0
C  C114  1  0.90340307  0.86835188  0.36344765  1  -0.143199  0  -0.020013  0.007517  0  4.089343  0
C  C115  1  0.83154123  0.86565694  0.37055758  1  -0.137298  0  -0.031755  -0.136224  0  4.101538  0
C  C116  1  0.64711201  0.15988874  0.15043213  1  0.002243  0  -0.014427  -0.088989  0  3.934049  0
C  C117  1  0.59299818  0.09793552  0.10112448  1  -0.034431  0  -0.014758  -0.089419  0  3.936815  0
C  C118  1  0.66176932  0.17384944  0.10712166  1  -0.009474  0  0.003598  0.16369  0  3.93732  0
C  C119  1  0.57783873  0.08448316  0.14442634  1  -0.029814  0  0.002982  0.162871  0  3.939231  0
C  C120  1  0.63383110  0.14180156  0.08382078  1  -0.042547  0  -0.085566  -0.156504  0  3.946969  0
C  C121  1  0.60582328  0.11647080  0.16772156  1  0.000535  0  -0.086337  -0.157979  0  3.95025  0
C  C122  1  0.66654083  0.52505415  0.12193356  1  0.596175  0  0.101951  0.252709  0  4.079518  0
C  C123  1  0.56388765  0.72669935  0.12853776  1  0.002966  0  -0.086561  -0.131687  0  3.957538  0
C  C124  1  0.65442470  0.50837045  0.16433594  1  -0.065976  0  -0.03685  -0.245882  0  3.975907  0
C  C125  1  0.57797104  0.74157223  0.08626770  1  -0.110356  0  -0.022918  -0.11804  0  3.974423  0
C  C126  1  0.59571939  0.64740156  0.14136888  1  -0.171267  0  -0.018804  0.009425  0  4.08128  0
C  C127  1  0.63347643  0.60390440  0.10830955  1  -0.171692  0  -0.031942  -0.136801  0  4.107011  0
C  C128  1  0.08167873  0.12954519  0.17871000  1  0.556488  0  0.101245  0.251946  0  4.081444  0
C  C129  1  0.16768907  0.13490007  0.07347870  1  0.022569  0  -0.085946  -0.131164  0  3.959258  0
C  C130  1  0.00912942  0.17046214  0.16659723  1  -0.085062  0  -0.037072  -0.246056  0  3.980133  0
C  C131  1  0.23919422  0.09251335  0.08634003  1  -0.199312  0  -0.021953  -0.115094  0  3.975077  0
C  C132  1  0.11035157  0.14810954  0.10739212  1  -0.167292  0  -0.019659  0.007284  0  4.08517  0
C  C133  1  0.14002780  0.11587516  0.14537130  1  -0.179065  0  -0.03223  -0.136566  0  4.108742  0
C  C134  1  0.34162513  0.86210562  0.84552651  1  -0.073668  0  -0.013942  -0.08897  0  3.926833  0
C  C135  1  0.40382036  0.90508514  0.90048624  1  0.014572  0  -0.015048  -0.090841  0  3.935501  0
C  C136  1  0.29929034  0.93442331  0.85979760  1  0.068837  0  0.002663  0.163829  0  3.935357  0
C  C137  1  0.44630390  0.83294059  0.88605658  1  0.040359  0  0.003062  0.163898  0  3.938741  0
C  C138  1  0.33238193  0.95327751  0.88715052  1  -0.087916  0  -0.086717  -0.158978  0  3.948043  0
C  C139  1  0.41311742  0.81409787  0.85879579  1  -0.068151  0  -0.084825  -0.155123  0  3.944378  0
C  C140  1  0.40405237  0.45630998  0.86012821  1  0.527609  0  0.102384  0.252909  0  4.079775  0
C  C141  1  0.35054611  0.30022935  0.89736672  1  0.043895  0  -0.087128  -0.131645  0  3.960902  0
C  C142  1  0.33937077  0.49583183  0.83986200  1  -0.064797  0  -0.036731  -0.246616  0  3.975911  0
C  C143  1  0.41560957  0.26176654  0.91708619  1  -0.181711  0  -0.022285  -0.116609  0  3.974395  0
C  C144  1  0.34664011  0.37125662  0.87666824  1  -0.146788  0  -0.019621  0.007322  0  4.085746  0
C  C145  1  0.40917470  0.38515667  0.88124833  1  -0.147738  0  -0.031065  -0.134251  0  4.100447  0
C  C146  1  0.94803816  0.79569608  0.85199312  1  0.605518  0  0.102923  0.254188  0  4.078808  0
C  C147  1  0.80121333  0.95742508  0.89861961  1  0.015102  0  -0.085485  -0.130015  0  3.954585  0
C  C148  1  0.99157163  0.83638271  0.83586126  1  -0.087175  0  -0.036974  -0.247262  0  3.974643  0
C  C149  1  0.75928632  0.91526679  0.91441705  1  -0.163466  0  -0.022559  -0.117826  0  3.971747  0
C  C150  1  0.87013187  0.91345416  0.87579994  1  -0.168653  0  -0.019751  0.00758  0  4.08117  0
C  C151  1  0.87877971  0.83862292  0.87481765  1  -0.170139  0  -0.031815  -0.136327  0  4.105162  0
C  C152  1  0.76440554  0.51296415  0.40537403  1  -0.009845  0  -0.238771  -0.409202  0  3.980799  0
C  C153  1  0.98853861  0.22535356  0.34397200  1  -0.045015  0  -0.238005  -0.40927  0  3.979222  0
C  C154  1  0.17605984  0.65496967  0.53673712  1  -0.034732  0  -0.23871  -0.410952  0  3.980128  0
C  C155  1  0.08461803  0.58321893  0.71235787  1  -0.024516  0  -0.238325  -0.409628  0  3.97951  0
C  C156  1  0.70434666  0.22017340  0.08480596  1  -0.082318  0  -0.238811  -0.411705  0  3.979787  0
C  C157  1  0.53520317  0.03820743  0.16673437  1  -0.002977  0  -0.239332  -0.408371  0  3.98179  0
C  C158  1  0.22251419  0.99148697  0.84771113  1  -0.067608  0  -0.238492  -0.410234  0  3.981558  0
C  C159  1  0.52299139  0.77556412  0.89812786  1  -0.053997  0  -0.238415  -0.409168  0  3.978813  0
S  S160  1  0.29809605  0.33406566  0.39590344  1  0.285842  0  0.086427  0.141492  0  2.748427  0
S  S161  1  0.46025865  0.42513585  0.36271356  1  0.298465  0  0.09326  0.154956  0  2.729847  0
S  S162  1  0.66710163  0.62270150  0.56693757  1  0.280146  0  0.085521  0.140293  0  2.755064  0
S  S163  1  0.59543280  0.61555078  0.69350066  1  0.289845  0  0.095438  0.159561  0  2.7306  0
S  S164  1  0.14274786  0.15477204  0.55702021  1  0.275949  0  0.084028  0.136364  0  2.729237  0
S  S165  1  0.12028986  0.08406619  0.68353719  1  0.294042  0  0.093806  0.158527  0  2.756699  0
S  S166  1  0.97149254  0.78992410  0.38835933  1  0.289918  0  0.087269  0.142458  0  2.749816  0
S  S167  1  0.76311367  0.94520122  0.34674242  1  0.292268  0  0.092407  0.154594  0  2.732713  0
S  S168  1  0.60105500  0.59083000  0.18814082  1  0.286766  0  0.087472  0.141428  0  2.732348  0
S  S169  1  0.62931805  0.65990638  0.06166453  1  0.29023  0  0.096259  0.16007  0  2.739324  0
S  S170  1  0.01208428  0.19341317  0.11335795  1  0.32602  0  0.087584  0.142218  0  2.744616  0
S  S171  1  0.23783113  0.06869237  0.13947627  1  0.319891  0  0.092936  0.155935  0  2.746785  0
S  S172  1  0.28340493  0.44515681  0.84676474  1  0.288694  0  0.08743  0.142353  0  2.744105  0
S  S173  1  0.47256298  0.31122402  0.91084500  1  0.30719  0  0.093151  0.15542  0  2.735138  0
S  S174  1  0.94676248  0.92938192  0.84874075  1  0.283326  0  0.086214  0.140437  0  2.735556  0
S  S175  1  0.80278534  0.82222214  0.90179119  1  0.29418  0  0.095624  0.15944  0  2.740365  0
O  O176  1  0.00048471  0.49871318  0.49947040  1  -1.239004  0  -0.572478  -1.031312  0  2.53563  0
O  O177  1  0.08706046  0.31344342  0.51825168  1  -1.15218  0  -0.321991  -0.548832  0  2.309741  0
O  O178  1  0.05118018  0.51658741  0.58272822  1  -1.167385  0  -0.31567  -0.54875  0  2.334785  0
O  O179  1  0.15769609  0.50821974  0.45489517  1  -1.158367  0  -0.315041  -0.536304  0  2.318858  0
O  O180  1  0.02686771  0.36952250  0.57694451  1  -1.159394  0  -0.315048  -0.537234  0  2.329773  0
O  O181  1  0.15038280  0.40144023  0.44184658  1  -1.157269  0  -0.321007  -0.549172  0  2.322711  0
O  O182  1  0.06944553  0.60100752  0.52992289  1  -1.165283  0  -0.307907  -0.539068  0  2.350633  0
O  O183  1  0.00001085  0.65161459  0.44327242  1  -1.173563  0  -0.321061  -0.548114  0  2.325193  0
O  O184  1  0.88462667  0.49252928  0.44383900  1  -1.181033  0  -0.306067  -0.536359  0  2.379302  0
O  O185  1  0.88168966  0.65211896  0.44998427  1  -1.163922  0  -0.313422  -0.533129  0  2.316077  0
O  O186  1  0.99604961  0.38600186  0.44038331  1  -1.174784  0  -0.316718  -0.550083  0  2.344015  0
O  O187  1  0.88327311  0.52878678  0.58421570  1  -1.149445  0  -0.313181  -0.533222  0  2.308269  0
O  O188  1  0.81933071  0.56622512  0.52744793  1  -1.163941  0  -0.321922  -0.549137  0  2.337359  0
O  O189  1  0.74835420  0.24934889  0.25090451  1  -1.226744  0  -0.572947  -1.0309  0  2.542306  0
O  O190  1  0.60615589  0.35555206  0.31120985  1  -1.183884  0  -0.319392  -0.546862  0  2.320742  0
O  O191  1  0.64960391  0.18057292  0.21777323  1  -1.169271  0  -0.319047  -0.553063  0  2.345682  0
O  O192  1  0.72319779  0.37581710  0.17048479  1  -1.161764  0  -0.315424  -0.538381  0  2.334997  0
O  O193  1  0.59310753  0.24891017  0.30310027  1  -1.174033  0  -0.315455  -0.537524  0  2.320238  0
O  O194  1  0.66235414  0.43421394  0.22839949  1  -1.159096  0  -0.320258  -0.546255  0  2.310121  0
O  O195  1  0.72265475  0.21697070  0.16487586  1  -1.171899  0  -0.305499  -0.534893  0  2.378605  0
O  O196  1  0.87681308  0.22640811  0.17127172  1  -1.16202  0  -0.320755  -0.54566  0  2.328916  0
O  O197  1  0.85626200  0.23896759  0.31599445  1  -1.157572  0  -0.309239  -0.539923  0  2.346258  0
O  O198  1  0.93392153  0.17815183  0.23056218  1  -1.141556  0  -0.314892  -0.537972  0  2.320399  0
O  O199  1  0.76949653  0.36080522  0.30063102  1  -1.176389  0  -0.319803  -0.555107  0  2.338452  0
O  O200  1  0.73688455  0.09200597  0.29646017  1  -1.168682  0  -0.31838  -0.54558  0  2.324699  0
O  O201  1  0.85706821  0.08490114  0.29375868  1  -1.166367  0  -0.317096  -0.540203  0  2.311059  0
O  O202  1  0.25130267  0.75007831  0.74986682  1  -1.229976  0  -0.570731  -1.028785  0  2.529861  0
O  O203  1  0.38132176  0.71843991  0.67102676  1  -1.176906  0  -0.31577  -0.539104  0  2.312457  0
O  O204  1  0.36131780  0.76860352  0.80391327  1  -1.183145  0  -0.316765  -0.550482  0  2.356519  0
O  O205  1  0.17571428  0.93065387  0.72290990  1  -1.174259  0  -0.320215  -0.548748  0  2.345601  0
O  O206  1  0.43694824  0.66895485  0.73071108  1  -1.145998  0  -0.317777  -0.542834  0  2.327953  0
O  O207  1  0.22805547  0.86845861  0.66558465  1  -1.170055  0  -0.315262  -0.53635  0  2.300018  0
O  O208  1  0.24595892  0.87029662  0.80775914  1  -1.166832  0  -0.305604  -0.534887  0  2.363437  0
O  O209  1  0.09264855  0.86206697  0.79929107  1  -1.161266  0  -0.320801  -0.547369  0  2.318041  0
O  O210  1  0.16117902  0.66717128  0.72039557  1  -1.16925  0  -0.306537  -0.537618  0  2.372352  0
O  O211  1  0.09827047  0.74216188  0.80337296  1  -1.162265  0  -0.314594  -0.536751  0  2.321326  0
O  O212  1  0.22898939  0.70537991  0.66533833  1  -1.171858  0  -0.3191  -0.555302  0  2.34851  0
O  O213  1  0.35554708  0.60679451  0.81031852  1  -1.144832  0  -0.314285  -0.535253  0  2.314518  0
O  O214  1  0.25214371  0.59134683  0.79881122  1  -1.172355  0  -0.321124  -0.548979  0  2.325566  0
O  O215  1  0.49927556  0.00127404  0.00039853  1  -1.221602  0  -0.57264  -1.029332  0  2.538166  0
O  O216  1  0.50233950  0.16153529  0.95711033  1  -1.174331  0  -0.319236  -0.546486  0  2.328188  0
O  O217  1  0.38344148  0.99427849  0.94530914  1  -1.170758  0  -0.319038  -0.553709  0  2.343238  0
O  O218  1  0.65781645  0.89031641  0.95155937  1  -1.168255  0  -0.319475  -0.547088  0  2.33052  0
O  O219  1  0.39660796  0.15174664  0.94437933  1  -1.153107  0  -0.316683  -0.540838  0  2.309266  0
O  O220  1  0.65353583  0.00963206  0.94756430  1  -1.170404  0  -0.314951  -0.536285  0  2.303519  0
O  O221  1  0.50058876  0.89585802  0.93731249  1  -1.174292  0  -0.308137  -0.539395  0  2.375571  0
O  O222  1  0.57014603  0.81699604  0.02245282  1  -1.182939  0  -0.318349  -0.545206  0  2.330301  0
O  O223  1  0.51980354  0.03833461  0.08656603  1  -1.165454  0  -0.307717  -0.537761  0  2.379367  0
O  O224  1  0.52403726  0.87488947  0.08136162  1  -1.18352  0  -0.315338  -0.535996  0  2.315757  0
O  O225  1  0.59427774  0.07345674  0.03403435  1  -1.175022  0  -0.318447  -0.55245  0  2.346447  0
O  O226  1  0.31377211  0.08744205  0.02210513  1  -1.153583  0  -0.314992  -0.536133  0  2.299565  0
O  O227  1  0.37103904  0.02254665  0.08004460  1  -1.172721  0  -0.319187  -0.545889  0  2.343376  0
F  F228  1  0.29494923  0.52289110  0.41917014  1  -0.616919  0  -0.088669  -0.106685  0  1.348151  0
F  F229  1  0.78418011  0.54640887  0.66100952  1  -0.619094  0  -0.087744  -0.105433  0  1.345029  0
F  F230  1  0.04620980  0.27123617  0.65062199  1  -0.618885  0  -0.087188  -0.104352  0  1.350742  0
F  F231  1  0.77178602  0.78426021  0.40777535  1  -0.617808  0  -0.089139  -0.107463  0  1.347238  0
F  F232  1  0.70596666  0.47265799  0.09578256  1  -0.621049  0  -0.08788  -0.105669  0  1.350452  0
F  F233  1  0.09639751  0.10411827  0.21793869  1  -0.620649  0  -0.08886  -0.10757  0  1.347806  0
F  F234  1  0.45729185  0.48182705  0.86003202  1  -0.618207  0  -0.087995  -0.105392  0  1.347971  0
F  F235  1  0.96838474  0.72279476  0.84682752  1  -0.619016  0  -0.088179  -0.105826  0  1.348919  0
