# generated using pymatgen
data_CdPH8C9NO4
_symmetry_space_group_name_H-M   'P 1'
_cell_length_a   5.47746387
_cell_length_b   10.92223268
_cell_length_c   17.04753877
_cell_angle_alpha   102.44000603
_cell_angle_beta   89.99980844
_cell_angle_gamma   89.99871766
_symmetry_Int_Tables_number   1
_chemical_formula_structural   CdPH8C9NO4
_chemical_formula_sum   'Cd4 P4 H32 C36 N4 O16'
_cell_volume   995.94352148
_cell_formula_units_Z   4
loop_
 _symmetry_equiv_pos_site_id
 _symmetry_equiv_pos_as_xyz
  1  'x, y, z'
loop_
 _atom_site_type_symbol
 _atom_site_label
 _atom_site_symmetry_multiplicity
 _atom_site_fract_x
 _atom_site_fract_y
 _atom_site_fract_z
 _atom_site_occupancy
 _atom_site_hle17_bader_spin_density
 _atom_site_hle17_ddec_charge
 _atom_site_hle17_ddec_spin_density
 _atom_site_hle17_ddec_sum_bond_order
 _atom_site_hle17_magmom
 _atom_site_hse06_10hf_bader_spin_density
 _atom_site_hse06_10hf_ddec_charge
 _atom_site_hse06_10hf_ddec_spin_density
 _atom_site_hse06_10hf_ddec_sum_bond_order
 _atom_site_hse06_10hf_magmom
 _atom_site_hse06_bader_spin_density
 _atom_site_hse06_ddec_charge
 _atom_site_hse06_ddec_spin_density
 _atom_site_hse06_ddec_sum_bond_order
 _atom_site_hse06_magmom
 _atom_site_pbe_bader_spin_density
 _atom_site_pbe_cm5_charge
 _atom_site_pbe_ddec_charge
 _atom_site_pbe_ddec_spin_density
 _atom_site_pbe_ddec_sum_bond_order
 _atom_site_pbe_magmom
Cd  Cd0  1  0.40972578  0.81781475  0.58564179  1  0  1.31391  0  1.60739  0  0  1.137699  0  2.055728  0  0  1.188505  0  1.999406  0  0  0.805357  1.100387  0  2.095442  0
Cd  Cd1  1  0.90972659  0.68216009  0.41436213  1  0  1.313793  0  1.60725  0  0  1.137664  0  2.055412  0  0  1.18841  0  1.999219  0  0  0.805346  1.100385  0  2.095078  0
Cd  Cd2  1  0.59027308  0.18216581  0.41436145  1  0  1.313806  0  1.607293  0  0  1.137624  0  2.055527  0  0  1.1884  0  1.999266  0  0  0.805317  1.100331  0  2.095198  0
Cd  Cd3  1  0.09025767  0.31782333  0.58564383  1  0  1.313863  0  1.607119  0  0  1.137661  0  2.055366  0  0  1.188452  0  1.999088  0  0  0.805316  1.100363  0  2.095043  0
P  P4  1  0.88957962  0.63122947  0.60104722  1  0  1.433697  0  4.947226  0  0  1.261073  0  5.446696  0  0  1.312899  0  5.409167  0  0  0.33383  1.224672  0  5.471576  0
P  P5  1  0.38957125  0.86874553  0.39895866  1  0  1.433126  0  4.947507  0  0  1.260397  0  5.44738  0  0  1.312223  0  5.409871  0  0  0.333637  1.223992  0  5.472261  0
P  P6  1  0.11045210  0.36874535  0.39894763  1  0  1.4333  0  4.947473  0  0  1.260785  0  5.446851  0  0  1.312594  0  5.409359  0  0  0.333675  1.224375  0  5.471733  0
P  P7  1  0.61039292  0.13123808  0.60105964  1  0  1.433881  0  4.947417  0  0  1.261216  0  5.447109  0  0  1.313042  0  5.409559  0  0  0.333827  1.22478  0  5.472041  0
H  H8  1  0.02397796  0.58650844  0.75451498  1  0  0.105154  0  0.964982  0  0  0.11685  0  1.025663  0  0  0.11954  0  1.025491  0  0  0.109518  0.114781  0  1.026209  0
H  H9  1  0.52393303  0.91348685  0.24550166  1  0  0.105341  0  0.964942  0  0  0.116979  0  1.025672  0  0  0.119693  0  1.02547  0  0  0.109581  0.114914  0  1.026212  0
H  H10  1  0.97610488  0.41351234  0.24548710  1  0  0.105318  0  0.964947  0  0  0.117022  0  1.025585  0  0  0.119706  0  1.025413  0  0  0.109602  0.11495  0  1.026134  0
H  H11  1  0.47600740  0.08654177  0.75452317  1  0  0.105097  0  0.965032  0  0  0.11682  0  1.025694  0  0  0.119455  0  1.025589  0  0  0.109496  0.114775  0  1.026207  0
H  H12  1  0.85842634  0.65818098  0.89289472  1  0  0.087952  0  0.954251  0  0  0.10213  0  1.014539  0  0  0.104376  0  1.013507  0  0  0.103564  0.100536  0  1.015295  0
H  H13  1  0.35846395  0.84182142  0.10711506  1  0  0.087936  0  0.954346  0  0  0.102153  0  1.014586  0  0  0.104401  0  1.013554  0  0  0.103551  0.100558  0  1.015335  0
H  H14  1  0.14158894  0.34182186  0.10709678  1  0  0.08788  0  0.95419  0  0  0.102133  0  1.014419  0  0  0.104381  0  1.013392  0  0  0.103559  0.100535  0  1.01517  0
H  H15  1  0.64154403  0.15816481  0.89289127  1  0  0.087884  0  0.954482  0  0  0.102093  0  1.014743  0  0  0.10434  0  1.01371  0  0  0.103528  0.100497  0  1.015492  0
H  H16  1  0.55216218  0.79109841  0.98366222  1  0  0.083314  0  0.973155  0  0  0.092829  0  1.041159  0  0  0.095314  0  1.040693  0  0  0.095158  0.091038  0  1.04152  0
H  H17  1  0.05213622  0.70890576  0.01633597  1  0  0.083293  0  0.973003  0  0  0.092723  0  1.041124  0  0  0.095208  0  1.04066  0  0  0.095066  0.090944  0  1.041471  0
H  H18  1  0.44785493  0.20892312  0.01632823  1  0  0.083403  0  0.972997  0  0  0.092899  0  1.041021  0  0  0.09539  0  1.040551  0  0  0.095124  0.091091  0  1.0414  0
H  H19  1  0.94791376  0.29111247  0.98368279  1  0  0.083515  0  0.973  0  0  0.092935  0  1.041084  0  0  0.095418  0  1.04062  0  0  0.095196  0.091139  0  1.041445  0
H  H20  1  0.20476126  0.94156493  0.00051747  1  0  0.079508  0  0.969777  0  0  0.091664  0  1.032007  0  0  0.094056  0  1.031304  0  0  0.095785  0.089959  0  1.032571  0
H  H21  1  0.70472627  0.55845282  0.99949528  1  0  0.079532  0  0.969658  0  0  0.09157  0  1.032007  0  0  0.093953  0  1.031322  0  0  0.095784  0.089872  0  1.032574  0
H  H22  1  0.79525630  0.05845318  0.99947498  1  0  0.079442  0  0.969697  0  0  0.091537  0  1.032002  0  0  0.093924  0  1.03131  0  0  0.095729  0.089835  0  1.032571  0
H  H23  1  0.29527669  0.44157299  0.00051050  1  0  0.079478  0  0.969632  0  0  0.091656  0  1.031826  0  0  0.094044  0  1.031133  0  0  0.09579  0.089957  0  1.032391  0
H  H24  1  0.02910538  0.00740263  0.88082245  1  0  0.080345  0  0.970085  0  0  0.09117  0  1.033195  0  0  0.093392  0  1.033127  0  0  0.094857  0.089451  0  1.033561  0
H  H25  1  0.52909869  0.49260687  0.11920250  1  0  0.080389  0  0.970082  0  0  0.091229  0  1.033165  0  0  0.09345  0  1.033098  0  0  0.094968  0.089514  0  1.033523  0
H  H26  1  0.97090149  0.99259030  0.11916827  1  0  0.080367  0  0.97021  0  0  0.091149  0  1.033366  0  0  0.09337  0  1.033299  0  0  0.094871  0.089432  0  1.033726  0
H  H27  1  0.47085818  0.50742984  0.88080109  1  0  0.080411  0  0.970186  0  0  0.091243  0  1.033267  0  0  0.093465  0  1.033202  0  0  0.094901  0.089522  0  1.033643  0
H  H28  1  0.20104836  0.92745776  0.74557918  1  0  0.12429  0  0.990555  0  0  0.132997  0  1.052142  0  0  0.137136  0  1.048752  0  0  0.106849  0.129909  0  1.054726  0
H  H29  1  0.70111782  0.57255016  0.25441988  1  0  0.124258  0  0.990791  0  0  0.132939  0  1.052426  0  0  0.137078  0  1.049032  0  0  0.106744  0.129849  0  1.055057  0
H  H30  1  0.79890668  0.07252986  0.25439624  1  0  0.124475  0  0.990738  0  0  0.133137  0  1.052352  0  0  0.137267  0  1.048977  0  0  0.106861  0.130029  0  1.054976  0
H  H31  1  0.29888834  0.42744449  0.74558638  1  0  0.124343  0  0.990665  0  0  0.133047  0  1.052261  0  0  0.137177  0  1.048886  0  0  0.106805  0.129932  0  1.054888  0
H  H32  1  0.94533784  0.95737222  0.61227774  1  0  0.438845  0  0.859683  0  0  0.407126  0  0.923662  0  0  0.418016  0  0.908049  0  0  0.289568  0.399333  0  0.93484  0
H  H33  1  0.44534457  0.54257492  0.38770460  1  0  0.43868  0  0.859914  0  0  0.406966  0  0.923907  0  0  0.417856  0  0.908294  0  0  0.289499  0.399176  0  0.93508  0
H  H34  1  0.05467198  0.04259016  0.38769963  1  0  0.438752  0  0.859812  0  0  0.407035  0  0.923804  0  0  0.417929  0  0.908185  0  0  0.289511  0.399248  0  0.934973  0
H  H35  1  0.55466159  0.45738470  0.61227534  1  0  0.438943  0  0.859542  0  0  0.407255  0  0.923484  0  0  0.418145  0  0.907871  0  0  0.289588  0.399463  0  0.934663  0
H  H36  1  0.18519667  0.04209138  0.62335732  1  0  0.423821  0  0.889771  0  0  0.390641  0  0.957381  0  0  0.401678  0  0.941552  0  0  0.285047  0.382787  0  0.968589  0
H  H37  1  0.68523035  0.45787720  0.37662853  1  0  0.4237  0  0.889966  0  0  0.3906  0  0.957428  0  0  0.401641  0  0.941598  0  0  0.284997  0.382743  0  0.96864  0
H  H38  1  0.81478210  0.95790584  0.37663403  1  0  0.423806  0  0.889758  0  0  0.39067  0  0.957307  0  0  0.401709  0  0.941477  0  0  0.28504  0.382809  0  0.968528  0
H  H39  1  0.31479589  0.54209828  0.62334881  1  0  0.423913  0  0.889631  0  0  0.390809  0  0.957114  0  0  0.401844  0  0.941289  0  0  0.285122  0.382959  0  0.968315  0
C  C40  1  0.76529679  0.69580912  0.70158349  1  0  -0.011239  0  3.691156  0  0  0.009812  0  3.940889  0  0  0.012782  0  3.955867  0  0  0.120745  0.007666  0  3.931157  0
C  C41  1  0.26524997  0.80418444  0.29842129  1  0  -0.011051  0  3.691286  0  0  0.009853  0  3.941256  0  0  0.012835  0  3.956219  0  0  0.120613  0.007704  0  3.931528  0
C  C42  1  0.23474041  0.30417879  0.29841015  1  0  -0.011237  0  3.691603  0  0  0.009642  0  3.941545  0  0  0.012606  0  3.956529  0  0  0.12062  0.007496  0  3.93181  0
C  C43  1  0.73473246  0.19580928  0.70158543  1  0  -0.011227  0  3.69146  0  0  0.009652  0  3.941424  0  0  0.012623  0  3.956388  0  0  0.120689  0.007508  0  3.931711  0
C  C44  1  0.87053738  0.65119515  0.76636752  1  0  -0.083338  0  3.728591  0  0  -0.107238  0  3.97907  0  0  -0.112486  0  3.999845  0  0  -0.076929  -0.103832  0  3.965449  0
C  C45  1  0.37053382  0.84880814  0.23364461  1  0  -0.083346  0  3.728052  0  0  -0.107166  0  3.978595  0  0  -0.112428  0  3.999344  0  0  -0.07684  -0.10376  0  3.964972  0
C  C46  1  0.12947426  0.34881350  0.23363648  1  0  -0.083482  0  3.728042  0  0  -0.107346  0  3.9786  0  0  -0.112579  0  3.999367  0  0  -0.076976  -0.103933  0  3.964962  0
C  C47  1  0.62945773  0.15121084  0.76636193  1  0  -0.083244  0  3.728506  0  0  -0.107091  0  3.979028  0  0  -0.11229  0  3.999806  0  0  -0.076863  -0.103704  0  3.965386  0
C  C48  1  0.77839181  0.69058436  0.84233413  1  0  -0.060336  0  3.726174  0  0  -0.082671  0  3.975436  0  0  -0.080764  0  3.993849  0  0  -0.071146  -0.083652  0  3.962809  0
C  C49  1  0.27839702  0.80942419  0.15767721  1  0  -0.060441  0  3.726036  0  0  -0.082788  0  3.975297  0  0  -0.080883  0  3.993709  0  0  -0.071153  -0.083771  0  3.962666  0
C  C50  1  0.22162713  0.30941203  0.15766357  1  0  -0.060393  0  3.726041  0  0  -0.082802  0  3.975358  0  0  -0.080896  0  3.993759  0  0  -0.071222  -0.083782  0  3.962717  0
C  C51  1  0.72159088  0.19057433  0.84233719  1  0  -0.06027  0  3.7258  0  0  -0.082673  0  3.975101  0  0  -0.080763  0  3.993489  0  0  -0.07112  -0.083648  0  3.962469  0
C  C52  1  0.57877107  0.77529085  0.85522794  1  0  0.013485  0  3.796481  0  0  0.032377  0  4.019986  0  0  0.0294  0  4.045195  0  0  -0.007563  0.034167  0  4.00311  0
C  C53  1  0.07876182  0.72472726  0.14477477  1  0  0.013441  0  3.796831  0  0  0.032305  0  4.02035  0  0  0.02933  0  4.045559  0  0  -0.007637  0.034102  0  4.003462  0
C  C54  1  0.42123509  0.22472233  0.14476669  1  0  0.013659  0  3.796983  0  0  0.032539  0  4.020486  0  0  0.029566  0  4.045693  0  0  -0.007501  0.034335  0  4.003593  0
C  C55  1  0.92121513  0.27527591  0.85523789  1  0  0.013609  0  3.796384  0  0  0.0325  0  4.019892  0  0  0.029526  0  4.045098  0  0  -0.007444  0.034285  0  4.003012  0
C  C56  1  0.47415601  0.82121132  0.93196073  1  0  -0.124599  0  3.775073  0  0  -0.143503  0  4.023463  0  0  -0.146035  0  4.045666  0  0  -0.09605  -0.141518  0  4.008361  0
C  C57  1  0.97414613  0.67880630  0.06805292  1  0  -0.124578  0  3.774987  0  0  -0.143385  0  4.02335  0  0  -0.145919  0  4.045551  0  0  -0.095894  -0.141413  0  4.008238  0
C  C58  1  0.52585015  0.17881315  0.06803773  1  0  -0.12463  0  3.775222  0  0  -0.143505  0  4.023594  0  0  -0.146043  0  4.045792  0  0  -0.095906  -0.141513  0  4.008505  0
C  C59  1  0.02584542  0.32121948  0.93196977  1  0  -0.124875  0  3.775001  0  0  -0.143692  0  4.023438  0  0  -0.146223  0  4.045633  0  0  -0.09613  -0.141696  0  4.008333  0
C  C60  1  0.28107290  0.90436754  0.94110397  1  0  -0.083509  0  3.816979  0  0  -0.098295  0  4.06989  0  0  -0.100757  0  4.092683  0  0  -0.098356  -0.096657  0  4.054224  0
C  C61  1  0.78105417  0.59564943  0.05890845  1  0  -0.08338  0  3.816982  0  0  -0.098079  0  4.069897  0  0  -0.100537  0  4.092689  0  0  -0.098363  -0.096449  0  4.054244  0
C  C62  1  0.71892231  0.09565592  0.05888967  1  0  -0.083444  0  3.817181  0  0  -0.098178  0  4.070077  0  0  -0.100639  0  4.092874  0  0  -0.098362  -0.096544  0  4.054415  0
C  C63  1  0.21892461  0.40437142  0.94109775  1  0  -0.083437  0  3.81711  0  0  -0.098247  0  4.070045  0  0  -0.100705  0  4.092835  0  0  -0.098357  -0.096618  0  4.054383  0
C  C64  1  0.18356778  0.94292608  0.87362316  1  0  -0.058451  0  3.780904  0  0  -0.072424  0  4.030645  0  0  -0.074444  0  4.053442  0  0  -0.092674  -0.070846  0  4.015144  0
C  C65  1  0.68354385  0.55708106  0.12637948  1  0  -0.058606  0  3.780776  0  0  -0.07257  0  4.030523  0  0  -0.074592  0  4.053316  0  0  -0.092809  -0.070988  0  4.015022  0
C  C66  1  0.81646394  0.05707845  0.12635742  1  0  -0.05834  0  3.780421  0  0  -0.072264  0  4.030109  0  0  -0.074284  0  4.052901  0  0  -0.092608  -0.070685  0  4.014609  0
C  C67  1  0.31641119  0.44294257  0.87362533  1  0  -0.058633  0  3.780919  0  0  -0.072568  0  4.030671  0  0  -0.074592  0  4.053462  0  0  -0.092744  -0.070986  0  4.015178  0
C  C68  1  0.28023933  0.89951244  0.79792547  1  0  -0.145247  0  3.700426  0  0  -0.16528  0  3.947968  0  0  -0.168764  0  3.96752  0  0  -0.087369  -0.162902  0  3.934909  0
C  C69  1  0.78021360  0.60049703  0.20208597  1  0  -0.145107  0  3.699852  0  0  -0.165166  0  3.947391  0  0  -0.168652  0  3.966947  0  0  -0.08723  -0.162809  0  3.934359  0
C  C70  1  0.71978326  0.10049234  0.20207098  1  0  -0.145649  0  3.700217  0  0  -0.165656  0  3.947696  0  0  -0.169147  0  3.96726  0  0  -0.087394  -0.163279  0  3.934693  0
C  C71  1  0.21973048  0.39949769  0.79792441  1  0  -0.145122  0  3.700018  0  0  -0.165196  0  3.947561  0  0  -0.168682  0  3.967118  0  0  -0.087191  -0.162801  0  3.934548  0
C  C72  1  0.48197785  0.81632409  0.78703627  1  0  0.208363  0  3.74167  0  0  0.20899  0  3.976735  0  0  0.213975  0  3.999502  0  0  0.111902  0.205564  0  3.961553  0
C  C73  1  0.98196292  0.68370546  0.21296597  1  0  0.208205  0  3.741897  0  0  0.208924  0  3.976879  0  0  0.213904  0  3.999647  0  0  0.111885  0.205501  0  3.961692  0
C  C74  1  0.51805935  0.18369465  0.21295498  1  0  0.208343  0  3.741867  0  0  0.209004  0  3.976853  0  0  0.213987  0  3.999621  0  0  0.111853  0.205579  0  3.961669  0
C  C75  1  0.01801038  0.31630624  0.78705369  1  0  0.208404  0  3.741523  0  0  0.20909  0  3.976538  0  0  0.214071  0  3.999303  0  0  0.111814  0.205661  0  3.96136  0
N  N76  1  0.57991446  0.77621118  0.71163535  1  0  -0.351724  0  3.183728  0  0  -0.295489  0  3.437157  0  0  -0.311524  0  3.454167  0  0  -0.30203  -0.284473  0  3.42594  0
N  N77  1  0.07988225  0.72380030  0.28836296  1  0  -0.351723  0  3.184651  0  0  -0.295467  0  3.438089  0  0  -0.311492  0  3.455093  0  0  -0.302041  -0.284445  0  3.426868  0
N  N78  1  0.42012273  0.22379067  0.28835309  1  0  -0.351636  0  3.183928  0  0  -0.295358  0  3.437365  0  0  -0.311388  0  3.454379  0  0  -0.30199  -0.284341  0  3.426148  0
N  N79  1  0.92012574  0.27619629  0.71164767  1  0  -0.351858  0  3.183466  0  0  -0.295611  0  3.436969  0  0  -0.311639  0  3.453976  0  0  -0.302108  -0.284592  0  3.425759  0
O  O80  1  0.75300094  0.69705516  0.54281103  1  0  -0.872944  0  2.037023  0  0  -0.769035  0  2.32671  0  0  -0.799411  0  2.301783  0  0  -0.379351  -0.747077  0  2.343537  0
O  O81  1  0.25299248  0.80293658  0.45719187  1  0  -0.872623  0  2.037119  0  0  -0.76874  0  2.326864  0  0  -0.799125  0  2.301971  0  0  -0.379152  -0.746781  0  2.343685  0
O  O82  1  0.24699609  0.30293381  0.45719096  1  0  -0.872687  0  2.036908  0  0  -0.76885  0  2.326644  0  0  -0.79924  0  2.30175  0  0  -0.379229  -0.746887  0  2.343468  0
O  O83  1  0.74696074  0.19704309  0.54281359  1  0  -0.872987  0  2.037175  0  0  -0.769142  0  2.326962  0  0  -0.799508  0  2.302025  0  0  -0.379311  -0.747171  0  2.343806  0
O  O84  1  0.84040123  0.49002044  0.58783377  1  0  -0.864603  0  2.007038  0  0  -0.769695  0  2.273887  0  0  -0.799934  0  2.252509  0  0  -0.372782  -0.747653  0  2.288076  0
O  O85  1  0.34040849  0.00996768  0.41214853  1  0  -0.864538  0  2.007079  0  0  -0.76953  0  2.273853  0  0  -0.799768  0  2.252475  0  0  -0.372816  -0.747491  0  2.288041  0
O  O86  1  0.15961223  0.50995980  0.41214830  1  0  -0.864546  0  2.007127  0  0  -0.769627  0  2.273916  0  0  -0.799891  0  2.252623  0  0  -0.372809  -0.747579  0  2.288098  0
O  O87  1  0.65955751  0.99002217  0.58785007  1  0  -0.864656  0  2.007039  0  0  -0.769716  0  2.273865  0  0  -0.799971  0  2.252541  0  0  -0.372848  -0.747667  0  2.288062  0
O  O88  1  0.16368985  0.65961574  0.60617196  1  0  -0.871273  0  2.066778  0  0  -0.776242  0  2.339386  0  0  -0.807223  0  2.319525  0  0  -0.377223  -0.753652  0  2.352047  0
O  O89  1  0.66368990  0.84035306  0.39382347  1  0  -0.871216  0  2.066658  0  0  -0.776124  0  2.3392  0  0  -0.807132  0  2.319421  0  0  -0.37717  -0.753533  0  2.351855  0
O  O90  1  0.83633457  0.34036567  0.39382493  1  0  -0.871139  0  2.066648  0  0  -0.776098  0  2.3392  0  0  -0.807061  0  2.31931  0  0  -0.377104  -0.753511  0  2.351878  0
O  O91  1  0.33627975  0.15963445  0.60620532  1  0  -0.871519  0  2.067036  0  0  -0.77627  0  2.339422  0  0  -0.807305  0  2.319684  0  0  -0.377209  -0.753672  0  2.352092  0
O  O92  1  0.11342421  0.96352483  0.63593888  1  0  -0.865332  0  1.872093  0  0  -0.795451  0  2.071117  0  0  -0.819646  0  2.037969  0  0  -0.590628  -0.777954  0  2.094171  0
O  O93  1  0.61343821  0.53643945  0.36404586  1  0  -0.865144  0  1.872147  0  0  -0.795339  0  2.071111  0  0  -0.819514  0  2.037925  0  0  -0.59062  -0.777872  0  2.094228  0
O  O94  1  0.88657465  0.03645641  0.36404743  1  0  -0.8653  0  1.872112  0  0  -0.795439  0  2.071008  0  0  -0.819622  0  2.037822  0  0  -0.590651  -0.77794  0  2.094069  0
O  O95  1  0.38658438  0.46354561  0.63594565  1  0  -0.865612  0  1.871719  0  0  -0.795806  0  2.070638  0  0  -0.819982  0  2.037435  0  0  -0.590782  -0.778313  0  2.0937  0
