# generated using pymatgen
data_Cd2H20C22SN12O7
_symmetry_space_group_name_H-M   'P 1'
_cell_length_a   10.22342614
_cell_length_b   11.55085325
_cell_length_c   11.90800000
_cell_angle_alpha   94.71198637
_cell_angle_beta   95.23368450
_cell_angle_gamma   97.36235307
_symmetry_Int_Tables_number   1
_chemical_formula_structural   Cd2H20C22SN12O7
_chemical_formula_sum   'Cd4 H40 C44 S2 N24 O14'
_cell_volume   1382.51694697
_cell_formula_units_Z   2
loop_
 _symmetry_equiv_pos_site_id
 _symmetry_equiv_pos_as_xyz
  1  'x, y, z'
loop_
 _atom_site_type_symbol
 _atom_site_label
 _atom_site_symmetry_multiplicity
 _atom_site_fract_x
 _atom_site_fract_y
 _atom_site_fract_z
 _atom_site_occupancy
 _atom_site_hle17_bader_spin_density
 _atom_site_hle17_ddec_charge
 _atom_site_hle17_ddec_spin_density
 _atom_site_hle17_ddec_sum_bond_order
 _atom_site_hle17_magmom
 _atom_site_hse06_10hf_bader_spin_density
 _atom_site_hse06_10hf_ddec_charge
 _atom_site_hse06_10hf_ddec_spin_density
 _atom_site_hse06_10hf_ddec_sum_bond_order
 _atom_site_hse06_10hf_magmom
 _atom_site_hse06_bader_spin_density
 _atom_site_hse06_ddec_charge
 _atom_site_hse06_ddec_spin_density
 _atom_site_hse06_ddec_sum_bond_order
 _atom_site_hse06_magmom
 _atom_site_pbe_bader_charge
 _atom_site_pbe_bader_spin_density
 _atom_site_pbe_cm5_charge
 _atom_site_pbe_ddec_charge
 _atom_site_pbe_ddec_spin_density
 _atom_site_pbe_ddec_sum_bond_order
 _atom_site_pbe_magmom
Cd  Cd0  1  0.52290220  0.41375510  0.72410541  1  0  1.009187  0  1.802591  0  0  0.791762  0  2.259835  0  0  0.850143  0  2.211657  0  1.213783  0  0.783213  0.750382  0  2.29278  0
Cd  Cd1  1  0.47709147  0.58624761  0.27590263  1  0  1.009137  0  1.802616  0  0  0.791712  0  2.259885  0  0  0.850097  0  2.211698  0  1.213826  0  0.783206  0.750329  0  2.292835  0
Cd  Cd2  1  0.08938646  0.89968176  0.90259805  1  0  1.132678  0  1.688347  0  0  0.931405  0  2.135369  0  0  0.983207  0  2.088833  0  1.274912  0  0.799652  0.894948  0  2.166873  0
Cd  Cd3  1  0.91060723  0.10031482  0.09740026  1  0  1.132709  0  1.688349  0  0  0.931447  0  2.13536  0  0  0.983241  0  2.08883  0  1.274931  0  0.799669  0.894993  0  2.166862  0
H  H4  1  0.23647090  0.22070627  0.61148511  1  0  0.087411  0  0.938148  0  0  0.096523  0  0.997697  0  0  0.099279  0  0.996481  0  0.092347  0  0.120389  0.094391  0  0.998903  0
H  H5  1  0.76352113  0.77928591  0.38851944  1  0  0.087383  0  0.938052  0  0  0.096498  0  0.997595  0  0  0.099255  0  0.996377  0  0.092229  0  0.120377  0.094366  0  0.998799  0
H  H6  1  0.08155857  0.05201337  0.67619770  1  0  0.103403  0  0.936288  0  0  0.111798  0  0.996483  0  0  0.1148  0  0.993925  0  0.135435  0  0.125028  0.109454  0  0.998632  0
H  H7  1  0.91843553  0.94798584  0.32381261  1  0  0.10349  0  0.936186  0  0  0.11186  0  0.996409  0  0  0.114863  0  0.99385  0  0.13538  0  0.125045  0.109517  0  0.998555  0
H  H8  1  0.28503952  0.11238360  0.99713503  1  0  0.097921  0  0.988989  0  0  0.10224  0  1.056629  0  0  0.105847  0  1.053217  0  0.157061  0  0.124722  0.099559  0  1.059126  0
H  H9  1  0.71496214  0.88761999  0.00287370  1  0  0.097995  0  0.988983  0  0  0.102299  0  1.056627  0  0  0.105913  0  1.053198  0  0.157077  0  0.124745  0.099624  0  1.059107  0
H  H10  1  0.88493297  0.68035923  0.84944786  1  0  0.087177  0  0.950746  0  0  0.09249  0  1.021334  0  0  0.09585  0  1.017891  0  0.112742  0  0.114988  0.090174  0  1.023423  0
H  H11  1  0.11506049  0.31962945  0.15055316  1  0  0.087194  0  0.950773  0  0  0.092524  0  1.021354  0  0  0.095893  0  1.017914  0  0.112677  0  0.114955  0.090205  0  1.023448  0
H  H12  1  0.13954259  0.78461659  0.14203641  1  0  0.08403  0  0.962443  0  0  0.090376  0  1.03091  0  0  0.093236  0  1.027292  0  0.128975  0  0.115844  0.088264  0  1.033404  0
H  H13  1  0.86046513  0.21538173  0.85795138  1  0  0.084084  0  0.962443  0  0  0.09043  0  1.030906  0  0  0.09329  0  1.027286  0  0.129026  0  0.115873  0.088304  0  1.033426  0
H  H14  1  0.02673598  0.62405957  0.24393879  1  0  0.103921  0  0.938492  0  0  0.119836  0  0.987502  0  0  0.122578  0  0.987582  0  0.080846  0  0.108963  0.118003  0  0.987367  0
H  H15  1  0.97326849  0.37594314  0.75605330  1  0  0.103858  0  0.938558  0  0  0.119845  0  0.987498  0  0  0.122593  0  0.987571  0  0.080744  0  0.108945  0.11801  0  0.987366  0
H  H16  1  0.82769181  0.49186766  0.14080203  1  0  0.105184  0  0.956521  0  0  0.10997  0  1.029416  0  0  0.113482  0  1.026108  0  0.128958  0  0.108208  0.10747  0  1.031687  0
H  H17  1  0.17231069  0.50813505  0.85919662  1  0  0.105164  0  0.956565  0  0  0.109931  0  1.029468  0  0  0.113446  0  1.026151  0  0.128988  0  0.108192  0.107431  0  1.03174  0
H  H18  1  0.71405844  0.18307495  0.68755769  1  0  0.096589  0  0.949061  0  0  0.103052  0  1.012294  0  0  0.106616  0  1.009115  0  0.132788  0  0.118751  0.100485  0  1.014636  0
H  H19  1  0.28594873  0.81694529  0.31245783  1  0  0.096795  0  0.948917  0  0  0.103214  0  1.012154  0  0  0.106777  0  1.008977  0  0.132832  0  0.118821  0.100649  0  1.014491  0
H  H20  1  0.74774495  0.03391940  0.53247252  1  0  0.089619  0  0.94345  0  0  0.09554  0  1.007072  0  0  0.098918  0  1.004668  0  0.095716  0  0.111362  0.093086  0  1.00899  0
H  H21  1  0.25228989  0.96609559  0.46755063  1  0  0.089281  0  0.943321  0  0  0.095242  0  1.006962  0  0  0.098625  0  1.004547  0  0.095217  0  0.111152  0.092788  0  1.008879  0
H  H22  1  0.46573255  0.15713097  0.31626138  1  0  0.10188  0  0.954995  0  0  0.109015  0  1.014729  0  0  0.113034  0  1.011788  0  0.147471  0  0.119582  0.10611  0  1.016956  0
H  H23  1  0.53427788  0.84285947  0.68374111  1  0  0.101738  0  0.955222  0  0  0.108944  0  1.014869  0  0  0.11296  0  1.01193  0  0.147347  0  0.119554  0.10604  0  1.017093  0
H  H24  1  0.24714275  0.70822626  0.80685832  1  0  0.081872  0  0.960157  0  0  0.088194  0  1.03219  0  0  0.092129  0  1.027564  0  0.116028  0  0.116179  0.085295  0  1.035677  0
H  H25  1  0.75285538  0.29177996  0.19313102  1  0  0.081896  0  0.960141  0  0  0.088081  0  1.032364  0  0  0.092013  0  1.027742  0  0.115834  0  0.116155  0.085181  0  1.035853  0
H  H26  1  0.93256011  0.83980434  0.63938719  1  0  0.090844  0  0.992008  0  0  0.096782  0  1.058695  0  0  0.10005  0  1.055263  0  0.160225  0  0.110339  0.094245  0  1.06145  0
H  H27  1  0.06743649  0.16019837  0.36060008  1  0  0.090782  0  0.992061  0  0  0.096728  0  1.058757  0  0  0.099995  0  1.055324  0  0.160308  0  0.110321  0.094194  0  1.061506  0
H  H28  1  0.94446547  0.70748002  0.46257531  1  0  0.096249  0  0.961763  0  0  0.10487  0  1.024221  0  0  0.108021  0  1.023647  0  0.050672  0  0.102084  0.102577  0  1.025059  0
H  H29  1  0.05552779  0.29252006  0.53741233  1  0  0.096202  0  0.961806  0  0  0.104838  0  1.024254  0  0  0.107985  0  1.023676  0  0.050853  0  0.102095  0.102544  0  1.025092  0
H  H30  1  0.12269266  0.57535651  0.46099057  1  0  0.101328  0  0.942528  0  0  0.109299  0  1.00765  0  0  0.113563  0  1.003572  0  0.11641  0  0.108095  0.106176  0  1.010578  0
H  H31  1  0.87730019  0.42464094  0.53900186  1  0  0.101339  0  0.942645  0  0  0.109387  0  1.00768  0  0  0.113654  0  1.003607  0  0.116534  0  0.108123  0.106263  0  1.010606  0
H  H32  1  0.54603166  0.34119770  0.11780227  1  0  0.343546  0  0.900118  0  0  0.319524  0  0.976821  0  0  0.328727  0  0.967863  0  0.500588  0  0.30103  0.312901  0  0.983371  0
H  H33  1  0.45396092  0.65879800  0.88219924  1  0  0.343553  0  0.900052  0  0  0.319517  0  0.976774  0  0  0.32872  0  0.967818  0  0.50057  0  0.301032  0.312895  0  0.983323  0
H  H34  1  0.40845634  0.23482964  0.10209294  1  0  0.336873  0  0.916651  0  0  0.318439  0  0.980297  0  0  0.325143  0  0.975354  0  0.503157  0  0.29682  0.313737  0  0.983658  0
H  H35  1  0.59153904  0.76516518  0.89790452  1  0  0.336801  0  0.916723  0  0  0.318429  0  0.980273  0  0  0.325129  0  0.975336  0  0.503202  0  0.296834  0.313727  0  0.983633  0
H  H36  1  0.26405749  0.38993409  0.37057068  1  0  0.332788  0  0.889381  0  0  0.314755  0  0.955647  0  0  0.323023  0  0.94799  0  0.473957  0  0.309106  0.308873  0  0.961229  0
H  H37  1  0.73594393  0.61006161  0.62942816  1  0  0.332747  0  0.889395  0  0  0.314746  0  0.955608  0  0  0.323014  0  0.947951  0  0.47389  0  0.309127  0.308864  0  0.961192  0
H  H38  1  0.31818831  0.26310092  0.30913487  1  0  0.345878  0  0.93516  0  0  0.325192  0  0.999898  0  0  0.332795  0  0.994096  0  0.52844  0  0.296781  0.319791  0  1.003998  0
H  H39  1  0.68181552  0.73689127  0.69086220  1  0  0.345898  0  0.935247  0  0  0.325236  0  0.999957  0  0  0.332825  0  0.994165  0  0.528674  0  0.296843  0.319878  0  1.003989  0
H  H40  1  0.38056910  0.83403784  0.94059420  1  0  0.404705  0  0.895953  0  0  0.373637  0  0.960895  0  0  0.383712  0  0.946541  0  0.596519  0  0.284854  0.366549  0  0.970961  0
H  H41  1  0.61942446  0.16595785  0.05940151  1  0  0.404852  0  0.895905  0  0  0.373806  0  0.960684  0  0  0.383881  0  0.946331  0  0.59659  0  0.284947  0.366719  0  0.970751  0
H  H42  1  0.32716198  0.90896551  0.04159698  1  0  0.424559  0  0.883271  0  0  0.393529  0  0.946796  0  0  0.404591  0  0.930672  0  0.641824  0  0.282067  0.385723  0  0.958131  0
H  H43  1  0.67283269  0.09103107  0.95839469  1  0  0.424605  0  0.883248  0  0  0.393513  0  0.946851  0  0  0.404568  0  0.930743  0  0.641601  0  0.282069  0.385705  0  0.958188  0
C  C44  1  0.24661063  0.19561902  0.69797666  1  0  0.091105  0  3.698714  0  0  0.062065  0  3.95875  0  0  0.064267  0  3.974106  0  0.527254  0  0.060767  0.060385  0  3.94879  0
C  C45  1  0.75339092  0.80437755  0.30202562  1  0  0.091081  0  3.698543  0  0  0.062048  0  3.958572  0  0  0.06425  0  3.973928  0  0.527322  0  0.060729  0.060372  0  3.948606  0
C  C46  1  0.16287842  0.10275523  0.73208979  1  0  0.078141  0  3.66404  0  0  0.045224  0  3.920733  0  0  0.050897  0  3.935639  0  0.524533  0  0.057833  0.04063  0  3.911593  0
C  C47  1  0.83711958  0.89725011  0.26791124  1  0  0.078027  0  3.663819  0  0  0.045125  0  3.920529  0  0  0.050795  0  3.935435  0  0.524629  0  0.057795  0.040516  0  3.911416  0
C  C48  1  0.27581515  0.13694910  0.91100362  1  0  0.086496  0  3.617732  0  0  0.050641  0  3.85766  0  0  0.055042  0  3.873436  0  0.521824  0  0.0629  0.046848  0  3.848612  0
C  C49  1  0.72418122  0.86304572  0.08900148  1  0  0.086294  0  3.61793  0  0  0.050486  0  3.857834  0  0  0.0549  0  3.873589  0  0.521938  0  0.062851  0.046696  0  3.848787  0
C  C50  1  0.35974076  0.22990759  0.87654536  1  0  0.106867  0  3.735118  0  0  0.112797  0  3.976104  0  0  0.114291  0  3.994661  0  0.505906  0  0.134984  0.111204  0  3.96448  0
C  C51  1  0.64025815  0.77008459  0.12345721  1  0  0.107142  0  3.735042  0  0  0.113022  0  3.976005  0  0  0.114511  0  3.994574  0  0.505329  0  0.135066  0.111429  0  3.964378  0
C  C52  1  0.46916904  0.29706504  0.95373902  1  0  0.375399  0  3.814384  0  0  0.335198  0  4.086267  0  0  0.352216  0  4.100378  0  1.127372  0  0.232919  0.323856  0  4.076553  0
C  C53  1  0.53082364  0.70293767  0.04626558  1  0  0.375328  0  3.814571  0  0  0.335178  0  4.08638  0  0  0.352191  0  4.100499  0  1.1585  0  0.232931  0.323837  0  4.076666  0
C  C54  1  0.73436845  0.49907754  0.91635053  1  0  0.450786  0  3.912726  0  0  0.414609  0  4.197406  0  0  0.439493  0  4.207172  0  1.299313  0  0.20083  0.398401  0  4.189568  0
C  C55  1  0.26562111  0.50093043  0.08365173  1  0  0.450724  0  3.912872  0  0  0.414615  0  4.197478  0  0  0.439501  0  4.207246  0  1.299253  0  0.200817  0.398406  0  4.189638  0
C  C56  1  0.84517946  0.57457256  0.98630458  1  0  -0.072463  0  3.762674  0  0  -0.047547  0  3.995266  0  0  -0.057027  0  4.018902  0  -0.009665  0  -0.006961  -0.042255  0  3.979986  0
C  C57  1  0.15481240  0.42542489  0.01369618  1  0  -0.0725  0  3.762884  0  0  -0.047647  0  3.995501  0  0  -0.057128  0  4.019141  0  -0.010042  0  -0.007031  -0.042357  0  3.980221  0
C  C58  1  0.91456352  0.66564659  0.93666166  1  0  0.111327  0  3.682648  0  0  0.06843  0  3.934654  0  0  0.076614  0  3.952162  0  0.460211  0  0.046095  0.063627  0  3.922597  0
C  C59  1  0.08544061  0.33434121  0.06333341  1  0  0.111253  0  3.682822  0  0  0.068341  0  3.934849  0  0  0.07651  0  3.952373  0  0.460734  0  0.046138  0.063545  0  3.922778  0
C  C60  1  0.05526707  0.72360886  0.10100178  1  0  0.139637  0  3.678717  0  0  0.103628  0  3.936233  0  0  0.112114  0  3.954443  0  0.466816  0  0.047234  0.098787  0  3.923125  0
C  C61  1  0.94473096  0.27639035  0.89899708  1  0  0.139559  0  3.678766  0  0  0.103551  0  3.936321  0  0  0.11204  0  3.954529  0  0.467559  0  0.047188  0.098711  0  3.923217  0
C  C62  1  0.99117033  0.63475513  0.15684041  1  0  -0.124161  0  3.739607  0  0  -0.135871  0  3.993206  0  0  -0.144102  0  4.01507  0  -0.034721  0  -0.08585  -0.13068  0  3.97781  0
C  C63  1  0.00883993  0.36524056  0.84315241  1  0  -0.124066  0  3.739522  0  0  -0.135848  0  3.993077  0  0  -0.144086  0  4.014951  0  -0.035359  0  -0.085813  -0.130653  0  3.977675  0
C  C64  1  0.88333859  0.56036063  0.09980563  1  0  -0.010485  0  3.66777  0  0  -0.040747  0  3.918593  0  0  -0.035106  0  3.935042  0  0.019395  0  -0.058173  -0.043752  0  3.907369  0
C  C65  1  0.11665758  0.43964559  0.90019197  1  0  -0.0105  0  3.667815  0  0  -0.040709  0  3.918622  0  0  -0.035068  0  3.935077  0  0.019282  0  -0.058159  -0.043713  0  3.907396  0
C  C66  1  0.66073626  0.18035919  0.60369281  1  0  0.100993  0  3.679447  0  0  0.071974  0  3.932928  0  0  0.075597  0  3.948678  0  0.49558  0  0.057608  0.069602  0  3.922251  0
C  C67  1  0.33928595  0.81965667  0.39631431  1  0  0.100538  0  3.679278  0  0  0.07158  0  3.932724  0  0  0.075201  0  3.94847  0  0.495186  0  0.057505  0.069207  0  3.922052  0
C  C68  1  0.67790292  0.09611534  0.51668849  1  0  0.06727  0  3.702266  0  0  0.042883  0  3.968227  0  0  0.044901  0  3.984777  0  0.55064  0  0.047132  0.041603  0  3.956928  0
C  C69  1  0.32212075  0.90389088  0.48332469  1  0  0.067844  0  3.701808  0  0  0.043423  0  3.967697  0  0  0.04544  0  3.984252  0  0.551208  0  0.047401  0.042142  0  3.9564  0
C  C70  1  0.52224566  0.16492925  0.39945516  1  0  0.05657  0  3.639079  0  0  0.026459  0  3.899279  0  0  0.028444  0  3.914251  0  0.518138  0  0.050593  0.025204  0  3.889219  0
C  C71  1  0.47776422  0.83508311  0.60055575  1  0  0.056609  0  3.639116  0  0  0.026455  0  3.899387  0  0  0.028452  0  3.914364  0  0.518119  0  0.050587  0.025206  0  3.889319  0
C  C72  1  0.50379271  0.25032009  0.48571869  1  0  0.094387  0  3.73758  0  0  0.097734  0  3.980292  0  0  0.09873  0  4.001138  0  0.498945  0  0.123655  0.096747  0  3.966311  0
C  C73  1  0.49621074  0.74968876  0.51429480  1  0  0.094447  0  3.737215  0  0  0.097663  0  3.980197  0  0  0.098624  0  4.001099  0  0.498387  0  0.12368  0.09668  0  3.966219  0
C  C74  1  0.40627173  0.33377473  0.47138490  1  0  0.3838  0  3.849619  0  0  0.343255  0  4.125677  0  0  0.363241  0  4.137853  0  1.13503  0  0.232107  0.330181  0  4.116861  0
C  C75  1  0.59373175  0.66622798  0.52862139  1  0  0.383861  0  3.84937  0  0  0.343255  0  4.125638  0  0  0.363249  0  4.137812  0  1.135464  0  0.232145  0.330166  0  4.116848  0
C  C76  1  0.30464624  0.55550873  0.64057152  1  0  0.442434  0  3.92979  0  0  0.4056  0  4.217086  0  0  0.429792  0  4.226973  0  1.320154  0  0.193644  0.389149  0  4.210077  0
C  C77  1  0.69534925  0.44449310  0.35942147  1  0  0.442424  0  3.929475  0  0  0.405618  0  4.216761  0  0  0.429813  0  4.226651  0  1.320724  0  0.193674  0.389166  0  4.209752  0
C  C78  1  0.19874548  0.63254184  0.63379165  1  0  -0.069686  0  3.748113  0  0  -0.045429  0  3.979861  0  0  -0.054243  0  4.003646  0  0.009082  0  -0.00776  -0.039925  0  3.964319  0
C  C79  1  0.80125211  0.36746088  0.36620073  1  0  -0.069778  0  3.74803  0  0  -0.045498  0  3.979772  0  0  -0.054314  0  4.00356  0  0.008948  0  -0.007774  -0.039992  0  3.964229  0
C  C80  1  0.18270794  0.70742653  0.72866314  1  0  0.110613  0  3.669746  0  0  0.071745  0  3.9166  0  0  0.079944  0  3.933341  0  0.497384  0  0.045128  0.065436  0  3.906571  0
C  C81  1  0.81728907  0.29257881  0.27132521  1  0  0.110633  0  3.669821  0  0  0.071836  0  3.916697  0  0  0.08004  0  3.933434  0  0.497041  0  0.045094  0.065536  0  3.906649  0
C  C82  1  0.00661200  0.77983661  0.63456568  1  0  0.114746  0  3.697624  0  0  0.084601  0  3.945833  0  0  0.092369  0  3.963725  0  0.451619  0  0.036809  0.079486  0  3.934086  0
C  C83  1  0.99338559  0.22016610  0.36542083  1  0  0.114731  0  3.697674  0  0  0.084524  0  3.945963  0  0  0.092293  0  3.963854  0  0.451307  0  0.036733  0.079403  0  3.934227  0
C  C84  1  0.01484035  0.70688811  0.53678057  1  0  -0.123746  0  3.762329  0  0  -0.133544  0  4.013993  0  0  -0.141211  0  4.035371  0  -0.013028  0  -0.088715  -0.128851  0  4.000315  0
C  C85  1  0.98515321  0.29310758  0.46320674  1  0  -0.123626  0  3.762284  0  0  -0.133413  0  4.013971  0  0  -0.14107  0  4.035345  0  -0.012892  0  -0.088726  -0.12872  0  4.000294  0
C  C86  1  0.11203637  0.63317846  0.53564608  1  0  -0.02472  0  3.707563  0  0  -0.053013  0  3.955528  0  0  -0.048218  0  3.972323  0  -0.064442  0  -0.063927  -0.055618  0  3.94427  0
C  C87  1  0.88795634  0.36681811  0.46434711  1  0  -0.024697  0  3.707598  0  0  -0.053069  0  3.955572  0  0  -0.048284  0  3.972376  0  -0.064392  0  -0.06388  -0.055671  0  3.94431  0
S  S88  1  0.21359797  0.03502166  0.19018089  1  0  1.549054  0  5.86151  0  0  1.425069  0  6.410765  0  0  1.479997  0  6.376495  0  3.766879  0  0.546056  1.387107  0  6.433089  0
S  S89  1  0.78640023  0.96497228  0.80982176  1  0  1.549329  0  5.861072  0  0  1.425372  0  6.410283  0  0  1.480284  0  6.376032  0  3.766501  0  0.546197  1.387409  0  6.432614  0
N  N90  1  0.34364064  0.25722481  0.76873936  1  0  -0.279787  0  3.18582  0  0  -0.226663  0  3.445909  0  0  -0.236182  0  3.461009  0  -1.189778  0  -0.292888  -0.220181  0  3.436079  0
N  N91  1  0.65636176  0.74277089  0.23126628  1  0  -0.279834  0  3.185647  0  0  -0.226693  0  3.445724  0  0  -0.236214  0  3.460828  0  -1.189461  0  -0.29287  -0.220211  0  3.43589  0
N  N92  1  0.18009324  0.07410864  0.83875775  1  0  -0.261824  0  3.251391  0  0  -0.185812  0  3.51409  0  0  -0.201731  0  3.53175  0  -1.200636  0  -0.308446  -0.175031  0  3.502534  0
N  N93  1  0.81990225  0.92589320  0.16124028  1  0  -0.261736  0  3.251285  0  0  -0.185759  0  3.51395  0  0  -0.201679  0  3.531615  0  -1.200655  0  -0.308425  -0.174975  0  3.502389  0
N  N94  1  0.48639914  0.27640526  0.06538873  1  0  -0.672735  0  3.091898  0  0  -0.619293  0  3.315523  0  0  -0.640666  0  3.311292  0  -1.295577  0  -0.567248  -0.604529  0  3.318283  0
N  N95  1  0.51360032  0.72359044  0.93461080  1  0  -0.672682  0  3.091858  0  0  -0.619309  0  3.315467  0  0  -0.640684  0  3.311246  0  -1.295583  0  -0.567296  -0.604545  0  3.318227  0
N  N96  1  0.55209136  0.36955404  0.90683968  1  0  -0.302157  0  3.33992  0  0  -0.235364  0  3.62905  0  0  -0.253303  0  3.649842  0  -0.809369  0  -0.25651  -0.223263  0  3.614716  0
N  N97  1  0.44791314  0.63044253  0.09315864  1  0  -0.302126  0  3.340131  0  0  -0.23533  0  3.62922  0  0  -0.253267  0  3.650013  0  -0.840526  0  -0.25653  -0.223232  0  3.614885  0
N  N98  1  0.65531912  0.43083449  0.97507559  1  0  -0.349447  0  3.003515  0  0  -0.33577  0  3.298772  0  0  -0.356035  0  3.320082  0  -0.718193  0  -0.258077  -0.321885  0  3.283974  0
N  N99  1  0.34468342  0.56916208  0.02492509  1  0  -0.349478  0  3.003547  0  0  -0.335839  0  3.298802  0  0  -0.356104  0  3.320111  0  -0.718029  0  -0.258079  -0.321956  0  3.284014  0
N  N100  1  0.01568232  0.73935010  0.99295519  1  0  -0.344624  0  3.29176  0  0  -0.26187  0  3.563908  0  0  -0.284018  0  3.58418  0  -1.251057  0  -0.336564  -0.246914  0  3.549325  0
N  N101  1  0.98431110  0.26064472  0.00703792  1  0  -0.344503  0  3.29184  0  0  -0.261756  0  3.563978  0  0  -0.283902  0  3.584256  0  -1.25116  0  -0.336496  -0.2468  0  3.549389  0
N  N102  1  0.57538924  0.25696875  0.58788671  1  0  -0.312379  0  3.220455  0  0  -0.251665  0  3.482731  0  0  -0.264615  0  3.499067  0  -1.206955  0  -0.303799  -0.242209  0  3.471163  0
N  N103  1  0.42462389  0.74303922  0.41212494  1  0  -0.312285  0  3.220476  0  0  -0.251521  0  3.482763  0  0  -0.264459  0  3.499104  0  -1.206175  0  -0.303801  -0.242065  0  3.471197  0
N  N104  1  0.60945109  0.08859942  0.41454228  1  0  -0.254935  0  3.0334  0  0  -0.229877  0  3.30608  0  0  -0.235681  0  3.320347  0  -1.186558  0  -0.308452  -0.225456  0  3.295971  0
N  N105  1  0.39056594  0.91141469  0.58547101  1  0  -0.254942  0  3.033332  0  0  -0.229872  0  3.306004  0  0  -0.235678  0  3.320272  0  -1.18678  0  -0.308455  -0.225452  0  3.295895  0
N  N106  1  0.32667788  0.32854402  0.37448874  1  0  -0.65494  0  3.150155  0  0  -0.615985  0  3.391594  0  0  -0.637741  0  3.388889  0  -1.287279  0  -0.570825  -0.600319  0  3.39369  0
N  N107  1  0.67332845  0.67145168  0.62550965  1  0  -0.65488  0  3.150381  0  0  -0.615946  0  3.391875  0  0  -0.637683  0  3.389176  0  -1.28759  0  -0.570898  -0.600313  0  3.393909  0
N  N108  1  0.40137300  0.41133660  0.55809615  1  0  -0.34024  0  3.36377  0  0  -0.270143  0  3.655585  0  0  -0.291956  0  3.678157  0  -0.827347  0  -0.279414  -0.255686  0  3.639867  0
N  N109  1  0.59862375  0.58866698  0.44190464  1  0  -0.340233  0  3.363535  0  0  -0.270119  0  3.655407  0  0  -0.291929  0  3.677971  0  -0.827453  0  -0.279413  -0.255657  0  3.639691  0
N  N110  1  0.30580322  0.48288294  0.54707779  1  0  -0.384806  0  3.052577  0  0  -0.365802  0  3.349435  0  0  -0.386421  0  3.371928  0  -0.755991  0  -0.267637  -0.351702  0  3.33424  0
N  N111  1  0.69418628  0.51711188  0.45292257  1  0  -0.384928  0  3.052246  0  0  -0.365909  0  3.349093  0  0  -0.386535  0  3.371591  0  -0.755871  0  -0.26775  -0.351816  0  3.333914  0
N  N112  1  0.08971410  0.77995499  0.72932299  1  0  -0.352338  0  3.256532  0  0  -0.273058  0  3.526599  0  0  -0.293894  0  3.545643  0  -1.286804  0  -0.328519  -0.258698  0  3.513189  0
N  N113  1  0.91028250  0.22004772  0.27066680  1  0  -0.35238  0  3.256672  0  0  -0.273047  0  3.526717  0  0  -0.293884  0  3.545764  0  -1.286675  0  -0.328476  -0.258691  0  3.513311  0
O  O114  1  0.72317855  0.50753613  0.80888167  1  0  -0.611299  0  1.990185  0  0  -0.53819  0  2.232556  0  0  -0.569167  0  2.226478  0  -1.157814  0  -0.334151  -0.515834  0  2.235348  0
O  O115  1  0.27681918  0.49246746  0.19111752  1  0  -0.611196  0  1.990295  0  0  -0.538087  0  2.232642  0  0  -0.569065  0  2.226562  0  -1.157833  0  -0.334093  -0.515732  0  2.235432  0
O  O116  1  0.38235023  0.56379019  0.73297593  1  0  -0.621299  0  2.006671  0  0  -0.552486  0  2.257232  0  0  -0.580981  0  2.250158  0  -1.176437  0  -0.330907  -0.531913  0  2.261569  0
O  O117  1  0.61764096  0.43620288  0.26701938  1  0  -0.621141  0  2.006458  0  0  -0.552406  0  2.25708  0  0  -0.580899  0  2.250009  0  -1.176719  0  -0.330826  -0.531831  0  2.261416  0
O  O118  1  0.10749848  0.01566846  0.08852420  1  0  -0.802749  0  2.044304  0  0  -0.719993  0  2.338373  0  0  -0.747048  0  2.318554  0  -1.316166  0  -0.387205  -0.700653  0  2.351045  0
O  O119  1  0.89249240  0.98432899  0.91148571  1  0  -0.802766  0  2.044038  0  0  -0.720186  0  2.338377  0  0  -0.747247  0  2.31857  0  -1.316162  0  -0.387366  -0.700844  0  2.351051  0
O  O120  1  0.30703897  0.94826644  0.17293939  1  0  -0.719294  0  1.927624  0  0  -0.664208  0  2.163204  0  0  -0.685724  0  2.14569  0  -1.332101  0  -0.361354  -0.648853  0  2.174657  0
O  O121  1  0.69296258  0.05173013  0.82705366  1  0  -0.719305  0  1.927536  0  0  -0.664158  0  2.163082  0  0  -0.685663  0  2.145578  0  -1.331959  0  -0.361288  -0.6488  0  2.174538  0
O  O122  1  0.14926906  0.02007840  0.29462666  1  0  -0.724344  0  1.915059  0  0  -0.678949  0  2.166191  0  0  -0.700083  0  2.149372  0  -1.357497  0  -0.367472  -0.66379  0  2.177186  0
O  O123  1  0.85073598  0.97992168  0.70537870  1  0  -0.724399  0  1.914859  0  0  -0.67903  0  2.166005  0  0  -0.700159  0  2.14919  0  -1.357388  0  -0.367504  -0.663873  0  2.177005  0
O  O124  1  0.28360501  0.15716604  0.19039627  1  0  -0.750517  0  1.974312  0  0  -0.690139  0  2.219273  0  0  -0.710957  0  2.202532  0  -1.362852  0  -0.362242  -0.675497  0  2.230368  0
O  O125  1  0.71639136  0.84282877  0.80960967  1  0  -0.750669  0  1.974431  0  0  -0.690283  0  2.219357  0  0  -0.711087  0  2.202609  0  -1.362701  0  -0.362279  -0.675652  0  2.230455  0
O  O126  1  0.31819633  0.89006391  0.95716247  1  0  -0.852383  0  1.868043  0  0  -0.788724  0  2.055938  0  0  -0.810582  0  2.023398  0  -1.244554  0  -0.601262  -0.772945  0  2.078111  0
O  O127  1  0.68179862  0.10993442  0.04282936  1  0  -0.852588  0  1.868042  0  0  -0.788888  0  2.055907  0  0  -0.810744  0  2.02337  0  -1.244463  0  -0.601369  -0.77311  0  2.078084  0
