# generated using pymatgen
data_Cu3H28C38(N3Cl)4
_symmetry_space_group_name_H-M   'P 1'
_cell_length_a   9.23407634
_cell_length_b   9.77924296
_cell_length_c   11.84289866
_cell_angle_alpha   94.96608386
_cell_angle_beta   114.30491601
_cell_angle_gamma   95.21537153
_symmetry_Int_Tables_number   1
_chemical_formula_structural   Cu3H28C38(N3Cl)4
_chemical_formula_sum   'Cu3 H28 C38 N12 Cl4'
_cell_volume   961.52034470
_cell_formula_units_Z   1
loop_
 _symmetry_equiv_pos_site_id
 _symmetry_equiv_pos_as_xyz
  1  'x, y, z'
loop_
 _atom_site_type_symbol
 _atom_site_label
 _atom_site_symmetry_multiplicity
 _atom_site_fract_x
 _atom_site_fract_y
 _atom_site_fract_z
 _atom_site_occupancy
 _atom_site_hle17_ddec_charge
 _atom_site_hle17_ddec_spin_density
 _atom_site_hle17_ddec_sum_bond_order
 _atom_site_hle17_magmom
 _atom_site_hse06_10hf_ddec_charge
 _atom_site_hse06_10hf_ddec_spin_density
 _atom_site_hse06_10hf_ddec_sum_bond_order
 _atom_site_hse06_10hf_magmom
 _atom_site_hse06_ddec_charge
 _atom_site_hse06_ddec_spin_density
 _atom_site_hse06_ddec_sum_bond_order
 _atom_site_hse06_magmom
 _atom_site_pbe_cm5_charge
 _atom_site_pbe_ddec_charge
 _atom_site_pbe_ddec_spin_density
 _atom_site_pbe_ddec_sum_bond_order
 _atom_site_pbe_magmom
Cu  Cu0  1  0.49999706  0.49999515  0.49999512  1  0.729793  -0.622694  1.90741  -0.453  0.713659  -0.735584  2.284877  -0.575  0.803783  -0.806386  2.212847  -0.662  0.594518  0.662844  -0.68097  2.327826  -0.518
Cu  Cu1  1  0.69133636  0.61420112  0.29928740  1  0.452079  -0.018021  1.726588  -0.014  0.31877  0.000379  2.196939  0.0  0.337548  0.000677  2.147257  0.0  0.381205  0.31338  -0.005614  2.224504  -0.005
Cu  Cu2  1  0.30865387  0.38579934  0.70071106  1  0.45209  -0.017987  1.726782  -0.014  0.318803  0.000376  2.197134  0.0  0.337573  0.000676  2.147442  0.0  0.381236  0.313402  -0.005612  2.224675  -0.005
H  H3  1  0.85667400  0.30599705  0.36963689  1  0.083625  -1.8e-05  0.96333  0.0  0.093543  -1.4e-05  1.028573  0.0  0.095878  -1.2e-05  1.028009  0.0  0.092688  0.092341  -2e-06  1.027421  0.0
H  H4  1  0.14333819  0.69399830  0.63037092  1  0.083622  -1.5e-05  0.963463  0.0  0.093527  -1.4e-05  1.028714  0.0  0.095866  -1.2e-05  1.028155  0.0  0.092667  0.092322  -2e-06  1.027563  0.0
H  H5  1  0.85229240  0.54574964  0.13414012  1  0.106177  -0.000168  0.935942  0.0  0.117167  -3e-06  0.996319  0.0  0.120638  3.3e-05  0.992286  0.0  0.11374  0.114309  -4e-05  0.999772  0.0
H  H6  1  0.14771157  0.45425438  0.86584408  1  0.106232  -0.000173  0.93595  0.0  0.117222  -3e-06  0.996314  0.0  0.120693  3.3e-05  0.99228  0.0  0.113732  0.11437  -4e-05  0.999761  0.0
H  H7  1  0.25445268  0.31734567  0.27752529  1  0.091725  -0.000782  0.981197  -0.001  0.088435  -0.000757  1.061773  -0.001  0.091225  -0.000544  1.058337  -0.001  0.109397  0.086111  -0.000922  1.064387  -0.001
H  H8  1  0.74554702  0.68265311  0.72245889  1  0.091741  -0.00079  0.981221  -0.001  0.088425  -0.000758  1.061858  -0.001  0.091216  -0.000545  1.05842  -0.001  0.109398  0.086106  -0.000922  1.064469  -0.001
H  H9  1  0.09602817  0.19439648  0.38352570  1  0.107618  0.000199  0.980698  0.0  0.113488  8e-05  1.052102  0.0  0.11678  8.7e-05  1.049908  0.0  0.098063  0.111567  9.5e-05  1.053347  0.0
H  H10  1  0.90398562  0.80560091  0.61648444  1  0.107577  0.000196  0.980679  0.0  0.113452  8e-05  1.052081  0.0  0.116723  8.7e-05  1.049908  0.0  0.098024  0.111529  9.5e-05  1.053336  0.0
H  H11  1  0.27027264  0.68925570  0.48103322  1  0.087952  -0.000746  0.981879  -0.001  0.090177  -0.00075  1.058215  -0.001  0.092415  -0.000528  1.056109  -0.001  0.110787  0.088602  -0.000884  1.059475  -0.001
H  H12  1  0.72971541  0.31072914  0.51896744  1  0.087943  -0.000754  0.981846  -0.001  0.090136  -0.000749  1.058249  -0.001  0.092374  -0.000528  1.056143  -0.001  0.110787  0.088561  -0.000885  1.059507  -0.001
H  H13  1  0.98100070  0.33345510  0.11619137  1  0.118562  -0.000529  0.946034  -0.001  0.128041  -0.00045  1.002506  0.0  0.13044  -0.000322  1.003964  0.0  0.113909  0.126111  -0.000603  1.001768  -0.001
H  H14  1  0.01900837  0.66656042  0.88379112  1  0.118591  -0.000526  0.946048  -0.001  0.127988  -0.00045  1.00261  0.0  0.130337  -0.000322  1.004125  0.0  0.113841  0.126038  -0.000603  1.0019  -0.001
H  H15  1  0.39224370  0.58535389  0.06167218  1  0.085945  -2e-05  0.962572  0.0  0.096356  3e-06  1.024498  0.0  0.099847  -1e-06  1.021229  0.0  0.092154  0.093537  9e-06  1.027277  0.0
H  H16  1  0.60775917  0.41465403  0.93832388  1  0.085976  -2.5e-05  0.962692  0.0  0.096383  4e-06  1.024606  0.0  0.099872  -2e-06  1.02134  0.0  0.092163  0.093563  9e-06  1.027381  0.0
H  H17  1  0.27654645  0.03580765  0.41081459  1  0.100263  -0.001325  0.946605  0.0  0.111457  -0.001559  1.013858  0.0  0.113731  -0.001154  1.011785  0.0  0.12252  0.109553  -0.001629  1.015994  0.0
H  H18  1  0.72345095  0.96418453  0.58918777  1  0.100189  -0.001316  0.946664  0.0  0.111408  -0.001559  1.01388  0.0  0.113684  -0.001154  1.011805  0.0  0.122482  0.109504  -0.001629  1.016016  0.0
H  H19  1  0.30636948  0.85990179  0.38993699  1  0.087383  1e-06  0.960978  0.0  0.098321  -0.000231  1.029707  0.0  0.100004  -0.000148  1.027915  0.0  0.121304  0.097042  -0.000201  1.031651  0.0
H  H20  1  0.69362575  0.14008527  0.61006089  1  0.087373  1e-06  0.960924  0.0  0.098321  -0.000231  1.029659  0.0  0.100009  -0.000147  1.027863  0.0  0.12128  0.097037  -0.000201  1.031618  0.0
H  H21  1  0.57291288  0.90571937  0.30251648  1  0.104396  -0.00054  0.987536  0.0  0.113606  -0.000596  1.050437  0.0  0.116481  -0.000446  1.049302  0.0  0.095117  0.111734  -0.000564  1.051166  0.0
H  H22  1  0.42708672  0.09428295  0.69749841  1  0.104475  -0.000537  0.987418  0.0  0.11363  -0.000595  1.050414  0.0  0.116506  -0.000446  1.049272  0.0  0.09516  0.111762  -0.000564  1.051145  0.0
H  H23  1  0.31986700  0.67428076  0.23002579  1  0.105609  0.000211  0.997109  0.0  0.110119  0.00014  1.066692  0.0  0.11253  0.000125  1.06718  0.0  0.091692  0.108409  0.000142  1.066624  0.0
H  H24  1  0.68013049  0.32571357  0.76997256  1  0.105576  0.000222  0.997189  0.0  0.110094  0.000141  1.06677  0.0  0.112506  0.000124  1.067256  0.0  0.091668  0.108385  0.000142  1.066695  0.0
H  H25  1  0.60111262  0.16595700  0.32966702  1  0.100913  1.9e-05  0.964655  0.0  0.10944  -2.9e-05  1.027255  0.0  0.112005  -2.1e-05  1.026898  0.0  0.091191  0.107846  0.0  1.02719  0.0
H  H26  1  0.39889835  0.83404338  0.67034765  1  0.100868  1.6e-05  0.9647  0.0  0.109398  -3e-05  1.027266  0.0  0.111965  -2.1e-05  1.026913  0.0  0.091191  0.107803  0.0  1.027201  0.0
H  H27  1  0.38384280  0.72412403  0.89378708  1  0.09702  -5e-06  0.9832  0.0  0.105065  1.9e-05  1.047613  0.0  0.10803  1.6e-05  1.047018  0.0  0.087996  0.102892  1e-06  1.04814  0.0
H  H28  1  0.61616611  0.27588389  0.10621243  1  0.097015  5e-06  0.98328  0.0  0.105053  1.8e-05  1.047692  0.0  0.10802  1.4e-05  1.047096  0.0  0.087992  0.10288  1e-06  1.048218  0.0
H  H29  1  0.29608093  0.95924745  0.88855098  1  0.103476  1.5e-05  0.977444  0.0  0.112413  1.2e-05  1.039064  0.0  0.114162  1e-05  1.040219  0.0  0.101453  0.111031  -4e-06  1.038476  0.0
H  H30  1  0.70393892  0.04076547  0.11146401  1  0.103392  1e-05  0.977478  0.0  0.112343  1.2e-05  1.039092  0.0  0.114087  1.1e-05  1.040253  0.0  0.101455  0.11101  -4e-06  1.038452  0.0
C  C31  1  0.84940282  0.19335750  0.35904866  1  -0.067442  0.000471  3.773213  0.0  -0.083357  0.000163  4.028516  0.0  -0.086475  0.00019  4.053317  0.0  -0.096116  -0.080037  -0.000235  4.010371  0.0
C  C32  1  0.15061140  0.80663689  0.64095627  1  -0.067456  0.000368  3.773347  0.0  -0.083349  0.000163  4.028584  0.0  -0.086478  0.000193  4.053393  0.0  -0.096109  -0.080025  -0.000235  4.010434  0.0
C  C33  1  0.05263672  0.63607333  0.30814970  1  -0.059971  -0.0065  3.804983  -0.007  -0.037292  -0.003245  4.041679  -0.004  -0.045824  -0.003006  4.062537  -0.004  -0.006116  -0.034206  -0.003457  4.028798  -0.004
C  C34  1  0.94736279  0.36392946  0.69184154  1  -0.059879  -0.006585  3.804718  -0.007  -0.0372  -0.003243  4.041495  -0.004  -0.045734  -0.003006  4.062357  -0.004  -0.006162  -0.03411  -0.003457  4.028611  -0.004
C  C35  1  0.96954831  0.53277646  0.20499007  1  -0.023965  0.009836  3.678429  0.007  -0.049341  0.003948  3.921885  0.003  -0.042471  0.004636  3.934989  0.003  -0.054959  -0.054179  0.003299  3.912632  0.002
C  C36  1  0.03045188  0.46723046  0.79500259  1  -0.024262  0.009978  3.678244  0.007  -0.049637  0.003946  3.921713  0.003  -0.042764  0.004637  3.934799  0.003  -0.055053  -0.054476  0.0033  3.912457  0.002
C  C37  1  0.19364133  0.40577177  0.28433130  1  0.145493  0.008781  3.643972  0.006  0.116155  0.00233  3.893194  0.002  0.127582  0.003932  3.909626  0.003  0.054435  0.109437  0.000947  3.88152  0.001
C  C38  1  0.80634813  0.59422679  0.71565832  1  0.145467  0.008925  3.64431  0.006  0.116109  0.002326  3.893486  0.002  0.127534  0.003932  3.909905  0.003  0.054504  0.109392  0.000947  3.881808  0.001
C  C39  1  0.98251856  0.13261504  0.36502708  1  -0.139485  -0.000797  3.74097  -0.001  -0.160977  -0.000379  4.000871  0.0  -0.16414  -0.000275  4.022042  0.0  -0.094026  -0.159035  -0.000534  3.986591  0.0
C  C40  1  0.01749573  0.86738042  0.63497628  1  -0.139333  -0.000716  3.740682  -0.001  -0.160799  -0.000382  4.000685  0.0  -0.163941  -0.000276  4.021873  0.0  -0.093921  -0.158859  -0.000534  3.986391  0.0
C  C41  1  0.96287585  0.98802522  0.34639385  1  0.115876  0.000147  3.768896  0.0  0.104158  0.000146  4.016979  0.0  0.107883  0.000164  4.039794  0.0  0.097328  0.100815  -0.00013  4.002771  0.0
C  C42  1  0.03713396  0.01197012  0.65361325  1  0.115724  5.9e-05  3.768931  0.0  0.103859  0.000149  4.017275  0.0  0.107583  0.000162  4.040087  0.0  0.097265  0.100532  -0.00013  4.00304  0.0
C  C43  1  0.20260309  0.61550955  0.39704601  1  0.086044  0.008224  3.685391  0.006  0.049549  0.001756  3.936144  0.002  0.06096  0.003509  3.952442  0.003  0.04365  0.042686  0.000759  3.926952  0.001
C  C44  1  0.79739020  0.38448893  0.60294980  1  0.086053  0.008372  3.685562  0.006  0.049507  0.001754  3.936414  0.002  0.06091  0.003509  3.952731  0.003  0.043671  0.042647  0.00076  3.927219  0.001
C  C45  1  0.81723859  0.90658391  0.32432024  1  0.150113  -0.000411  3.81258  0.0  0.147697  -0.000334  4.051882  0.0  0.1504  -0.00027  4.074747  0.0  0.084684  0.145282  -0.000306  4.037413  0.0
C  C46  1  0.18276275  0.09341647  0.67568907  1  0.150181  -0.000357  3.812444  0.0  0.147816  -0.000334  4.051745  0.0  0.150516  -0.000268  4.074608  0.0  0.084667  0.145397  -0.000306  4.037262  0.0
C  C47  1  0.04100702  0.41618940  0.19421918  1  -0.096551  -0.007879  3.688305  -0.008  -0.104668  -0.003701  3.928363  -0.004  -0.112806  -0.00342  3.949186  -0.004  -0.071808  -0.097876  -0.003837  3.912922  -0.004
C  C48  1  0.95898301  0.58382055  0.80577162  1  -0.096394  -0.00798  3.688149  -0.008  -0.104423  -0.0037  3.928137  -0.004  -0.112514  -0.003422  3.94898  -0.004  -0.071688  -0.097616  -0.003838  3.912705  -0.004
C  C49  1  0.35231434  0.68708586  0.06045486  1  -0.065786  -0.000103  3.780182  0.0  -0.079529  -3.4e-05  4.031161  0.0  -0.079628  -2.9e-05  4.051665  0.0  -0.094545  -0.079908  -1.2e-05  4.018013  0.0
C  C50  1  0.64769055  0.31292221  0.93953504  1  -0.066003  2.8e-05  3.780352  0.0  -0.079754  -4e-05  4.03134  0.0  -0.079852  -1.9e-05  4.051846  0.0  -0.094671  -0.080129  -1.1e-05  4.018183  0.0
C  C51  1  0.22609271  0.93608670  0.34992425  1  0.093546  -0.001279  3.615009  -0.002  0.013811  -0.001534  3.862114  -0.002  0.023003  -0.001087  3.869346  -0.001  0.059902  0.007542  -0.001725  3.858091  -0.002
C  C52  1  0.77391352  0.06390971  0.65007852  1  0.093569  -0.001292  3.615061  -0.002  0.013913  -0.00153  3.862046  -0.002  0.023095  -0.001087  3.869282  -0.001  0.059974  0.007642  -0.001724  3.858027  -0.002
C  C53  1  0.68494026  0.96889770  0.31986085  1  -0.133331  -0.000218  3.725589  0.0  -0.148238  -0.00063  3.968883  0.0  -0.149631  -0.00038  3.987501  0.0  -0.093711  -0.145602  -0.001037  3.955079  -0.001
C  C54  1  0.31505698  0.03110570  0.68015092  1  -0.133374  -0.000323  3.725639  0.0  -0.148252  -0.000628  3.968899  0.0  -0.149643  -0.00039  3.987518  0.0  -0.093745  -0.145617  -0.001036  3.955087  -0.001
C  C55  1  0.25493686  0.94686675  0.05528538  1  0.1001  -4.1e-05  3.832805  0.0  0.104338  -2.6e-05  4.086672  0.0  0.102858  -1e-05  4.108912  0.0  0.08686  0.105566  -2.9e-05  4.071085  0.0
C  C56  1  0.74505721  0.05313364  0.94471927  1  0.100091  -0.000125  3.833014  0.0  0.10443  -1.8e-05  4.086738  0.0  0.102936  -1.5e-05  4.108996  0.0  0.086874  0.105658  -2.8e-05  4.071172  0.0
C  C57  1  0.26276575  0.86740156  0.15142579  1  0.095843  8e-06  3.807357  0.0  0.079796  1.9e-05  4.053408  0.0  0.084728  9e-06  4.076109  0.0  0.098144  0.076307  -8e-06  4.038023  0.0
C  C58  1  0.73721837  0.13258952  0.84857175  1  0.095952  0.000113  3.807484  0.0  0.079892  1.8e-05  4.053503  0.0  0.084827  1.5e-05  4.076209  0.0  0.098201  0.076399  -8e-06  4.038123  0.0
C  C59  1  0.98562526  0.76323680  0.32137315  1  0.313639  -0.00044  3.709118  0.0  0.276881  -0.000987  3.971593  -0.001  0.295753  -0.000643  3.985264  -0.001  0.231692  0.26585  -0.000697  3.961296  -0.001
C  C60  1  0.01438142  0.23676164  0.67863248  1  0.313692  -0.000433  3.70891  0.0  0.276949  -0.000985  3.971437  -0.001  0.295822  -0.000645  3.985105  -0.001  0.231774  0.265914  -0.000697  3.96114  -0.001
C  C61  1  0.30980476  0.73497298  0.15513556  1  -0.166229  0.000142  3.782447  0.0  -0.182156  4e-05  4.038979  0.0  -0.186532  7.1e-05  4.059722  0.0  -0.104838  -0.179314  6.8e-05  4.025071  0.0
C  C62  1  0.69018906  0.26501634  0.84485197  1  -0.166086  -1.7e-05  3.782672  0.0  -0.182033  4.7e-05  4.039201  0.0  -0.186408  6.3e-05  4.059943  0.0  -0.104724  -0.17919  6.8e-05  4.02529  0.0
C  C63  1  0.70285252  0.11306432  0.33646338  1  -0.077654  -0.000549  3.751977  -0.001  -0.092979  -0.000245  4.005855  0.0  -0.095656  -0.00021  4.027901  0.0  -0.099292  -0.09186  -0.000586  3.99043  -0.001
C  C64  1  0.29715679  0.88694126  0.66354957  1  -0.077704  -0.000478  3.752178  0.0  -0.093002  -0.000244  4.005994  0.0  -0.095687  -0.000205  4.028051  0.0  -0.099306  -0.091884  -0.000586  3.990565  -0.001
C  C65  1  0.34790535  0.76660192  0.96506136  1  -0.084206  8e-05  3.756612  0.0  -0.096864  6e-06  4.004143  0.0  -0.102369  1.4e-05  4.028376  0.0  -0.098185  -0.092955  -2.7e-05  3.987955  0.0
C  C66  1  0.65210934  0.23341332  0.03493880  1  -0.084074  -5.8e-05  3.756738  0.0  -0.096704  9e-06  4.004247  0.0  -0.102205  1.2e-05  4.02847  0.0  -0.098101  -0.092797  -2.7e-05  3.988072  0.0
C  C67  1  0.29862428  0.89679388  0.96085565  1  -0.100937  -7e-05  3.71414  0.0  -0.12031  2.2e-05  3.957402  0.0  -0.11999  1.6e-05  3.978173  0.0  -0.081038  -0.1204  4e-06  3.94296  0.0
C  C68  1  0.70137832  0.10321589  0.03915148  1  -0.100962  7.6e-05  3.714139  0.0  -0.120402  1.9e-05  3.957431  0.0  -0.120073  2.2e-05  3.97821  0.0  -0.08114  -0.120533  4e-06  3.942973  0.0
N  N69  1  0.27215300  0.50422566  0.38374975  1  -0.285685  -0.070872  3.390409  -0.09  -0.22538  -0.051929  3.668968  -0.069  -0.258592  -0.043041  3.693798  -0.061  -0.353205  -0.207293  -0.056699  3.653781  -0.072
N  N70  1  0.72784461  0.49576754  0.61625360  1  -0.285693  -0.070958  3.390711  -0.09  -0.225279  -0.051926  3.669171  -0.069  -0.258487  -0.043038  3.694004  -0.061  -0.353179  -0.207193  -0.056697  3.653987  -0.072
N  N71  1  0.19103297  0.07666633  0.18202150  1  -0.06329  -3e-06  2.883557  0.0  -0.063968  -1e-05  3.180323  0.0  -0.058536  9e-06  3.1879  0.0  -0.070669  -0.066031  -1.6e-05  3.173598  0.0
N  N72  1  0.80897920  0.92333625  0.81798778  1  -0.063099  -6.2e-05  2.883272  0.0  -0.063773  -9e-06  3.180061  0.0  -0.05834  -1e-06  3.187636  0.0  -0.070628  -0.065839  -1.6e-05  3.173338  0.0
N  N73  1  0.06764432  0.89490660  0.34495897  1  -0.165874  -7.5e-05  3.452707  0.0  -0.085981  -8e-06  3.680044  0.0  -0.10347  -2e-06  3.703716  0.0  -0.229891  -0.074761  -0.00013  3.664061  0.0
N  N74  1  0.93236160  0.10508664  0.65504682  1  -0.1658  -6.5e-05  3.452727  0.0  -0.086005  -7e-06  3.680273  0.0  -0.10349  -1e-06  3.703946  0.0  -0.229903  -0.074788  -0.00013  3.664287  0.0
N  N75  1  0.22294897  0.95336730  0.22897811  1  -0.045511  -7e-06  3.478793  0.0  0.033657  3.6e-05  3.715858  0.0  0.019568  4.2e-05  3.73935  0.0  -0.14552  0.042377  -2.8e-05  3.699983  0.0
N  N76  1  0.77704346  0.04662493  0.77101857  1  -0.045605  0.0  3.478683  0.0  0.033523  1.9e-05  3.715792  0.0  0.019435  5.3e-05  3.739285  0.0  -0.14556  0.042251  -2.8e-05  3.699914  0.0
N  N77  1  0.20857335  0.07306174  0.07869686  1  -0.213455  -8.1e-05  2.91444  0.0  -0.211877  -1.9e-05  3.202927  0.0  -0.213009  -5e-06  3.210444  0.0  -0.19933  -0.211141  -1.4e-05  3.196921  0.0
N  N78  1  0.79143976  0.92694597  0.92131569  1  -0.213611  -1.8e-05  2.914432  0.0  -0.212059  -1.9e-05  3.202891  0.0  -0.21319  -2e-06  3.210413  0.0  -0.199362  -0.211322  -1.4e-05  3.196891  0.0
N  N79  1  0.83551248  0.76711855  0.30973771  1  -0.416933  -0.001162  3.376802  -0.001  -0.344671  -0.000406  3.692343  -0.001  -0.361798  -0.000314  3.694826  0.0  -0.394413  -0.334673  -0.000712  3.689615  -0.001
N  N80  1  0.16448979  0.23288302  0.69026437  1  -0.417039  -0.001171  3.376919  -0.001  -0.344743  -0.000408  3.692435  -0.001  -0.361864  -0.000312  3.694904  0.0  -0.394485  -0.334741  -0.000712  3.689689  -0.001
Cl  Cl81  1  0.54796597  0.42464643  0.27518533  1  -0.557445  0.001138  1.243993  0.0  -0.481472  0.001773  1.592573  0.0  -0.504088  0.002027  1.55937  0.0  -0.306212  -0.466295  0.000445  1.612293  -0.001
Cl  Cl82  1  0.45202430  0.57534176  0.72480445  1  -0.557386  0.00114  1.244082  0.0  -0.481406  0.001773  1.592658  0.0  -0.504017  0.002026  1.559451  0.0  -0.306177  -0.466233  0.000445  1.612366  -0.001
Cl  Cl83  1  0.56659592  0.73264442  0.48189359  1  -0.534544  -0.105335  0.989161  -0.128  -0.520221  -0.075199  1.286609  -0.095  -0.551328  -0.056504  1.263127  -0.078  -0.283327  -0.506199  -0.084601  1.304412  -0.103
Cl  Cl84  1  0.43339772  0.26735109  0.51809529  1  -0.534525  -0.105352  0.989191  -0.128  -0.520181  -0.075206  1.286594  -0.095  -0.55129  -0.056512  1.263119  -0.078  -0.283318  -0.506157  -0.08461  1.304393  -0.103
