# generated using pymatgen
data_CuH12C11N3O4
_symmetry_space_group_name_H-M   'P 1'
_cell_length_a   5.00300173
_cell_length_b   11.29173559
_cell_length_c   23.07266895
_cell_angle_alpha   89.99890602
_cell_angle_beta   90.00002504
_cell_angle_gamma   89.99946765
_symmetry_Int_Tables_number   1
_chemical_formula_structural   CuH12C11N3O4
_chemical_formula_sum   'Cu4 H48 C44 N12 O16'
_cell_volume   1303.43442660
_cell_formula_units_Z   4
loop_
 _symmetry_equiv_pos_site_id
 _symmetry_equiv_pos_as_xyz
  1  'x, y, z'
loop_
 _atom_site_type_symbol
 _atom_site_label
 _atom_site_symmetry_multiplicity
 _atom_site_fract_x
 _atom_site_fract_y
 _atom_site_fract_z
 _atom_site_occupancy
 _atom_site_pbe_bader_charge
 _atom_site_pbe_bader_spin_density
 _atom_site_pbe_cm5_charge
 _atom_site_pbe_ddec_charge
 _atom_site_pbe_ddec_spin_density
 _atom_site_pbe_ddec_sum_bond_order
 _atom_site_pbe_magmom
Cu  Cu0  1  0.00289571  0.71252150  0.73924803  1  1.032124  0.559075  0.728885  0.772806  0.719168  2.245842  0.558
Cu  Cu1  1  0.99709537  0.71249178  0.26075202  1  1.031664  0.559051  0.728775  0.772639  0.719106  2.245881  0.558
Cu  Cu2  1  0.50290127  0.28751175  0.76075191  1  1.031706  0.559062  0.72883  0.772728  0.71912  2.245901  0.558
Cu  Cu3  1  0.49710694  0.28747746  0.23924744  1  1.032085  0.559084  0.728853  0.772827  0.71918  2.24568  0.558
H  H4  1  0.37811658  0.70110733  0.66645681  1  0.447966  0.000704  0.294956  0.283847  0.000559  0.977226  0.001
H  H5  1  0.62190635  0.70108244  0.33354607  1  0.448316  0.000702  0.2949  0.283828  0.000558  0.977316  0.001
H  H6  1  0.87811388  0.29890996  0.83354365  1  0.448198  0.000704  0.294902  0.28378  0.000559  0.977376  0.001
H  H7  1  0.12190012  0.29889329  0.16645385  1  0.448384  0.0007  0.294938  0.28382  0.000559  0.977336  0.001
H  H8  1  0.34016448  0.57233659  0.69785003  1  0.488697  -0.000278  0.298119  0.302022  -6.7e-05  0.963778  0.0
H  H9  1  0.65984072  0.57231262  0.30214898  1  0.488391  -0.000277  0.298152  0.302312  -6.8e-05  0.963625  0.0
H  H10  1  0.84018153  0.42768000  0.80214869  1  0.488345  -0.000277  0.298186  0.302378  -6.8e-05  0.963663  0.0
H  H11  1  0.15984220  0.42766028  0.19784748  1  0.488769  -0.000278  0.298157  0.302103  -6.7e-05  0.963744  0.0
H  H12  1  0.15277637  0.41715465  0.63934956  1  0.063798  -0.000243  0.106364  0.132744  -0.000338  0.967481  0.0
H  H13  1  0.84720358  0.41712597  0.36064326  1  0.063639  -0.000243  0.106402  0.132813  -0.000338  0.96751  0.0
H  H14  1  0.65281063  0.58286283  0.86063525  1  0.063625  -0.000244  0.10637  0.132776  -0.000338  0.967635  0.0
H  H15  1  0.34719838  0.58284868  0.13934848  1  0.063596  -0.000244  0.10633  0.132689  -0.000338  0.967483  0.0
H  H16  1  0.86685740  0.45056130  0.59732485  1  0.06611  5e-06  0.107543  0.131234  -0.000119  0.966038  0.0
H  H17  1  0.13310797  0.45049648  0.40266762  1  0.066086  5e-06  0.107669  0.131255  -0.000119  0.966248  0.0
H  H18  1  0.36692654  0.54948793  0.90266910  1  0.066344  5e-06  0.107687  0.131218  -0.000119  0.966064  0.0
H  H19  1  0.63311704  0.54946148  0.09732494  1  0.066132  5e-06  0.107601  0.131204  -0.000119  0.966103  0.0
H  H20  1  0.17896893  0.61365757  0.59000358  1  0.090376  0.004101  0.117323  0.090293  0.002247  0.963464  0.002
H  H21  1  0.82105953  0.61361755  0.40999500  1  0.089914  0.004101  0.117429  0.090388  0.002246  0.963481  0.002
H  H22  1  0.67897064  0.38637130  0.90999337  1  0.090028  0.004102  0.117387  0.090367  0.002247  0.963611  0.002
H  H23  1  0.32104183  0.38635103  0.09000150  1  0.090164  0.004104  0.117333  0.090312  0.002248  0.963494  0.002
H  H24  1  0.49329171  0.89333390  0.74420670  1  0.119964  0.000281  0.114984  0.102094  -0.000167  1.041479  0.001
H  H25  1  0.50668186  0.89329899  0.25579983  1  0.119687  0.000281  0.114961  0.101969  -0.000167  1.041497  0.001
H  H26  1  0.99331444  0.10670233  0.75579942  1  0.119691  0.000282  0.114941  0.101935  -0.000167  1.041508  0.001
H  H27  1  0.00669295  0.10666135  0.24420613  1  0.120071  0.000281  0.114968  0.102109  -0.000167  1.041391  0.001
H  H28  1  0.48717065  0.06380181  0.83176782  1  0.179503  0.000333  0.118238  0.129265  -4.4e-05  1.065292  0.0
H  H29  1  0.51282550  0.06376638  0.16823471  1  0.179724  0.000332  0.118231  0.129233  -4.5e-05  1.065396  0.0
H  H30  1  0.98717086  0.93624242  0.66823352  1  0.179742  0.000333  0.118274  0.129289  -4.4e-05  1.06533  0.0
H  H31  1  0.01281594  0.93618951  0.33176779  1  0.178209  0.000333  0.118293  0.129342  -4.5e-05  1.065197  0.0
H  H32  1  0.13902492  0.82871738  0.85722946  1  0.169706  0.000192  0.13477  0.108774  2.6e-05  1.019696  0.0
H  H33  1  0.86097377  0.82869445  0.14277253  1  0.169977  0.000192  0.134733  0.108639  2.6e-05  1.019765  0.0
H  H34  1  0.63901462  0.17131346  0.64277051  1  0.169958  0.000192  0.134717  0.108663  2.6e-05  1.01975  0.0
H  H35  1  0.36095966  0.17127128  0.35722658  1  0.16953  0.000192  0.134743  0.108787  2.7e-05  1.019684  0.0
H  H36  1  0.96498326  0.12256991  0.89910352  1  0.127962  0.00019  0.11314  0.110368  0.000143  1.00738  0.0
H  H37  1  0.03498988  0.12254088  0.10089884  1  0.091399  0.000193  0.113037  0.110144  0.000143  1.007499  0.0
H  H38  1  0.46501488  0.87746823  0.60090216  1  0.091106  0.000193  0.113018  0.110191  0.000143  1.007408  0.0
H  H39  1  0.53500694  0.87741844  0.39910713  1  0.127789  0.00019  0.113093  0.110278  0.000143  1.007432  0.0
H  H40  1  0.09957116  0.99017062  0.92728683  1  0.078368  6.4e-05  0.111113  0.095611  3.4e-05  1.011292  0.0
H  H41  1  0.90044068  0.99014198  0.07271132  1  0.078648  6.4e-05  0.111091  0.095495  3.4e-05  1.011476  0.0
H  H42  1  0.59955975  0.00987015  0.57271096  1  0.078565  6.4e-05  0.111033  0.095436  3.4e-05  1.011379  0.0
H  H43  1  0.40042136  0.00982534  0.42728953  1  0.078176  6.4e-05  0.111104  0.095612  3.4e-05  1.011287  0.0
H  H44  1  0.68356333  0.21968650  0.96381678  1  0.114998  0.000177  0.109666  0.116189  8.2e-05  1.006358  0.0
H  H45  1  0.31640210  0.21967432  0.03619107  1  0.115774  0.000177  0.109682  0.116307  8.2e-05  1.006305  0.0
H  H46  1  0.18364268  0.78033173  0.53619056  1  0.115665  0.000177  0.109626  0.116281  8.2e-05  1.006363  0.0
H  H47  1  0.81648279  0.78031022  0.46381539  1  0.115091  0.000178  0.109695  0.116238  8.2e-05  1.006405  0.0
H  H48  1  0.67337800  0.83837002  0.96151389  1  0.040502  1.3e-05  0.100555  0.104284  -1e-06  0.995954  0.0
H  H49  1  0.32665450  0.83836125  0.03848410  1  0.04038  1.3e-05  0.100556  0.104339  -1e-06  0.996062  0.0
H  H50  1  0.17328834  0.16164294  0.53848739  1  0.051243  1.2e-05  0.100572  0.104354  -1e-06  0.996017  0.0
H  H51  1  0.82656618  0.16162324  0.46151674  1  0.04093  1.2e-05  0.100569  0.104267  -1e-06  0.996073  0.0
C  C52  1  0.79778682  0.45158717  0.68876159  1  1.572978  -0.000157  0.208927  0.642805  -0.000606  4.125626  -0.002
C  C53  1  0.20220052  0.45154381  0.31123650  1  1.574362  -0.000159  0.208658  0.641898  -0.000603  4.126649  -0.002
C  C54  1  0.29779409  0.54844379  0.81123755  1  1.573565  -0.000154  0.208776  0.642095  -0.000603  4.126309  -0.002
C  C55  1  0.70218955  0.54842799  0.18875954  1  1.57204  -0.000155  0.208894  0.642511  -0.000605  4.125845  -0.002
C  C56  1  0.97746476  0.47590189  0.63660411  1  -0.02872  0.011797  -0.157918  -0.332689  0.008482  3.888695  0.009
C  C57  1  0.02252815  0.47585934  0.36339503  1  -0.029273  0.011797  -0.158144  -0.332621  0.008478  3.889258  0.009
C  C58  1  0.47749440  0.52412998  0.86339117  1  -0.029034  0.011798  -0.158165  -0.332539  0.00848  3.889134  0.009
C  C59  1  0.52252564  0.52411243  0.13660227  1  -0.028211  0.011794  -0.158  -0.332483  0.00848  3.88886  0.009
C  C60  1  0.06572498  0.60498796  0.63071282  1  0.286579  0.00317  -0.003618  0.061641  0.001844  3.854216  0.0
C  C61  1  0.93430963  0.60494616  0.36928802  1  0.286843  0.003167  -0.003563  0.061657  0.001843  3.854368  0.0
C  C62  1  0.56573656  0.39504677  0.86928454  1  0.28715  0.003166  -0.003518  0.06165  0.001843  3.854207  0.0
C  C63  1  0.43427176  0.39502719  0.13071197  1  0.286733  0.003166  -0.003593  0.061524  0.001843  3.85434  0.0
C  C64  1  0.82225207  0.68818866  0.62698208  1  1.577916  0.000855  0.196697  0.541427  0.000562  4.181046  0.0
C  C65  1  0.17776308  0.68814238  0.37301746  1  1.577917  0.000855  0.196414  0.541305  0.00056  4.181512  0.0
C  C66  1  0.32225546  0.31184661  0.87301879  1  1.57729  0.000856  0.19643  0.541147  0.000561  4.180896  0.0
C  C67  1  0.67777631  0.31182688  0.12697467  1  1.577961  0.000859  0.196696  0.541362  0.000564  4.181421  0.0
C  C68  1  0.62561016  0.90493435  0.78088945  1  0.411473  0.000559  -0.000454  -0.01023  0.000233  3.985903  0.001
C  C69  1  0.37437320  0.90490755  0.21911479  1  0.412401  0.000557  -0.000295  -0.009779  0.000233  3.985528  0.001
C  C70  1  0.12562347  0.09510098  0.71911355  1  0.412458  0.000559  -0.000186  -0.009572  0.000233  3.985475  0.001
C  C71  1  0.87437613  0.09505723  0.28088822  1  0.411721  0.00056  -0.000489  -0.010308  0.000234  3.985866  0.001
C  C72  1  0.62009471  0.98950875  0.82374361  1  0.269409  0.002397  -0.006142  -0.126273  0.001446  3.902482  0.002
C  C73  1  0.37989116  0.98948253  0.17626019  1  0.269398  0.002396  -0.006229  -0.12636  0.001446  3.90264  0.002
C  C74  1  0.12009755  0.01053104  0.67625766  1  0.269142  0.002396  -0.006361  -0.126559  0.001446  3.902621  0.002
C  C75  1  0.87988955  0.01048046  0.32374196  1  0.270585  0.002396  -0.006153  -0.126249  0.001446  3.902601  0.002
C  C76  1  0.96146883  0.86805779  0.83847859  1  0.970168  -0.001701  0.136694  0.083761  -0.002159  3.925869  -0.001
C  C77  1  0.03853117  0.86802751  0.16152213  1  0.970255  -0.001702  0.136672  0.0839  -0.00216  3.925918  -0.001
C  C78  1  0.46146555  0.13198213  0.66152145  1  0.970509  -0.001702  0.136732  0.083911  -0.002159  3.925894  -0.001
C  C79  1  0.53851941  0.13193444  0.33847821  1  0.970483  -0.001702  0.136713  0.083839  -0.002159  3.925945  -0.001
C  C80  1  0.91463628  0.03122159  0.91127813  1  0.295733  0.000637  -0.048368  -0.114137  0.000501  3.879657  0.001
C  C81  1  0.08535445  0.03119717  0.08872474  1  0.331991  0.000634  -0.048252  -0.113639  0.000501  3.879759  0.001
C  C82  1  0.41464432  0.96881501  0.58872623  1  0.332724  0.000634  -0.04819  -0.11358  0.000501  3.879696  0.001
C  C83  1  0.58535990  0.96877076  0.41127908  1  0.295958  0.000637  -0.048348  -0.114034  0.000501  3.879619  0.001
C  C84  1  0.70004111  0.02967150  0.95713584  1  -0.046259  0.000193  -0.01401  0.081294  0.000124  3.986829  0.0
C  C85  1  0.29996364  0.02966005  0.04286792  1  -0.045933  0.000193  -0.014033  0.081158  0.000124  3.986525  0.0
C  C86  1  0.20002717  0.97034399  0.54286632  1  -0.046816  0.000193  -0.014008  0.081126  0.000124  3.986477  0.0
C  C87  1  0.79996104  0.97032280  0.45713681  1  -0.04616  0.000193  -0.01403  0.081146  0.000124  3.986923  0.0
C  C88  1  0.60065783  0.13604473  0.97904128  1  -0.124779  0.00028  -0.078274  -0.103111  0.000141  3.932168  0.0
C  C89  1  0.39932106  0.13604065  0.02096267  1  -0.013361  0.000273  -0.078407  -0.103298  0.000141  3.931963  0.0
C  C90  1  0.10069975  0.86395795  0.52096215  1  -0.013414  0.000274  -0.078362  -0.103148  0.000142  3.931987  0.0
C  C91  1  0.89936629  0.86394703  0.47904121  1  -0.124928  0.00028  -0.078262  -0.103142  0.000142  3.932181  0.0
C  C92  1  0.59817840  0.92225515  0.97859383  1  0.01385  0.000121  -0.099023  -0.15042  7.4e-05  4.025959  0.0
C  C93  1  0.40184063  0.92224927  0.02140719  1  -0.087547  0.000121  -0.099002  -0.150517  7.4e-05  4.02613  0.0
C  C94  1  0.09813221  0.07775286  0.52140786  1  -0.096944  0.000121  -0.099081  -0.150574  7.4e-05  4.026177  0.0
C  C95  1  0.90179775  0.07774283  0.47859453  1  0.01295  0.000121  -0.099007  -0.150345  7.4e-05  4.02617  0.0
N  N96  1  0.23596444  0.64139563  0.67968964  1  -1.123608  0.104567  -0.6521  -0.581741  0.067797  3.453886  0.085
N  N97  1  0.76404954  0.64136609  0.32031082  1  -1.123461  0.104567  -0.652114  -0.582141  0.067795  3.453575  0.085
N  N98  1  0.73597270  0.35862766  0.82030948  1  -1.123618  0.104553  -0.652157  -0.58213  0.067787  3.453968  0.085
N  N99  1  0.26404026  0.35860896  0.17968610  1  -1.124061  0.104576  -0.652141  -0.581855  0.067799  3.454116  0.085
N  N100  1  0.83880483  0.82984070  0.79057924  1  -1.212472  0.056071  -0.388088  -0.306805  0.037629  3.665902  0.048
N  N101  1  0.16119385  0.82981171  0.20942317  1  -1.213183  0.056063  -0.387957  -0.30671  0.037623  3.665864  0.048
N  N102  1  0.33881283  0.17019450  0.70942077  1  -1.213266  0.056072  -0.388046  -0.306811  0.037628  3.666091  0.048
N  N103  1  0.66118545  0.17015232  0.29057850  1  -1.212701  0.056073  -0.388065  -0.306786  0.03763  3.665751  0.048
N  N104  1  0.83538966  0.96489403  0.85953719  1  -1.251596  0.001653  -0.240791  0.050934  0.00087  3.775323  0.001
N  N105  1  0.16461063  0.96486477  0.14046469  1  -1.252025  0.001652  -0.240862  0.050699  0.00087  3.776066  0.001
N  N106  1  0.33538210  0.03514826  0.64046326  1  -1.252271  0.001653  -0.240839  0.05065  0.00087  3.77618  0.001
N  N107  1  0.66460057  0.03509481  0.35953524  1  -1.251642  0.001653  -0.24076  0.050826  0.00087  3.775471  0.001
O  O108  1  0.72649488  0.53449785  0.72154280  1  -1.191365  0.001595  -0.315373  -0.570137  -0.000305  2.276472  0.002
O  O109  1  0.27350499  0.53445263  0.27845530  1  -1.191906  0.001591  -0.315285  -0.56975  -0.000308  2.27627  0.002
O  O110  1  0.22650163  0.46553523  0.77845589  1  -1.191775  0.001593  -0.315295  -0.56984  -0.000306  2.276464  0.002
O  O111  1  0.77351344  0.46551174  0.22153902  1  -1.190961  0.001596  -0.315402  -0.570062  -0.000305  2.276111  0.002
O  O112  1  0.72632068  0.34240563  0.69396788  1  -1.129763  0.107684  -0.335627  -0.563672  0.068888  2.331587  0.098
O  O113  1  0.27368057  0.34236476  0.30602528  1  -1.130157  0.107659  -0.335534  -0.563245  0.068871  2.332297  0.098
O  O114  1  0.22629805  0.65762125  0.80603125  1  -1.129996  0.107669  -0.335533  -0.56324  0.068878  2.331918  0.098
O  O115  1  0.77363769  0.65760847  0.19397035  1  -1.129614  0.107675  -0.335533  -0.563442  0.068884  2.331942  0.098
O  O116  1  0.79599513  0.76602103  0.66855251  1  -1.144603  0.109763  -0.338903  -0.559444  0.07018  2.306057  0.1
O  O117  1  0.20403064  0.76598316  0.33145057  1  -1.144463  0.109793  -0.33872  -0.559277  0.070207  2.305942  0.1
O  O118  1  0.29598194  0.23400817  0.83144880  1  -1.14396  0.10978  -0.338807  -0.559284  0.070196  2.305731  0.1
O  O119  1  0.70403721  0.23399129  0.16855328  1  -1.144172  0.10979  -0.338926  -0.559488  0.0702  2.305613  0.1
O  O120  1  0.66148669  0.67850126  0.58616802  1  -1.170209  0.035919  -0.319233  -0.52279  0.022802  2.100986  0.029
O  O121  1  0.33854663  0.67845190  0.41382338  1  -1.170392  0.035925  -0.319059  -0.522691  0.022806  2.101338  0.029
O  O122  1  0.16147788  0.32153833  0.91382718  1  -1.170305  0.035918  -0.319041  -0.522605  0.022802  2.101231  0.029
O  O123  1  0.83850774  0.32151394  0.08617095  1  -1.170427  0.035892  -0.319122  -0.522591  0.022785  2.102002  0.029
