# generated using pymatgen
data_CdH10C12N2O5
_symmetry_space_group_name_H-M   'P 1'
_cell_length_a   14.48664553
_cell_length_b   17.51904751
_cell_length_c   17.51302326
_cell_angle_alpha   80.12407300
_cell_angle_beta   65.56187890
_cell_angle_gamma   65.56347857
_symmetry_Int_Tables_number   1
_chemical_formula_structural   CdH10C12N2O5
_chemical_formula_sum   'Cd8 H80 C96 N16 O40'
_cell_volume   3683.98304563
_cell_formula_units_Z   8
loop_
 _symmetry_equiv_pos_site_id
 _symmetry_equiv_pos_as_xyz
  1  'x, y, z'
loop_
 _atom_site_type_symbol
 _atom_site_label
 _atom_site_symmetry_multiplicity
 _atom_site_fract_x
 _atom_site_fract_y
 _atom_site_fract_z
 _atom_site_occupancy
 _atom_site_pbe_bader_charge
 _atom_site_pbe_bader_spin_density
 _atom_site_pbe_cm5_charge
 _atom_site_pbe_ddec_charge
 _atom_site_pbe_ddec_spin_density
 _atom_site_pbe_ddec_sum_bond_order
 _atom_site_pbe_magmom
Cd  Cd0  1  0.12702733  0.41179822  0.93675901  1  1.278365  0  0.804636  0.929094  0  2.195417  0
Cd  Cd1  1  0.97560009  0.08822071  0.56312826  1  1.278225  0  0.805043  0.929684  0  2.194921  0
Cd  Cd2  1  0.06361527  0.06336771  0.91185868  1  1.279749  0  0.804833  0.930275  0  2.193371  0
Cd  Cd3  1  0.53887671  0.43659493  0.58813248  1  1.278038  0  0.80469  0.929379  0  2.196363  0
Cd  Cd4  1  0.87297267  0.58820288  0.06324189  1  1.278233  0  0.804616  0.928907  0  2.195455  0
Cd  Cd5  1  0.02439677  0.91178165  0.43687658  1  1.278361  0  0.804996  0.929621  0  2.194984  0
Cd  Cd6  1  0.93638977  0.93663340  0.08813880  1  1.27965  0  0.804804  0.930192  0  2.19344  0
Cd  Cd7  1  0.46111613  0.56341056  0.41186654  1  1.278102  0  0.804687  0.929385  0  2.196313  0
H  H8  1  0.76896592  0.34781764  0.04846278  1  0.652737  0  0.291188  0.348739  0  1.005858  0
H  H9  1  0.26899755  0.07429135  0.93715836  1  0.108111  0  0.096554  0.099664  0  1.052447  0
H  H10  1  0.46494320  0.00035816  0.84434253  1  0.043753  0  0.099732  0.100751  0  0.997321  0
H  H11  1  0.43909630  0.20635191  0.67048284  1  0.040326  0  0.100082  0.102846  0  1.000027  0
H  H12  1  0.24684647  0.28122550  0.76396304  1  0.079001  0  0.097651  0.091914  0  1.039761  0
H  H13  1  0.62442001  0.99483971  0.72127811  1  0.047564  0  0.091134  0.130994  0  1.00387  0
H  H14  1  0.59262056  0.04256498  0.63191240  1  0.040596  0  0.091496  0.130199  0  0.994309  0
H  H15  1  0.63117722  0.09370956  0.68495624  1  0.031592  0  0.088827  0.129318  0  1.013301  0
H  H16  1  0.23017953  0.37960734  0.05500921  1  0.602803  0  0.318466  0.395151  0  0.898509  0
H  H17  1  0.10117585  0.42328717  0.10210277  1  0.64928  0  0.293708  0.397583  0  0.932792  0
H  H18  1  0.66491504  0.15217975  0.45165346  1  0.638202  0  0.291828  0.349745  0  1.003885  0
H  H19  1  0.78086017  0.42548313  0.56241928  1  0.09116  0  0.097089  0.10093  0  1.051859  0
H  H20  1  0.80989867  0.49947938  0.65528051  1  0.036611  0  0.09951  0.10022  0  0.997243  0
H  H21  1  0.81541826  0.29375564  0.82947727  1  0.035461  0  0.099576  0.101603  0  0.999732  0
H  H22  1  0.79162730  0.21886558  0.73592929  1  0.063052  0  0.097847  0.092976  0  1.038934  0
H  H23  1  0.84019225  0.50517558  0.77853907  1  0.051763  0  0.091162  0.131243  0  1.004532  0
H  H24  1  0.76681326  0.45738289  0.86785434  1  0.035519  0  0.091677  0.130455  0  0.994053  0
H  H25  1  0.90964977  0.40635166  0.81485489  1  0.050662  0  0.089159  0.128952  0  1.014209  0
H  H26  1  0.16489814  0.12015983  0.44506012  1  0.595821  0  0.318001  0.394152  0  0.900363  0
H  H27  1  0.12644278  0.07673678  0.39792123  1  0.655752  0  0.293573  0.395968  0  0.935004  0
H  H28  1  0.81751822  0.95167699  0.84766508  1  0.655228  0  0.290926  0.347659  0  1.007688  0
H  H29  1  0.20679371  0.06257900  0.57433745  1  0.102009  0  0.096818  0.100471  0  1.051487  0
H  H30  1  0.31000426  0.15540278  0.50038579  1  0.04878  0  0.099644  0.100891  0  0.998176  0
H  H31  1  0.10941476  0.32953957  0.70596698  1  0.026217  0  0.100074  0.102593  0  1.000119  0
H  H32  1  0.01052472  0.23610879  0.78078047  1  0.054966  0  0.097293  0.091666  0  1.040654  0
H  H33  1  0.34592582  0.27875508  0.49474054  1  0.04398  0  0.091232  0.131135  0  1.005542  0
H  H34  1  0.22469848  0.36796430  0.54245143  1  0.064388  0  0.091646  0.129948  0  0.994109  0
H  H35  1  0.31635916  0.31494177  0.59361829  1  0.038619  0  0.088904  0.129016  0  1.014399  0
H  H36  1  0.28500550  0.94514374  0.87944523  1  0.619739  0  0.318158  0.394388  0  0.899034  0
H  H37  1  0.20314817  0.89799124  0.92312965  1  0.655565  0  0.293617  0.395943  0  0.934637  0
H  H38  1  0.11674070  0.54816208  0.65221524  1  0.644178  0  0.29187  0.349401  0  1.004143  0
H  H39  1  0.34331228  0.43712457  0.92589544  1  0.079626  0  0.096579  0.100061  0  1.052265  0
H  H40  1  0.46540390  0.34414440  0.99980314  1  0.052795  0  0.099506  0.100143  0  0.997454  0
H  H41  1  0.64530477  0.17061145  0.79365630  1  0.05942  0  0.100308  0.102841  0  0.999945  0
H  H42  1  0.52781550  0.26421826  0.71884010  1  0.057371  0  0.097397  0.091752  0  1.040005  0
H  H43  1  0.61926942  0.22108707  0.00523595  1  0.042563  0  0.090966  0.130771  0  1.005559  0
H  H44  1  0.63503266  0.13189777  0.95742445  1  0.038467  0  0.0918  0.130174  0  0.992776  0
H  H45  1  0.72493565  0.18482734  0.90636981  1  0.06331  0  0.088759  0.12871  0  1.015627  0
H  H46  1  0.60994840  0.55459404  0.62037434  1  0.60692  0  0.317545  0.39315  0  0.901393  0
H  H47  1  0.52454383  0.60190860  0.57677521  1  0.662088  0  0.294023  0.396087  0  0.934722  0
H  H48  1  0.23103396  0.65218660  0.95153447  1  0.652666  0  0.291168  0.348698  0  1.006013  0
H  H49  1  0.73100037  0.92571101  0.06284172  1  0.108187  0  0.09657  0.099691  0  1.05236  0
H  H50  1  0.53505532  0.99964106  0.15566147  1  0.043695  0  0.099767  0.100824  0  0.997301  0
H  H51  1  0.56090707  0.79364167  0.32951696  1  0.040308  0  0.100097  0.102822  0  0.999947  0
H  H52  1  0.75315689  0.71877121  0.23603673  1  0.07893  0  0.097671  0.091924  0  1.039655  0
H  H53  1  0.37557719  0.00515575  0.27872677  1  0.04787  0  0.091168  0.131054  0  1.003837  0
H  H54  1  0.40738262  0.95742860  0.36808907  1  0.040574  0  0.091503  0.130206  0  0.994335  0
H  H55  1  0.36882050  0.90628778  0.31504946  1  0.031623  0  0.088847  0.129341  0  1.013314  0
H  H56  1  0.76982086  0.62039126  0.94499477  1  0.602821  0  0.31842  0.394644  0  0.898178  0
H  H57  1  0.89882241  0.57671393  0.89789983  1  0.649389  0  0.293691  0.397539  0  0.932892  0
H  H58  1  0.33508271  0.84781697  0.54835475  1  0.638064  0  0.291826  0.349764  0  1.003735  0
H  H59  1  0.21913561  0.57452487  0.43758386  1  0.091176  0  0.097031  0.100826  0  1.05203  0
H  H60  1  0.19010077  0.50052674  0.34472147  1  0.036717  0  0.099539  0.100205  0  0.997361  0
H  H61  1  0.18458780  0.70624421  0.17052132  1  0.035448  0  0.099609  0.101646  0  0.999773  0
H  H62  1  0.20837458  0.78113991  0.26406765  1  0.062809  0  0.097883  0.092971  0  1.038843  0
H  H63  1  0.15979942  0.49482803  0.22146946  1  0.051723  0  0.091192  0.131219  0  1.004587  0
H  H64  1  0.23317472  0.54262072  0.13215480  1  0.035532  0  0.091664  0.130457  0  0.994003  0
H  H65  1  0.09034453  0.59364881  0.18514888  1  0.050617  0  0.089123  0.128953  0  1.014297  0
H  H66  1  0.83510421  0.87984065  0.55493658  1  0.595824  0  0.318048  0.394193  0  0.90031  0
H  H67  1  0.87356047  0.92326057  0.60208132  1  0.655588  0  0.293609  0.396001  0  0.934948  0
H  H68  1  0.18249403  0.04831596  0.15233682  1  0.655554  0  0.290915  0.347675  0  1.007603  0
H  H69  1  0.79320822  0.93741960  0.42566205  1  0.102024  0  0.096846  0.100529  0  1.05143  0
H  H70  1  0.69000215  0.84459582  0.49961531  1  0.048942  0  0.099637  0.100963  0  0.998097  0
H  H71  1  0.89058737  0.67046154  0.29403334  1  0.02626  0  0.100042  0.102525  0  1.000101  0
H  H72  1  0.98947436  0.76389357  0.21921848  1  0.054965  0  0.097315  0.091678  0  1.04069  0
H  H73  1  0.65408247  0.72124288  0.50526500  1  0.043807  0  0.091212  0.131073  0  1.00556  0
H  H74  1  0.77530525  0.63203305  0.45755139  1  0.04672  0  0.09165  0.129951  0  0.994184  0
H  H75  1  0.68364946  0.68505495  0.40638530  1  0.038438  0  0.088938  0.129048  0  1.014323  0
H  H76  1  0.71499908  0.05485423  0.12055646  1  0.619808  0  0.318181  0.394423  0  0.898961  0
H  H77  1  0.79685289  0.10201300  0.07687093  1  0.655509  0  0.293595  0.395844  0  0.934767  0
H  H78  1  0.88324776  0.45184404  0.34778774  1  0.644177  0  0.291833  0.349306  0  1.004275  0
H  H79  1  0.65668699  0.56286902  0.07409941  1  0.079623  0  0.096602  0.100048  0  1.052336  0
H  H80  1  0.53459382  0.65584918  0.00019172  1  0.0527  0  0.099464  0.100017  0  0.997546  0
H  H81  1  0.35469615  0.82938778  0.20634015  1  0.059573  0  0.100305  0.102825  0  0.999938  0
H  H82  1  0.47218993  0.73577971  0.28115407  1  0.057746  0  0.097409  0.091811  0  1.040003  0
H  H83  1  0.38072649  0.77891404  0.99476000  1  0.042478  0  0.090962  0.130764  0  1.005495  0
H  H84  1  0.36496698  0.86809958  0.04257342  1  0.038536  0  0.091796  0.130173  0  0.992765  0
H  H85  1  0.27506366  0.81517126  0.09363000  1  0.063304  0  0.088752  0.1287  0  1.015617  0
H  H86  1  0.39005171  0.44540393  0.37962575  1  0.606939  0  0.317544  0.393133  0  0.901424  0
H  H87  1  0.47545177  0.39809063  0.42322716  1  0.662064  0  0.293999  0.396065  0  0.934759  0
C  C88  1  0.89269376  0.40204248  0.01874863  1  1.575139  0  0.215978  0.569945  0  4.218739  0
C  C89  1  0.96999675  0.32055854  0.97726966  1  0.476238  0  0.073229  -0.00231  0  4.032987  0
C  C90  1  0.95299808  0.24850670  0.97387328  1  0.405378  0  0.067138  -0.028096  0  4.052499  0
C  C91  1  0.85276311  0.23057677  0.00818755  1  1.533511  0  0.227568  0.5695  0  4.180258  0
C  C92  1  0.12752375  0.22456250  0.90742072  1  0.993332  0  0.220356  0.324904  0  4.007901  0
C  C93  1  0.24412757  0.18190297  0.85564800  1  -0.056278  0  -0.015033  0.002242  0  4.031831  0
C  C94  1  0.30624146  0.10210267  0.87754767  1  -0.105246  0  -0.09611  -0.129578  0  4.007206  0
C  C95  1  0.41604635  0.06126272  0.82561830  1  -0.011705  0  -0.097401  -0.150855  0  3.980368  0
C  C96  1  0.46605893  0.09757063  0.75040096  1  -0.009199  0  -0.004821  0.178185  0  3.967854  0
C  C97  1  0.40263260  0.17707812  0.72918537  1  -0.004738  0  -0.091425  -0.137826  0  3.967359  0
C  C98  1  0.29423853  0.21934159  0.78139629  1  -0.033447  0  -0.08911  -0.106492  0  4.002685  0
C  C99  1  0.58441344  0.05450453  0.69456287  1  -0.055528  0  -0.239574  -0.418908  0  3.968079  0
C  C100  1  0.81345457  0.09794038  0.48107308  1  1.571573  0  0.217211  0.573945  0  4.219529  0
C  C101  1  0.76774601  0.17937031  0.52261290  1  0.438815  0  0.072935  -0.003097  0  4.035803  0
C  C102  1  0.67525005  0.25144196  0.52606980  1  0.416065  0  0.065918  -0.029213  0  4.051607  0
C  C103  1  0.59131343  0.26943888  0.49185710  1  1.549185  0  0.227845  0.568948  0  4.178516  0
C  C104  1  0.75954222  0.27536720  0.59236633  1  1.01484  0  0.221105  0.327708  0  4.00794  0
C  C105  1  0.78173322  0.31805235  0.64409947  1  -0.02548  0  -0.015635  0.001787  0  4.03046  0
C  C106  1  0.78615745  0.39776645  0.62209915  1  -0.039877  0  -0.096021  -0.130102  0  4.007103  0
C  C107  1  0.80307925  0.43862089  0.67406145  1  -0.099225  0  -0.097315  -0.150355  0  3.981978  0
C  C108  1  0.81400450  0.40236468  0.74934932  1  0.041097  0  -0.004869  0.177547  0  3.968652  0
C  C109  1  0.80867903  0.32292422  0.77065139  1  0.007095  0  -0.090952  -0.135717  0  3.965062  0
C  C110  1  0.79483963  0.28065765  0.71840726  1  -0.045515  0  -0.089305  -0.108896  0  4.00389  0
C  C111  1  0.83326901  0.44548097  0.80522880  1  -0.076282  0  -0.239797  -0.418533  0  3.969836  0
C  C112  1  0.91139785  0.98133904  0.90198946  1  1.586218  0  0.217395  0.573718  0  4.217816  0
C  C113  1  0.94713640  0.02290012  0.82051335  1  0.412411  0  0.073405  -0.002801  0  4.036004  0
C  C114  1  0.92697495  0.02619672  0.74834764  1  0.427877  0  0.067249  -0.027452  0  4.053185  0
C  C115  1  0.86108898  0.99195538  0.73037346  1  1.557374  0  0.227756  0.569894  0  4.178609  0
C  C116  1  0.03515369  0.09252376  0.72437342  1  1.003688  0  0.221183  0.326812  0  4.008531  0
C  C117  1  0.10009645  0.14422513  0.68170260  1  0.006333  0  -0.016003  0.001058  0  4.032866  0
C  C118  1  0.18435515  0.12223102  0.60202613  1  -0.14664  0  -0.095546  -0.12883  0  4.008783  0
C  C119  1  0.24220942  0.17417846  0.56118581  1  -0.029356  0  -0.097751  -0.15237  0  3.985998  0
C  C120  1  0.21678615  0.24945601  0.59740767  1  0.016711  0  -0.005862  0.178207  0  3.968724  0
C  C121  1  0.13188232  0.27075251  0.67680077  1  -0.038903  0  -0.091536  -0.13817  0  3.967974  0
C  C122  1  0.07568671  0.21855307  0.71904944  1  0.023808  0  -0.088666  -0.106582  0  4.005133  0
C  C123  1  0.27920668  0.30535573  0.55440413  1  -0.082251  0  -0.23923  -0.417813  0  3.970381  0
C  C124  1  0.29468519  0.51868734  0.59790541  1  1.585444  0  0.216726  0.572312  0  4.222759  0
C  C125  1  0.29052468  0.47715740  0.67940603  1  0.415429  0  0.072092  -0.003778  0  4.03439  0
C  C126  1  0.20149245  0.47377465  0.75155342  1  0.42534  0  0.06613  -0.02944  0  4.052089  0
C  C127  1  0.08336392  0.50795333  0.76952872  1  1.567549  0  0.226013  0.566552  0  4.179439  0
C  C128  1  0.35206968  0.40752139  0.77551774  1  0.99468  0  0.221765  0.32847  0  4.006913  0
C  C129  1  0.42607350  0.35583871  0.81818271  1  -0.02623  0  -0.016442  2.7e-05  0  4.031351  0
C  C130  1  0.40845236  0.37760799  0.89800927  1  -0.035081  0  -0.095383  -0.129383  0  4.009392  0
C  C131  1  0.47744602  0.32560608  0.93881081  1  -0.064321  0  -0.096727  -0.149251  0  3.982714  0
C  C132  1  0.56370914  0.25043548  0.90243970  1  0.013559  0  -0.004872  0.178231  0  3.96629  0
C  C133  1  0.57969161  0.22934591  0.82291120  1  -0.074768  0  -0.090892  -0.136987  0  3.964627  0
C  C134  1  0.51351806  0.28162061  0.78068670  1  0.006171  0  -0.089759  -0.10789  0  4.001946  0
C  C135  1  0.63892480  0.19449127  0.94552742  1  -0.086171  0  -0.239947  -0.418466  0  3.969666  0
C  C136  1  0.10731008  0.59795988  0.98124942  1  1.575033  0  0.21605  0.570148  0  4.218639  0
C  C137  1  0.03000634  0.67944319  0.02272868  1  0.475882  0  0.073179  -0.002375  0  4.033028  0
C  C138  1  0.04700161  0.75149754  0.02612565  1  0.405474  0  0.067119  -0.028219  0  4.052639  0
C  C139  1  0.14723893  0.76942183  0.99181557  1  1.533181  0  0.227631  0.569527  0  4.180122  0
C  C140  1  0.87247967  0.77543798  0.09258014  1  0.993315  0  0.220305  0.324879  0  4.008083  0
C  C141  1  0.75587256  0.81809751  0.14435457  1  -0.056258  0  -0.015063  0.002181  0  4.03195  0
C  C142  1  0.69375694  0.89789405  0.12245022  1  -0.1052  0  -0.096119  -0.129567  0  4.007083  0
C  C143  1  0.58395248  0.93873275  0.17438127  1  -0.012001  0  -0.097474  -0.150989  0  3.980196  0
C  C144  1  0.53394111  0.90242107  0.24960001  1  -0.008666  0  -0.004802  0.178182  0  3.967801  0
C  C145  1  0.59737151  0.82291671  0.27081607  1  -0.004961  0  -0.091506  -0.13786  0  3.967227  0
C  C146  1  0.70576422  0.78065575  0.21860154  1  -0.033337  0  -0.089072  -0.106407  0  4.00253  0
C  C147  1  0.41558518  0.94549156  0.30544031  1  -0.055911  0  -0.239606  -0.418974  0  3.968061  0
C  C148  1  0.18654759  0.90206072  0.51893169  1  1.572181  0  0.217367  0.57417  0  4.219668  0
C  C149  1  0.23225354  0.82063268  0.47738828  1  0.438717  0  0.072916  -0.003163  0  4.035986  0
C  C150  1  0.32474612  0.74856039  0.47393198  1  0.415997  0  0.065822  -0.029337  0  4.051827  0
C  C151  1  0.40868033  0.73056035  0.50814781  1  1.549234  0  0.227791  0.568915  0  4.178519  0
C  C152  1  0.24045251  0.72463767  0.40763712  1  1.014864  0  0.221113  0.327772  0  4.007777  0
C  C153  1  0.21825471  0.68195754  0.35590071  1  -0.025655  0  -0.015681  0.001751  0  4.030098  0
C  C154  1  0.21383492  0.60224155  0.37790209  1  -0.039818  0  -0.095955  -0.130001  0  4.007126  0
C  C155  1  0.19690988  0.56138586  0.32594207  1  -0.099304  0  -0.097333  -0.150304  0  3.982133  0
C  C156  1  0.18598712  0.59764018  0.25065419  1  0.040711  0  -0.004886  0.177575  0  3.968794  0
C  C157  1  0.19131515  0.67707939  0.22934874  1  0.007503  0  -0.090998  -0.135819  0  3.964942  0
C  C158  1  0.20515321  0.71935035  0.28158980  1  -0.045395  0  -0.089384  -0.108959  0  4.00357  0
C  C159  1  0.16672053  0.55452265  0.19478032  1  -0.075908  0  -0.239719  -0.418438  0  3.970008  0
C  C160  1  0.08860284  0.01866457  0.09801252  1  1.586826  0  0.217474  0.573782  0  4.217863  0
C  C161  1  0.05287092  0.97709723  0.17948525  1  0.412328  0  0.073365  -0.002857  0  4.036005  0
C  C162  1  0.07302356  0.97380564  0.25165633  1  0.428125  0  0.067291  -0.027411  0  4.052984  0
C  C163  1  0.13892234  0.00803883  0.26962649  1  1.556036  0  0.227759  0.570004  0  4.178542  0
C  C164  1  0.96484554  0.90747985  0.27562330  1  1.003708  0  0.221247  0.326893  0  4.008483  0
C  C165  1  0.89990722  0.85577347  0.31829520  1  0.00625  0  -0.01605  0.001006  0  4.032876  0
C  C166  1  0.81565173  0.87776758  0.39797079  1  -0.146672  0  -0.09557  -0.128808  0  4.008855  0
C  C167  1  0.75779585  0.82582202  0.43881251  1  -0.029351  0  -0.09778  -0.152612  0  3.98605  0
C  C168  1  0.78321904  0.75054133  0.40259597  1  0.015598  0  -0.005774  0.178363  0  3.968635  0
C  C169  1  0.86812389  0.72924609  0.32320201  1  -0.038099  0  -0.091554  -0.138168  0  3.967801  0
C  C170  1  0.92431219  0.78144867  0.28094925  1  0.023678  0  -0.088657  -0.106554  0  4.005213  0
C  C171  1  0.72079935  0.69464287  0.44560033  1  -0.063852  0  -0.239275  -0.417824  0  3.970452  0
C  C172  1  0.70531181  0.48131627  0.40209719  1  1.585707  0  0.216751  0.572457  0  4.222466  0
C  C173  1  0.70947133  0.52284371  0.32059354  1  0.415452  0  0.071996  -0.004009  0  4.034466  0
C  C174  1  0.79850339  0.52622583  0.24844587  1  0.425329  0  0.066117  -0.02939  0  4.052081  0
C  C175  1  0.91663466  0.49204966  0.23047191  1  1.567361  0  0.226014  0.566501  0  4.17959  0
C  C176  1  0.64793098  0.59247721  0.22447927  1  0.994688  0  0.221829  0.328496  0  4.007014  0
C  C177  1  0.57392683  0.64415800  0.18181182  1  -0.025919  0  -0.016408  7.6e-05  0  4.031418  0
C  C178  1  0.59154945  0.62238810  0.10198412  1  -0.035432  0  -0.095444  -0.129525  0  4.009402  0
C  C179  1  0.52255435  0.67438939  0.06118428  1  -0.064473  0  -0.096732  -0.149154  0  3.982645  0
C  C180  1  0.43629224  0.74956187  0.09755648  1  0.013357  0  -0.004882  0.178263  0  3.966123  0
C  C181  1  0.42031065  0.77065395  0.17708439  1  -0.074931  0  -0.090829  -0.136944  0  3.964671  0
C  C182  1  0.48648440  0.71837924  0.21930722  1  0.006144  0  -0.089847  -0.107976  0  4.002184  0
C  C183  1  0.36107559  0.80550670  0.05447016  1  -0.085986  0  -0.239913  -0.418442  0  3.969579  0
N  N184  1  0.07960048  0.30450131  0.93527974  1  -1.199082  0  -0.354862  -0.368267  0  3.444676  0
N  N185  1  0.05333807  0.18878946  0.93020953  1  -1.202139  0  -0.359368  -0.374826  0  3.517519  0
N  N186  1  0.81943428  0.19544768  0.56445820  1  -1.212908  0  -0.355047  -0.369023  0  3.447669  0
N  N187  1  0.67225086  0.31112104  0.56972119  1  -1.206073  0  -0.360221  -0.376755  0  3.52044  0
N  N188  1  0.01487263  0.06477490  0.80441253  1  -1.208304  0  -0.354913  -0.369137  0  3.445769  0
N  N189  1  0.98376197  0.06977692  0.68858249  1  -1.20805  0  -0.359896  -0.375854  0  3.518909  0
N  N190  1  0.38406568  0.43531777  0.69549516  1  -1.20091  0  -0.354111  -0.36809  0  3.445077  0
N  N191  1  0.24212913  0.43019986  0.81130889  1  -1.222331  0  -0.359402  -0.375161  0  3.518054  0
N  N192  1  0.92040130  0.69550167  0.06472000  1  -1.198786  0  -0.354802  -0.368225  0  3.444807  0
N  N193  1  0.94666046  0.81121227  0.06979250  1  -1.202133  0  -0.359307  -0.374667  0  3.517609  0
N  N194  1  0.18056477  0.80455845  0.43554268  1  -1.212741  0  -0.354977  -0.368942  0  3.447832  0
N  N195  1  0.32774700  0.68888258  0.43027833  1  -1.206321  0  -0.36024  -0.376769  0  3.520481  0
N  N196  1  0.98512488  0.93523060  0.19558643  1  -1.20865  0  -0.354945  -0.369137  0  3.445855  0
N  N197  1  0.01624172  0.93021854  0.31141533  1  -1.207885  0  -0.359905  -0.375943  0  3.51897  0
N  N198  1  0.61593125  0.56468209  0.30450190  1  -1.200934  0  -0.354054  -0.367975  0  3.445114  0
N  N199  1  0.75786905  0.56979748  0.18868816  1  -1.2225  0  -0.359419  -0.375174  0  3.518164  0
O  O200  1  0.93612763  0.45169505  0.02051790  1  -1.168365  0  -0.326704  -0.543928  0  2.418525  0
O  O201  1  0.79001219  0.41886960  0.04988531  1  -1.165736  0  -0.307194  -0.509055  0  2.179736  0
O  O202  1  0.75859794  0.29066494  0.04656532  1  -1.168437  0  -0.324579  -0.466467  0  2.254713  0
O  O203  1  0.85875716  0.15871600  0.99973608  1  -1.170471  0  -0.296311  -0.526921  0  2.259597  0
O  O204  1  0.16106969  0.37889996  0.06022123  1  -1.207397  0  -0.575388  -0.737694  0  2.020654  0
O  O205  1  0.90831348  0.04825578  0.47934644  1  -1.171502  0  -0.327422  -0.546458  0  2.419212  0
O  O206  1  0.75863326  0.08110048  0.45008889  1  -1.155432  0  -0.307322  -0.510626  0  2.180893  0
O  O207  1  0.59544698  0.20935189  0.45360765  1  -1.150514  0  -0.324542  -0.466529  0  2.254178  0
O  O208  1  0.51714260  0.34137157  0.50021039  1  -1.182946  0  -0.29568  -0.525319  0  2.257422  0
O  O209  1  0.10022433  0.12113571  0.43973975  1  -1.2065  0  -0.574815  -0.734903  0  2.025467  0
O  O210  1  0.95649927  0.97965705  0.95172106  1  -1.168348  0  -0.327967  -0.546582  0  2.420637  0
O  O211  1  0.83991878  0.95017659  0.91879017  1  -1.159871  0  -0.306876  -0.5098  0  2.17914  0
O  O212  1  0.80525198  0.95359356  0.79047992  1  -1.178456  0  -0.325248  -0.466791  0  2.255833  0
O  O213  1  0.85877205  0.00037225  0.65844454  1  -1.170872  0  -0.296139  -0.526463  0  2.257929  0
O  O214  1  0.22111512  0.93991470  0.87874806  1  -1.23168  0  -0.575172  -0.735139  0  2.023848  0
O  O215  1  0.38777490  0.52054044  0.54824926  1  -1.167107  0  -0.326402  -0.544751  0  2.421477  0
O  O216  1  0.20887248  0.54973297  0.58105856  1  -1.156746  0  -0.307595  -0.510343  0  2.182194  0
O  O217  1  0.04925480  0.54621167  0.70939921  1  -1.158758  0  -0.323908  -0.465361  0  2.25385  0
O  O218  1  0.01750008  0.49956121  0.84145064  1  -1.177127  0  -0.29533  -0.524925  0  2.258765  0
O  O219  1  0.54004379  0.55994921  0.62114402  1  -1.222941  0  -0.575137  -0.734278  0  2.026609  0
O  O220  1  0.06387630  0.54830731  0.97947932  1  -1.168212  0  -0.326794  -0.544087  0  2.418571  0
O  O221  1  0.20999088  0.58113213  0.95010858  1  -1.165742  0  -0.307195  -0.509093  0  2.179703  0
O  O222  1  0.24140478  0.70933616  0.95343442  1  -1.168317  0  -0.324536  -0.466397  0  2.254786  0
O  O223  1  0.14125054  0.84128197  0.00026557  1  -1.170201  0  -0.296395  -0.526969  0  2.259396  0
O  O224  1  0.83893044  0.62110052  0.93978135  1  -1.207505  0  -0.575318  -0.736848  0  2.020626  0
O  O225  1  0.09168454  0.95174407  0.52065923  1  -1.171765  0  -0.327421  -0.546559  0  2.419215  0
O  O226  1  0.24136580  0.91889749  0.54991594  1  -1.155578  0  -0.307373  -0.510674  0  2.181103  0
O  O227  1  0.40455169  0.79064294  0.54639610  1  -1.150389  0  -0.324482  -0.466495  0  2.25411  0
O  O228  1  0.48285577  0.65862640  0.49979140  1  -1.182973  0  -0.295679  -0.52532  0  2.257286  0
O  O229  1  0.89977639  0.87886164  0.56026228  1  -1.206336  0  -0.574884  -0.734966  0  2.025412  0
O  O230  1  0.04351370  0.02034218  0.04827409  1  -1.168236  0  -0.327912  -0.546574  0  2.420643  0
O  O231  1  0.16009124  0.04981636  0.08121315  1  -1.160547  0  -0.306932  -0.509823  0  2.179077  0
O  O232  1  0.19475873  0.04639876  0.20952005  1  -1.178345  0  -0.325181  -0.466755  0  2.255887  0
O  O233  1  0.14122484  0.99963199  0.34156084  1  -1.170084  0  -0.296179  -0.526549  0  2.257815  0
O  O234  1  0.77889065  0.06008515  0.12124859  1  -1.231687  0  -0.575178  -0.735081  0  2.023853  0
O  O235  1  0.61221513  0.47946505  0.45175176  1  -1.167215  0  -0.326423  -0.544821  0  2.421055  0
O  O236  1  0.79112075  0.45027001  0.41894354  1  -1.156948  0  -0.307553  -0.510296  0  2.182393  0
O  O237  1  0.95073933  0.45379069  0.29060233  1  -1.158674  0  -0.323849  -0.465263  0  2.253959  0
O  O238  1  0.98249983  0.50043990  0.15855110  1  -1.17697  0  -0.295309  -0.524842  0  2.258776  0
O  O239  1  0.45995471  0.44005064  0.37885747  1  -1.222937  0  -0.575095  -0.734232  0  2.026645  0
