# generated using pymatgen
data_ZnH4C3N4O3
_symmetry_space_group_name_H-M   'P 1'
_cell_length_a   8.86422633
_cell_length_b   16.03584578
_cell_length_c   16.94219446
_cell_angle_alpha   107.73776797
_cell_angle_beta   89.99985919
_cell_angle_gamma   90.00021040
_symmetry_Int_Tables_number   1
_chemical_formula_structural   ZnH4C3N4O3
_chemical_formula_sum   'Zn12 H48 C36 N48 O36'
_cell_volume   2293.76810039
_cell_formula_units_Z   12
loop_
 _symmetry_equiv_pos_site_id
 _symmetry_equiv_pos_as_xyz
  1  'x, y, z'
loop_
 _atom_site_type_symbol
 _atom_site_label
 _atom_site_symmetry_multiplicity
 _atom_site_fract_x
 _atom_site_fract_y
 _atom_site_fract_z
 _atom_site_occupancy
 _atom_site_pbe_bader_charge
 _atom_site_pbe_bader_spin_density
 _atom_site_pbe_cm5_charge
 _atom_site_pbe_ddec_charge
 _atom_site_pbe_ddec_spin_density
 _atom_site_pbe_ddec_sum_bond_order
 _atom_site_pbe_magmom
Zn  Zn0  1  0.87156325  0.02086557  0.79944587  1  1.294242  0  0.731323  0.757782  0  2.402013  0
Zn  Zn1  1  0.37156537  0.47913616  0.70055690  1  1.294171  0  0.731333  0.757822  0  2.401987  0
Zn  Zn2  1  0.12843589  0.97913750  0.20055604  1  1.294353  0  0.73132  0.757726  0  2.40206  0
Zn  Zn3  1  0.62843038  0.52086232  0.29944663  1  1.294138  0  0.731378  0.757881  0  2.401935  0
Zn  Zn4  1  0.37598478  0.17725658  0.04859626  1  1.324853  0  0.702504  0.783458  0  2.369642  0
Zn  Zn5  1  0.87598622  0.32274562  0.45140617  1  1.324825  0  0.702512  0.783437  0  2.369676  0
Zn  Zn6  1  0.62401548  0.82274650  0.95140447  1  1.324883  0  0.702478  0.783398  0  2.369759  0
Zn  Zn7  1  0.12401066  0.67725811  0.54859652  1  1.324798  0  0.702493  0.78347  0  2.369633  0
Zn  Zn8  1  0.43418118  0.33382996  0.94067011  1  1.332706  0  0.687294  0.833874  0  2.312038  0
Zn  Zn9  1  0.93418567  0.16616798  0.55932497  1  1.33284  0  0.687297  0.833857  0  2.312101  0
Zn  Zn10  1  0.56581909  0.66616855  0.05932693  1  1.332767  0  0.6873  0.833864  0  2.311994  0
Zn  Zn11  1  0.06582249  0.83382922  0.44066991  1  1.332792  0  0.687317  0.8339  0  2.312049  0
H  H12  1  0.86881131  0.26842632  0.85388608  1  0.141785  0  0.119428  0.164797  0  0.983871  0
H  H13  1  0.36881091  0.23157149  0.64611260  1  0.141876  0  0.119431  0.164848  0  0.983846  0
H  H14  1  0.13119798  0.73157872  0.14611464  1  0.141633  0  0.119448  0.164839  0  0.983847  0
H  H15  1  0.63118033  0.76841719  0.35388158  1  0.141814  0  0.119405  0.164764  0  0.98393  0
H  H16  1  0.70192834  0.29059196  0.80954841  1  0.134181  0  0.119501  0.168577  0  0.965336  0
H  H17  1  0.20192533  0.20941147  0.69044739  1  0.134195  0  0.119555  0.168661  0  0.965364  0
H  H18  1  0.29807869  0.70941637  0.19045090  1  0.134193  0  0.119539  0.168607  0  0.965321  0
H  H19  1  0.79806140  0.79059163  0.30954803  1  0.134201  0  0.119499  0.168555  0  0.965288  0
H  H20  1  0.01173651  0.20829270  0.05028419  1  0.088031  0  0.12021  0.161473  0  0.964273  0
H  H21  1  0.51173888  0.29170295  0.44971917  1  0.088154  0  0.120146  0.161359  0  0.964292  0
H  H22  1  0.98825247  0.79170840  0.94971951  1  0.088055  0  0.120145  0.161317  0  0.964277  0
H  H23  1  0.48825913  0.70828833  0.55028344  1  0.08794  0  0.120213  0.161466  0  0.964336  0
H  H24  1  0.90843301  0.19502865  0.95747850  1  0.079589  0  0.107678  0.133028  0  1.024649  0
H  H25  1  0.40843697  0.30496791  0.54252389  1  0.079185  0  0.107675  0.133031  0  1.024804  0
H  H26  1  0.09157403  0.80497641  0.04251868  1  0.079532  0  0.107696  0.133053  0  1.024807  0
H  H27  1  0.59156556  0.69502794  0.45748241  1  0.079635  0  0.107681  0.133033  0  1.024676  0
H  H28  1  0.95692124  0.73238421  0.72923051  1  0.138083  0  0.116008  0.169327  0  0.976399  0
H  H29  1  0.45692049  0.76761509  0.77076910  1  0.138056  0  0.115989  0.16931  0  0.976445  0
H  H30  1  0.04307677  0.26761494  0.27076849  1  0.138067  0  0.115987  0.16929  0  0.976469  0
H  H31  1  0.54307076  0.23238013  0.22922993  1  0.137997  0  0.115996  0.169304  0  0.976407  0
H  H32  1  0.06243158  0.82106362  0.79492719  1  0.117566  0  0.118089  0.150026  0  0.984919  0
H  H33  1  0.56243322  0.67894086  0.70507856  1  0.117689  0  0.118091  0.150035  0  0.984973  0
H  H34  1  0.93756643  0.17893944  0.20507649  1  0.117562  0  0.118094  0.150027  0  0.984943  0
H  H35  1  0.43756253  0.32106154  0.29492847  1  0.117471  0  0.118068  0.149998  0  0.984978  0
H  H36  1  0.55122859  0.46219381  0.89648645  1  0.637511  0  0.290663  0.338819  0  1.02644  0
H  H37  1  0.05123048  0.03780802  0.60351322  1  0.637378  0  0.290631  0.338794  0  1.026449  0
H  H38  1  0.44877732  0.53780796  0.10351214  1  0.637531  0  0.290622  0.338799  0  1.026468  0
H  H39  1  0.94876528  0.96219048  0.39648382  1  0.637385  0  0.290621  0.338781  0  1.026494  0
H  H40  1  0.65976354  0.45677800  0.96728354  1  0.632317  0  0.29834  0.40056  0  0.916813  0
H  H41  1  0.15976128  0.04322141  0.53271410  1  0.632285  0  0.298342  0.40057  0  0.916793  0
H  H42  1  0.34023786  0.54322311  0.03271721  1  0.632335  0  0.298315  0.400553  0  0.916831  0
H  H43  1  0.84023786  0.95677644  0.46728157  1  0.632255  0  0.29828  0.400565  0  0.916859  0
H  H44  1  0.58205193  0.06451893  0.08797483  1  0.64072  0  0.287225  0.340119  0  1.022905  0
H  H45  1  0.08204825  0.43548473  0.41202428  1  0.640763  0  0.287275  0.340152  0  1.022874  0
H  H46  1  0.41794721  0.93548219  0.91202533  1  0.640694  0  0.287323  0.340277  0  1.022703  0
H  H47  1  0.91794412  0.56452163  0.58797623  1  0.640723  0  0.287287  0.340211  0  1.022767  0
H  H48  1  0.41892089  0.07824086  0.13297588  1  0.647032  0  0.292363  0.377508  0  0.964385  0
H  H49  1  0.91891661  0.42176403  0.36702610  1  0.647103  0  0.292407  0.377584  0  0.964287  0
H  H50  1  0.58107374  0.92176157  0.86702171  1  0.647002  0  0.292394  0.377523  0  0.964342  0
H  H51  1  0.08107802  0.57823709  0.63297170  1  0.647186  0  0.292379  0.377524  0  0.964362  0
H  H52  1  0.17559594  0.40679453  0.95197871  1  0.645973  0  0.288073  0.386007  0  0.94852  0
H  H53  1  0.67560226  0.09319639  0.54801585  1  0.646218  0  0.288059  0.386051  0  0.948449  0
H  H54  1  0.82441335  0.59320529  0.04801518  1  0.646068  0  0.287997  0.385907  0  0.948654  0
H  H55  1  0.32440252  0.90679884  0.45197847  1  0.646034  0  0.288033  0.385932  0  0.94861  0
H  H56  1  0.28402304  0.44596803  0.89578524  1  0.640434  0  0.296736  0.375357  0  0.960083  0
H  H57  1  0.78402770  0.05402637  0.60421019  1  0.640476  0  0.296792  0.375436  0  0.959966  0
H  H58  1  0.71599415  0.55403768  0.10421448  1  0.640664  0  0.296771  0.375385  0  0.960054  0
H  H59  1  0.21597595  0.94596822  0.39578158  1  0.640375  0  0.296847  0.375538  0  0.959811  0
C  C60  1  0.68471486  0.18722851  0.86319828  1  0.964393  0  0.234687  0.348363  0  3.964466  0
C  C61  1  0.18471843  0.31276898  0.63679936  1  0.964352  0  0.234746  0.348488  0  3.964388  0
C  C62  1  0.31529330  0.81277522  0.13680324  1  0.964512  0  0.234585  0.348162  0  3.964698  0
C  C63  1  0.81527958  0.68722756  0.36319652  1  0.964351  0  0.234725  0.348235  0  3.964576  0
C  C64  1  0.77045753  0.23634330  0.81634788  1  -0.044709  0  -0.150447  -0.404644  0  3.904008  0
C  C65  1  0.27045717  0.26365500  0.68365047  1  -0.04434  0  -0.150524  -0.404888  0  3.904338  0
C  C66  1  0.22954725  0.76366306  0.18365086  1  -0.044095  0  -0.150503  -0.404668  0  3.904158  0
C  C67  1  0.72953633  0.73633892  0.31634523  1  -0.044725  0  -0.150394  -0.404438  0  3.903991  0
C  C68  1  0.83002620  0.18228130  0.73205899  1  1.574465  0  0.221156  0.664754  0  4.115454  0
C  C69  1  0.33002016  0.31771515  0.76793402  1  1.573952  0  0.221146  0.664735  0  4.115414  0
C  C70  1  0.16998647  0.81772442  0.26793661  1  1.574115  0  0.221107  0.664538  0  4.115586  0
C  C71  1  0.66997673  0.68227551  0.23205660  1  1.573825  0  0.221178  0.664658  0  4.115675  0
C  C72  1  0.09374686  0.10683001  0.94730856  1  0.979066  0  0.226813  0.347706  0  3.976939  0
C  C73  1  0.59374726  0.39316533  0.55269507  1  0.979276  0  0.226858  0.347679  0  3.977208  0
C  C74  1  0.90625341  0.89317108  0.05269691  1  0.979334  0  0.226862  0.347746  0  3.976906  0
C  C75  1  0.40624737  0.60683053  0.44730711  1  0.979146  0  0.226825  0.347658  0  3.976953  0
C  C76  1  0.02143168  0.19384958  0.98264498  1  -0.006878  0  -0.152233  -0.393813  0  3.911799  0
C  C77  1  0.52143279  0.30614694  0.51736026  1  -0.006872  0  -0.152149  -0.393646  0  3.912024  0
C  C78  1  0.97857310  0.80615413  0.01736125  1  -0.006874  0  -0.152284  -0.393765  0  3.911897  0
C  C79  1  0.47856748  0.69384891  0.48264663  1  -0.006901  0  -0.15224  -0.393803  0  3.91191  0
C  C80  1  0.11752720  0.26809436  0.96915864  1  1.589998  0  0.223642  0.666054  0  4.101123  0
C  C81  1  0.61752775  0.23190431  0.53084120  1  1.59001  0  0.22363  0.666104  0  4.101096  0
C  C82  1  0.88247419  0.73191002  0.03084189  1  1.589288  0  0.223629  0.666072  0  4.100927  0
C  C83  1  0.38247364  0.76809547  0.46916506  1  1.589993  0  0.223548  0.666015  0  4.101135  0
C  C84  1  0.97656245  0.84425157  0.68780995  1  0.991752  0  0.240004  0.359297  0  3.942468  0
C  C85  1  0.47656302  0.65575103  0.81219237  1  0.991607  0  0.240039  0.359433  0  3.942497  0
C  C86  1  0.02343443  0.15575085  0.31219178  1  0.991587  0  0.239942  0.359319  0  3.94246  0
C  C87  1  0.52343499  0.34425007  0.18781074  1  0.991713  0  0.24006  0.359467  0  3.942529  0
C  C88  1  0.96105940  0.80385735  0.75531942  1  -0.043529  0  -0.152217  -0.408107  0  3.913175  0
C  C89  1  0.46106280  0.69614457  0.74468272  1  -0.043788  0  -0.152269  -0.40814  0  3.913186  0
C  C90  1  0.03893749  0.19614441  0.24468152  1  -0.043644  0  -0.15227  -0.408123  0  3.913214  0
C  C91  1  0.53893295  0.30385392  0.25531845  1  -0.043529  0  -0.152223  -0.408157  0  3.913207  0
C  C92  1  0.82648473  0.83598156  0.81328811  1  1.595153  0  0.224569  0.65955  0  4.092572  0
C  C93  1  0.32648594  0.66401753  0.68670629  1  1.59538  0  0.224662  0.659489  0  4.092894  0
C  C94  1  0.17351440  0.16401695  0.18670716  1  1.59567  0  0.224606  0.659453  0  4.09291  0
C  C95  1  0.67350530  0.33597835  0.31329058  1  1.595452  0  0.224613  0.659637  0  4.092456  0
N  N96  1  0.57486206  0.22117893  0.91767145  1  -0.735837  0  -0.222199  -0.252343  0  3.390088  0
N  N97  1  0.07486453  0.27882295  0.58232524  1  -0.735833  0  -0.22219  -0.252353  0  3.390238  0
N  N98  1  0.42514498  0.77882611  0.08233044  1  -0.735771  0  -0.222137  -0.252307  0  3.390218  0
N  N99  1  0.92513574  0.72117883  0.41766921  1  -0.735799  0  -0.222267  -0.252377  0  3.390167  0
N  N100  1  0.53446456  0.15713790  0.94971658  1  -0.177161  0  -0.096794  -0.042644  0  3.504109  0
N  N101  1  0.03446535  0.34286521  0.55028289  1  -0.177144  0  -0.096864  -0.04273  0  3.504168  0
N  N102  1  0.46553909  0.84286583  0.05028316  1  -0.177218  0  -0.0969  -0.042681  0  3.504053  0
N  N103  1  0.96552815  0.65713786  0.44971726  1  -0.177055  0  -0.096811  -0.042685  0  3.504133  0
N  N104  1  0.61420966  0.08674041  0.91735014  1  -0.082329  0  -0.076413  -0.033381  0  3.203418  0
N  N105  1  0.11421189  0.41326152  0.58265302  1  -0.082378  0  -0.076363  -0.033237  0  3.20333  0
N  N106  1  0.38579286  0.91326333  0.08265020  1  -0.082536  0  -0.07632  -0.033308  0  3.203384  0
N  N107  1  0.88578048  0.58674153  0.41735302  1  -0.082388  0  -0.07639  -0.033363  0  3.203474  0
N  N108  1  0.70948043  0.10390068  0.86252826  1  -0.745241  0  -0.239592  -0.26909  0  3.506636  0
N  N109  1  0.20948229  0.39609881  0.63747170  1  -0.745224  0  -0.239619  -0.269227  0  3.506717  0
N  N110  1  0.29052661  0.89610240  0.13747129  1  -0.745131  0  -0.239557  -0.268981  0  3.506722  0
N  N111  1  0.79051121  0.60389967  0.36253065  1  -0.745148  0  -0.239569  -0.269019  0  3.506599  0
N  N112  1  0.04707831  0.04124090  0.88123802  1  -0.757398  0  -0.242919  -0.27969  0  3.485547  0
N  N113  1  0.54707997  0.45875436  0.61876328  1  -0.757245  0  -0.242894  -0.279613  0  3.486055  0
N  N114  1  0.95292421  0.95876020  0.11876509  1  -0.757479  0  -0.24291  -0.279652  0  3.48561  0
N  N115  1  0.45291127  0.54124217  0.38123495  1  -0.757367  0  -0.242992  -0.279775  0  3.485785  0
N  N116  1  0.14969955  0.97587288  0.86989851  1  -0.115093  0  -0.094438  -0.075772  0  3.218089  0
N  N117  1  0.64969712  0.52412521  0.63010291  1  -0.115262  0  -0.094524  -0.075895  0  3.218354  0
N  N118  1  0.85030297  0.02412692  0.13010127  1  -0.115283  0  -0.094472  -0.075829  0  3.218148  0
N  N119  1  0.35028509  0.47587526  0.36989411  1  -0.115086  0  -0.094354  -0.075656  0  3.217915  0
N  N120  1  0.25432346  0.00155315  0.92627406  1  -0.142596  0  -0.073624  -0.036989  0  3.344519  0
N  N121  1  0.75432221  0.49844576  0.57372627  1  -0.142501  0  -0.073594  -0.036918  0  3.344398  0
N  N122  1  0.74567793  0.99844534  0.07372593  1  -0.142559  0  -0.073637  -0.036982  0  3.344525  0
N  N123  1  0.24566452  0.50155601  0.42627113  1  -0.142568  0  -0.073617  -0.03694  0  3.344283  0
N  N124  1  0.22305072  0.08309375  0.97562770  1  -0.740539  0  -0.230535  -0.271549  0  3.43895  0
N  N125  1  0.72305141  0.41690380  0.52437344  1  -0.740729  0  -0.23053  -0.271565  0  3.438901  0
N  N126  1  0.77694729  0.91690408  0.02437445  1  -0.740745  0  -0.230477  -0.271458  0  3.438934  0
N  N127  1  0.27694208  0.58309469  0.47562713  1  -0.740686  0  -0.230529  -0.27153  0  3.438818  0
N  N128  1  0.01526936  0.80269335  0.60902941  1  -0.722036  0  -0.213303  -0.235729  0  3.34644  0
N  N129  1  0.51527362  0.69730909  0.89097404  1  -0.722003  0  -0.213316  -0.235828  0  3.346559  0
N  N130  1  0.98472978  0.19730972  0.39097368  1  -0.722037  0  -0.213222  -0.235618  0  3.346359  0
N  N131  1  0.48473228  0.30269136  0.10903006  1  -0.722086  0  -0.21336  -0.235837  0  3.346486  0
N  N132  1  0.01624661  0.86467045  0.57057002  1  -0.176103  0  -0.096074  -0.049804  0  3.494674  0
N  N133  1  0.51624803  0.63533200  0.92943166  1  -0.176273  0  -0.096168  -0.049943  0  3.494881  0
N  N134  1  0.98375140  0.13533066  0.42943014  1  -0.176202  0  -0.096151  -0.049933  0  3.494881  0
N  N135  1  0.48375900  0.36466911  0.07057027  1  -0.176062  0  -0.096031  -0.049749  0  3.49463  0
N  N136  1  0.95514855  0.92970996  0.69646422  1  -0.714972  0  -0.231098  -0.251135  0  3.472137  0
N  N137  1  0.45514182  0.57029261  0.80353752  1  -0.714821  0  -0.231026  -0.251173  0  3.472108  0
N  N138  1  0.04484833  0.07029050  0.30353575  1  -0.714903  0  -0.231061  -0.251178  0  3.472145  0
N  N139  1  0.54485394  0.42970784  0.19646480  1  -0.714873  0  -0.231114  -0.251234  0  3.47211  0
N  N140  1  0.98065014  0.94054110  0.62232355  1  -0.135218  0  -0.071506  -0.023675  0  3.315985  0
N  N141  1  0.48064412  0.55946347  0.87767816  1  -0.135105  0  -0.071499  -0.023532  0  3.315908  0
N  N142  1  0.01934787  0.05946132  0.37767641  1  -0.135137  0  -0.071477  -0.023577  0  3.316063  0
N  N143  1  0.51935615  0.44053894  0.12232297  1  -0.135155  0  -0.071543  -0.023685  0  3.315855  0
O  O144  1  0.85281081  0.10004968  0.71649341  1  -1.18785  0  -0.321256  -0.583308  0  2.321501  0
O  O145  1  0.35279396  0.39994482  0.78350727  1  -1.18787  0  -0.321218  -0.583224  0  2.321574  0
O  O146  1  0.14720187  0.89995209  0.28350576  1  -1.187939  0  -0.321267  -0.583278  0  2.321744  0
O  O147  1  0.64720857  0.60004320  0.21648908  1  -1.187113  0  -0.321315  -0.58335  0  2.321723  0
O  O148  1  0.85584485  0.22378048  0.68084682  1  -1.173993  0  -0.317507  -0.535964  0  2.263755  0
O  O149  1  0.35585633  0.27621208  0.81914739  1  -1.173929  0  -0.317538  -0.535984  0  2.263372  0
O  O150  1  0.14415768  0.77622325  0.31915351  1  -1.174031  0  -0.317426  -0.535776  0  2.263525  0
O  O151  1  0.64415070  0.72377792  0.18084658  1  -1.174221  0  -0.317479  -0.535898  0  2.263742  0
O  O152  1  0.25982384  0.26265397  0.98095414  1  -1.175292  0  -0.313108  -0.577467  0  2.43415  0
O  O153  1  0.75981771  0.23734363  0.51904993  1  -1.175203  0  -0.313059  -0.577454  0  2.434272  0
O  O154  1  0.74019110  0.73734712  0.01905310  1  -1.175221  0  -0.313026  -0.57737  0  2.434289  0
O  O155  1  0.24017804  0.76265420  0.48095282  1  -1.175229  0  -0.313081  -0.577451  0  2.434247  0
O  O156  1  0.05323983  0.32865903  0.94945861  1  -1.164643  0  -0.31085  -0.532491  0  2.101251  0
O  O157  1  0.55323425  0.17133362  0.55054428  1  -1.164439  0  -0.310976  -0.532669  0  2.100942  0
O  O158  1  0.94677962  0.67133616  0.05054632  1  -1.163977  0  -0.310919  -0.532611  0  2.100795  0
O  O159  1  0.44676376  0.82866484  0.44946632  1  -1.16464  0  -0.310828  -0.532509  0  2.101141  0
O  O160  1  0.78203051  0.78432695  0.85206045  1  -1.175281  0  -0.313819  -0.531217  0  2.255916  0
O  O161  1  0.28203676  0.71566942  0.64793853  1  -1.175279  0  -0.313877  -0.531217  0  2.256294  0
O  O162  1  0.21796750  0.21566826  0.14793918  1  -1.175589  0  -0.313817  -0.53119  0  2.256373  0
O  O163  1  0.71795787  0.28432513  0.35206385  1  -1.175681  0  -0.313847  -0.531262  0  2.255728  0
O  O164  1  0.76848780  0.91120706  0.82166030  1  -1.192766  0  -0.313922  -0.560748  0  2.337449  0
O  O165  1  0.26849193  0.58878995  0.67833593  1  -1.192786  0  -0.313898  -0.560649  0  2.337443  0
O  O166  1  0.23151134  0.08879013  0.17833577  1  -1.192823  0  -0.313918  -0.560632  0  2.33741  0
O  O167  1  0.73149931  0.41120396  0.32166331  1  -1.192541  0  -0.313953  -0.560783  0  2.337702  0
O  O168  1  0.60107707  0.41917261  0.91993295  1  -1.244364  0  -0.572303  -0.735236  0  2.163774  0
O  O169  1  0.10107936  0.08082997  0.58006569  1  -1.244309  0  -0.572274  -0.735185  0  2.163858  0
O  O170  1  0.39892320  0.58082851  0.08006721  1  -1.244471  0  -0.572234  -0.735181  0  2.163892  0
O  O171  1  0.89892430  0.91916918  0.41993154  1  -1.244238  0  -0.572233  -0.735246  0  2.163864  0
O  O172  1  0.49983165  0.10794063  0.11148505  1  -1.267906  0  -0.578267  -0.749554  0  2.247702  0
O  O173  1  0.99982820  0.39206310  0.38851590  1  -1.267993  0  -0.578349  -0.749661  0  2.247624  0
O  O174  1  0.50016749  0.89206310  0.88851588  1  -1.267879  0  -0.578367  -0.749666  0  2.247612  0
O  O175  1  0.00016868  0.60793997  0.61148424  1  -1.26804  0  -0.578329  -0.749619  0  2.247693  0
O  O176  1  0.27059025  0.44262866  0.95266580  1  -1.268094  0  -0.561862  -0.752106  0  2.131502  0
O  O177  1  0.77059407  0.05736571  0.54732963  1  -1.268424  0  -0.561884  -0.752182  0  2.131479  0
O  O178  1  0.72942017  0.55737443  0.04733080  1  -1.268361  0  -0.56184  -0.752033  0  2.131491  0
O  O179  1  0.22940845  0.94263084  0.45266330  1  -1.268102  0  -0.561951  -0.752223  0  2.131505  0
