# generated using pymatgen
data_MnH18C27N4O5
_symmetry_space_group_name_H-M   'P 1'
_cell_length_a   10.16360119
_cell_length_b   11.35083032
_cell_length_c   11.90800000
_cell_angle_alpha   116.84692232
_cell_angle_beta   105.90559064
_cell_angle_gamma   100.44192792
_symmetry_Int_Tables_number   1
_chemical_formula_structural   MnH18C27N4O5
_chemical_formula_sum   'Mn2 H36 C54 N8 O10'
_cell_volume   1101.79050146
_cell_formula_units_Z   2
loop_
 _symmetry_equiv_pos_site_id
 _symmetry_equiv_pos_as_xyz
  1  'x, y, z'
loop_
 _atom_site_type_symbol
 _atom_site_label
 _atom_site_symmetry_multiplicity
 _atom_site_fract_x
 _atom_site_fract_y
 _atom_site_fract_z
 _atom_site_occupancy
 _atom_site_hle17_ddec_charge
 _atom_site_hle17_ddec_spin_density
 _atom_site_hle17_ddec_sum_bond_order
 _atom_site_hle17_magmom
 _atom_site_hse06_10hf_ddec_charge
 _atom_site_hse06_10hf_ddec_spin_density
 _atom_site_hse06_10hf_ddec_sum_bond_order
 _atom_site_hse06_10hf_magmom
 _atom_site_hse06_ddec_charge
 _atom_site_hse06_ddec_spin_density
 _atom_site_hse06_ddec_sum_bond_order
 _atom_site_hse06_magmom
 _atom_site_pbe_bader_charge
 _atom_site_pbe_bader_spin_density
 _atom_site_pbe_cm5_charge
 _atom_site_pbe_ddec_charge
 _atom_site_pbe_ddec_spin_density
 _atom_site_pbe_ddec_sum_bond_order
 _atom_site_pbe_magmom
Mn  Mn0  1  0.61554152  0.15833936  0.22192279  1  1.154776  -4.794272  1.784977  -4.675  0.995802  -4.709776  2.278787  -4.526  1.05179  -4.760508  2.208906  -4.594  1.515144  -4.524682  0.604784  0.953781  -4.651311  2.331972  -4.45
Mn  Mn1  1  0.38446511  0.84167252  0.77808018  1  1.154732  4.794268  1.785021  4.675  0.99573  4.709794  2.278826  4.526  1.051743  4.760528  2.208903  4.594  1.515234  4.524686  0.6048  0.953751  4.651343  2.332045  4.45
H  H2  1  0.94128568  0.35163014  0.29879719  1  0.074701  -1.7e-05  0.942027  0.0  0.082912  -0.000355  1.007557  -0.001  0.085592  -0.000208  1.00524  0.0  0.084018  -0.00146  0.11513  0.080164  -0.000643  1.010693  -0.001
H  H3  1  0.05871877  0.64837858  0.70120475  1  0.074606  9e-06  0.942108  0.0  0.082864  0.000356  1.007594  0.001  0.085542  0.000208  1.005279  0.0  0.083688  0.00146  0.115101  0.080125  0.000643  1.010735  0.001
H  H4  1  0.06807677  0.59791269  0.35643575  1  0.105874  -0.000322  0.975076  0.0  0.114726  -0.000226  1.037144  0.0  0.118474  -0.000266  1.034683  0.0  0.098291  -9.9e-05  0.105534  0.111916  -0.000205  1.039095  0.0
H  H5  1  0.93192023  0.40208969  0.64355920  1  0.105858  0.000325  0.975042  0.0  0.114728  0.000227  1.037096  0.0  0.118475  0.000265  1.034638  0.0  0.098367  9.7e-05  0.105523  0.111922  0.000204  1.039055  0.0
H  H6  1  0.93110116  0.76183202  0.38625525  1  0.103028  4.9e-05  0.959081  0.0  0.114441  -1e-06  1.020344  0.0  0.116869  0.0  1.018968  0.0  0.125246  4.9e-05  0.109079  0.112659  -1.5e-05  1.021493  0.0
H  H7  1  0.06890061  0.23817775  0.61375240  1  0.102932  -3.5e-05  0.959096  0.0  0.114305  1e-06  1.020423  0.0  0.11673  -1e-06  1.019048  0.0  0.125401  -5e-05  0.10906  0.112532  1.4e-05  1.021568  0.0
H  H8  1  0.52679645  0.94985024  0.40154658  1  0.088366  0.000278  0.942983  0.0  0.096667  0.000343  1.009657  0.0  0.099081  0.000345  1.006723  0.0  0.161368  -6.5e-05  0.137387  0.09483  0.000311  1.011789  0.0
H  H9  1  0.47319529  0.05014897  0.59845081  1  0.088423  -0.000279  0.942987  0.0  0.096724  -0.000342  1.009662  0.0  0.09913  -0.000345  1.006744  0.0  0.161287  6.6e-05  0.137384  0.094917  -0.00031  1.011741  0.0
H  H10  1  0.24733400  0.53030650  0.37353172  1  0.108204  -8.9e-05  0.947194  0.0  0.12205  -0.000143  1.003648  0.0  0.12485  -0.000162  1.001399  0.0  0.101463  0.000115  0.111806  0.119905  -0.000173  1.005459  0.0
H  H11  1  0.75265594  0.46969060  0.62647189  1  0.108164  8.5e-05  0.947308  0.0  0.122053  0.000144  1.003706  0.0  0.124858  0.000163  1.001454  0.0  0.101457  -0.000117  0.111788  0.119916  0.000172  1.005519  0.0
H  H12  1  0.15155465  0.27692380  0.30837442  1  0.101935  -0.000257  0.951409  0.0  0.112106  -0.000357  1.01194  0.0  0.114664  -0.000267  1.012101  0.0  0.075646  -0.0008  0.105651  0.10967  -0.000406  1.012967  0.0
H  H13  1  0.84844971  0.72306801  0.69161854  1  0.10197  0.000257  0.951248  0.0  0.112138  0.000357  1.011778  0.0  0.114698  0.000267  1.011938  0.0  0.075606  0.0008  0.105705  0.109707  0.000406  1.012822  0.0
H  H14  1  0.30684787  0.12853796  0.25109304  1  0.088599  0.000114  0.948526  0.0  0.093883  -0.000125  1.016066  -0.001  0.096221  -2.3e-05  1.0148  0.0  0.142074  -0.001028  0.117852  0.092145  -0.000243  1.017133  -0.001
H  H15  1  0.69314846  0.87145702  0.74889857  1  0.08848  -0.00013  0.94845  0.0  0.093716  0.000126  1.01606  0.001  0.096055  2.3e-05  1.014788  0.0  0.14203  0.001031  0.11782  0.091987  0.000245  1.017124  0.001
H  H16  1  0.54335350  0.37457225  0.05485425  1  0.091419  0.000213  0.968232  0.0  0.100283  0.000225  1.032117  0.0  0.1032  0.000237  1.030884  0.0  0.06625  -8.5e-05  0.101581  0.098281  0.00018  1.032792  0.0
H  H17  1  0.45665529  0.62543435  0.94514527  1  0.091522  -0.000203  0.96828  0.0  0.10036  -0.000225  1.032172  0.0  0.103278  -0.000238  1.03094  0.0  0.066122  8.6e-05  0.101615  0.098359  -0.000179  1.032842  0.0
H  H18  1  0.64388675  0.60015862  0.06883955  1  0.087037  3.9e-05  0.963874  0.0  0.098928  6.4e-05  1.021954  0.0  0.101747  4.8e-05  1.020876  0.0  0.054295  8.8e-05  0.097714  0.097037  7.1e-05  1.022688  0.0
H  H19  1  0.35613164  0.39984904  0.93116855  1  0.087141  -4.5e-05  0.963834  0.0  0.099077  -6.4e-05  1.021853  0.0  0.10189  -4.8e-05  1.020784  0.0  0.054237  -8.8e-05  0.097803  0.097189  -7.1e-05  1.022584  0.0
H  H20  1  0.82570531  0.62215736  0.96752108  1  0.085332  -1e-05  0.963859  0.0  0.097065  -1.8e-05  1.02308  0.0  0.098826  -1.4e-05  1.023869  0.0  0.059626  1e-06  0.095704  0.095775  -1.6e-05  1.022588  0.0
H  H21  1  0.17431590  0.37785241  0.03249027  1  0.085434  1.4e-05  0.963788  0.0  0.097149  1.8e-05  1.023007  0.0  0.098913  1.4e-05  1.023792  0.0  0.059084  -2e-06  0.095732  0.095853  1.5e-05  1.022514  0.0
H  H22  1  0.91185326  0.42372819  0.86613208  1  0.084572  -3e-05  0.969696  0.0  0.096014  -3.1e-05  1.03272  0.0  0.098067  -2.5e-05  1.033079  0.0  0.049842  -7.5e-05  0.097376  0.094535  -4.4e-05  1.0326  0.0
H  H23  1  0.08815768  0.57627313  0.13387071  1  0.084627  3.1e-05  0.96961  0.0  0.096085  3e-05  1.032606  0.0  0.098126  2.4e-05  1.032988  0.0  0.049961  7.4e-05  0.097405  0.094605  4.3e-05  1.032482  0.0
H  H24  1  0.79620701  0.17518492  0.65911140  1  0.093735  -1.8e-05  0.972248  0.0  0.102782  -0.000241  1.038439  0.0  0.106344  -0.000143  1.036527  0.0  0.072684  -0.00056  0.100075  0.10017  -0.000352  1.039911  0.0
H  H25  1  0.20378883  0.82481429  0.34088778  1  0.093785  2.8e-05  0.972227  0.0  0.1028  0.000241  1.038453  0.0  0.106363  0.000144  1.036539  0.0  0.07271  0.00056  0.100072  0.100185  0.000351  1.039925  0.0
H  H26  1  0.95409235  0.03985423  0.58501548  1  0.088578  -5.4e-05  0.99216  0.0  0.092216  -2.7e-05  1.069891  0.0  0.096558  -1.9e-05  1.06514  0.0  0.083087  -4.8e-05  0.096497  0.089085  -5e-05  1.073282  0.0
H  H27  1  0.04590168  0.96014287  0.41497818  1  0.088627  2.4e-05  0.992116  0.0  0.092217  2.8e-05  1.069902  0.0  0.096559  2e-05  1.065149  0.0  0.083189  4.8e-05  0.096507  0.08908  5e-05  1.073302  0.0
H  H28  1  0.08591535  0.03997043  0.95968671  1  0.095986  -0.000159  0.96646  0.0  0.104537  -0.000138  1.032402  0.0  0.107412  -0.000154  1.030965  0.0  0.0744  0.000121  0.10271  0.10254  -0.000139  1.033373  0.0
H  H29  1  0.91408686  0.96002666  0.04030802  1  0.095943  0.000149  0.966508  0.0  0.104522  0.000138  1.032411  0.0  0.107397  0.000154  1.030973  0.0  0.074341  -0.000119  0.10272  0.102519  0.00014  1.033391  0.0
H  H30  1  0.92151990  0.16964826  0.03184995  1  0.096387  0.00011  0.952479  0.0  0.105223  0.000116  1.017857  0.0  0.108487  0.000123  1.016261  0.0  0.072529  -3.1e-05  0.100973  0.102608  0.000102  1.019724  0.0
H  H31  1  0.07848490  0.83035306  0.96814888  1  0.096379  -0.000107  0.952564  0.0  0.105215  -0.000117  1.017936  0.0  0.108481  -0.000123  1.016343  0.0  0.072673  3.2e-05  0.100963  0.102596  -0.000101  1.019816  0.0
H  H32  1  0.74353581  0.88722715  0.37425773  1  0.317  2e-06  0.925753  0.0  0.296092  -2.5e-05  0.988885  0.0  0.304667  -1.1e-05  0.98215  0.0  0.556243  -7e-05  0.311995  0.290037  -5e-05  0.993741  0.0
H  H33  1  0.25645656  0.11277100  0.62574103  1  0.316937  3e-06  0.925794  0.0  0.296058  2.5e-05  0.988872  0.0  0.304632  1e-05  0.982137  0.0  0.556879  7e-05  0.312013  0.290009  5e-05  0.993731  0.0
H  H34  1  0.64957708  0.21583040  0.49903717  1  0.383878  -0.000239  0.938865  -0.001  0.344713  -0.000857  1.019083  -0.002  0.355786  -0.000576  1.003212  -0.002  0.619271  -0.001756  0.276694  0.337102  -0.001116  1.029846  -0.002
H  H35  1  0.35040809  0.78415930  0.50095543  1  0.383764  0.000242  0.939055  0.001  0.344577  0.000858  1.019269  0.002  0.355649  0.000577  1.003397  0.002  0.619278  0.001757  0.276604  0.336964  0.001117  1.030036  0.002
H  H36  1  0.75545755  0.14431020  0.42996462  1  0.400904  -0.000283  0.918349  0.0  0.369528  -0.001006  0.983984  -0.001  0.380872  -0.000744  0.967596  -0.001  0.629855  -0.000696  0.280778  0.361547  -0.00124  0.995465  -0.001
H  H37  1  0.24453019  0.85568372  0.57003713  1  0.400912  0.000285  0.918355  0.0  0.369501  0.001007  0.984049  0.001  0.380846  0.000745  0.967662  0.001  0.62984  0.000697  0.280738  0.361515  0.001241  0.995534  0.001
C  C38  1  0.88685872  0.42886764  0.31637869  1  0.137883  -0.00168  3.700189  -0.002  0.104903  -0.004043  3.959291  -0.003  0.111661  -0.003159  3.976852  -0.003  0.540134  -0.006278  0.058112  0.100372  -0.005263  3.94884  -0.004
C  C39  1  0.11315177  0.57114636  0.68363282  1  0.138057  0.001701  3.70028  0.002  0.105014  0.004036  3.959412  0.003  0.111771  0.00315  3.976977  0.003  0.540628  0.00626  0.058203  0.100497  0.005251  3.948958  0.004
C  C40  1  0.95564435  0.56415713  0.34523195  1  -0.103921  8.8e-05  3.72425  0.0  -0.11688  -0.000164  3.978556  0.0  -0.122588  0.000189  3.998536  0.0  -0.030214  -0.000559  -0.079757  -0.11287  -0.000426  3.965818  0.0
C  C41  1  0.04435869  0.43585053  0.65476836  1  -0.103959  -9.2e-05  3.724118  0.0  -0.116931  0.000166  3.978438  0.0  -0.12264  -0.000184  3.998422  0.0  -0.029702  0.000562  -0.07971  -0.112901  0.000428  3.965681  0.0
C  C42  1  0.87999961  0.65630273  0.36367351  1  -0.037042  -0.001356  3.684924  -0.001  -0.065083  -0.002866  3.935717  -0.002  -0.062541  -0.002267  3.953377  -0.002  -0.065888  -0.00559  -0.068926  -0.067781  -0.004347  3.924102  -0.003
C  C43  1  0.11999934  0.34370493  0.63632837  1  -0.036838  0.001301  3.685022  0.001  -0.064875  0.002859  3.935831  0.002  -0.062331  0.00226  3.95349  0.002  -0.066386  0.005576  -0.068925  -0.067555  0.004335  3.924194  0.003
C  C44  1  0.73675809  0.61279226  0.35457623  1  -0.029685  0.000211  3.815151  0.0  -0.01765  -0.000188  4.055437  0.0  -0.020216  0.000107  4.077984  0.0  0.086499  -0.00068  0.003446  -0.015289  -0.000419  4.039832  0.0
C  C45  1  0.26324071  0.38721223  0.64542761  1  -0.029896  -0.000164  3.815343  0.0  -0.017834  0.000189  4.055497  0.0  -0.020401  -0.000103  4.078041  0.0  0.08665  0.00068  0.003434  -0.015466  0.000419  4.039876  0.0
C  C46  1  0.64517927  0.69511322  0.36940722  1  0.099892  4.1e-05  3.785968  0.0  0.082319  4.3e-05  4.040661  0.0  0.084412  7.7e-05  4.064469  0.0  0.358382  -0.000192  0.092306  0.080597  -8.6e-05  4.024429  0.0
C  C47  1  0.35481607  0.30489021  0.63060039  1  0.100078  -9.2e-05  3.78585  0.0  0.082448  -4.1e-05  4.040619  0.0  0.084546  -8.1e-05  4.064421  0.0  0.358427  0.00019  0.092304  0.080735  8.4e-05  4.02439  0.0
C  C48  1  0.54311743  0.85587705  0.39624604  1  0.255866  0.000157  3.65462  0.0  0.194843  0.000236  3.936064  0.0  0.208596  0.000217  3.948569  0.0  0.99306  0.00011  0.160082  0.185668  0.000216  3.927802  0.0
C  C49  1  0.45687456  0.14412005  0.60375638  1  0.255662  -0.000105  3.654509  0.0  0.194627  -0.000235  3.935978  0.0  0.208378  -0.000217  3.948482  0.0  0.993218  -0.000109  0.160051  0.185475  -0.000215  3.927718  0.0
C  C50  1  0.51039256  0.65315039  0.37577376  1  0.094953  -0.000232  3.81568  0.0  0.085165  -0.000267  4.071671  0.0  0.086681  -0.000222  4.096259  0.0  0.43425  -0.000387  0.089135  0.08489  -0.000317  4.05489  0.0
C  C51  1  0.48961121  0.34685093  0.62423156  1  0.094871  0.000282  3.81565  0.0  0.085026  0.000267  4.071729  0.0  0.086538  0.000223  4.09632  0.0  0.434466  0.000386  0.08911  0.084758  0.000317  4.054948  0.0
C  C52  1  0.44835309  0.51544700  0.35082514  1  -0.018571  0.000365  3.777288  0.0  -0.007239  -6.3e-05  4.01503  0.0  -0.009964  0.000292  4.038277  0.0  0.077161  -0.000451  0.004157  -0.006605  -0.000347  4.000432  0.0
C  C53  1  0.55164440  0.48455115  0.64917650  1  -0.018654  -0.000373  3.777323  0.0  -0.007249  6.4e-05  4.015077  0.0  -0.00997  -0.000293  4.038322  0.0  0.077186  0.000448  0.004166  -0.006609  0.000345  4.000466  0.0
C  C54  1  0.30998718  0.46134071  0.34721197  1  -0.031557  -0.001981  3.672177  -0.002  -0.060492  -0.003652  3.925743  -0.003  -0.057384  -0.00302  3.942395  -0.002  -0.061645  -0.006221  -0.062622  -0.062603  -0.004943  3.914997  -0.004
C  C55  1  0.69001158  0.53865533  0.65278569  1  -0.031424  0.002009  3.672288  0.002  -0.060387  0.003647  3.925811  0.003  -0.057286  0.003022  3.942468  0.002  -0.061651  0.006216  -0.062586  -0.062481  0.004938  3.915053  0.004
C  C56  1  0.25782529  0.32262844  0.31214252  1  -0.124802  0.000474  3.74883  0.0  -0.140589  0.000159  4.012102  0.0  -0.147206  0.000568  4.033424  0.0  -0.034005  -0.000497  -0.084703  -0.135362  -0.000313  3.99769  0.0
C  C57  1  0.74216962  0.67736549  0.68785502  1  -0.124903  -0.000516  3.748673  0.0  -0.140682  -0.000159  4.011945  0.0  -0.147301  -0.000571  4.033271  0.0  -0.033667  0.000498  -0.084707  -0.135444  0.000313  3.997523  0.0
C  C58  1  0.34429103  0.23900809  0.28123976  1  0.14161  -0.002175  3.676689  -0.002  0.109323  -0.00465  3.934075  -0.004  0.117478  -0.003721  3.949869  -0.003  0.487253  -0.00722  0.058855  0.10377  -0.005891  3.922567  -0.005
C  C59  1  0.65569633  0.76098478  0.71875388  1  0.141697  0.002285  3.676715  0.002  0.109457  0.004646  3.934106  0.004  0.117612  0.003721  3.949904  0.003  0.487291  0.007216  0.058891  0.103921  0.005888  3.922587  0.005
C  C60  1  0.53048759  0.42480256  0.32181351  1  0.12717  -0.001539  3.745298  -0.002  0.119345  -0.003598  3.987734  -0.003  0.123596  -0.002785  4.009192  -0.003  0.459526  -0.005936  0.121864  0.115743  -0.004519  3.97378  -0.004
C  C61  1  0.46951199  0.57520404  0.67819226  1  0.127283  0.001554  3.745356  0.002  0.11928  0.003598  3.987909  0.003  0.123529  0.002788  4.009372  0.003  0.459653  0.005934  0.121892  0.115692  0.004517  3.973941  0.004
C  C62  1  0.67666813  0.47514591  0.32901899  1  0.129266  -0.00126  3.754607  -0.001  0.120132  -0.003182  3.999258  -0.003  0.1245  -0.002402  4.020264  -0.002  0.458933  -0.005449  0.123942  0.117474  -0.004144  3.985328  -0.003
C  C63  1  0.32333198  0.52486492  0.67099628  1  0.129216  0.001226  3.7548  0.001  0.1203  0.003176  3.999164  0.003  0.12467  0.002389  4.02017  0.002  0.458929  0.00544  0.12396  0.117654  0.004137  3.985219  0.003
C  C64  1  0.58793687  0.13858550  0.93893237  1  0.671828  -0.005517  3.87054  -0.006  0.621246  -0.006804  4.163775  -0.008  0.658307  -0.004867  4.154382  -0.006  1.569273  -0.010526  0.222209  0.594982  -0.009193  4.169526  -0.01
C  C65  1  0.41205346  0.86141265  0.06106004  1  0.672268  0.005507  3.871087  0.006  0.621589  0.006804  4.164435  0.008  0.658646  0.004866  4.15504  0.006  1.569162  0.010517  0.222439  0.595331  0.009181  4.170172  0.009
C  C66  1  0.67075567  0.27329080  0.95496844  1  -0.10449  0.000892  3.711958  0.001  -0.088358  0.000426  3.948636  0.001  -0.09593  0.000373  3.969856  0.001  0.018215  0.000988  -0.01837  -0.083687  0.000663  3.934651  0.001
C  C67  1  0.32924192  0.72670207  0.04502759  1  -0.104445  -0.000796  3.711571  -0.001  -0.088286  -0.000427  3.948275  -0.001  -0.095847  -0.000376  3.969487  -0.001  0.018142  -0.000983  -0.018374  -0.083621  -0.000659  3.93429  -0.001
C  C68  1  0.62524065  0.38758514  0.01450587  1  -0.079202  0.000165  3.766293  0.0  -0.103997  0.000409  4.020171  0.0  -0.104148  0.000403  4.040928  0.0  -0.049909  -0.000196  -0.090021  -0.103707  3.2e-05  4.005921  0.0
C  C69  1  0.37476604  0.61241301  0.98548869  1  -0.079355  -0.000297  3.7662  0.0  -0.104128  -0.000406  4.020087  0.0  -0.104287  -0.000401  4.040846  0.0  -0.050024  0.000195  -0.09005  -0.103835  -3.3e-05  4.005842  0.0
C  C70  1  0.68047775  0.51292428  0.02072608  1  -0.077848  0.000251  3.785676  0.0  -0.091695  6.9e-05  4.040637  0.0  -0.094154  9.3e-05  4.061198  0.0  -0.057867  0.000574  -0.098686  -0.090132  0.000449  4.026691  0.0
C  C71  1  0.31954049  0.48708020  0.97928230  1  -0.078017  -0.000119  3.785773  0.0  -0.091915  -7.2e-05  4.040746  0.0  -0.094371  -9.1e-05  4.061306  0.0  -0.057466  -0.000575  -0.098799  -0.090359  -0.00045  4.026814  0.0
C  C72  1  0.78172201  0.52517762  0.96430052  1  -0.056231  -0.000292  3.769811  0.0  -0.072298  -0.000205  4.021818  0.0  -0.072369  -0.000115  4.041849  0.0  -0.064491  -0.000786  -0.092683  -0.072041  -0.000631  4.00812  -0.001
C  C73  1  0.21829355  0.47482793  0.03570601  1  -0.05625  0.000178  3.769963  0.0  -0.072298  0.000205  4.021934  0.0  -0.07237  0.000114  4.041963  0.0  -0.063552  0.000782  -0.092655  -0.072036  0.000629  4.008232  0.001
C  C74  1  0.82909467  0.41310491  0.90631269  1  -0.107559  0.000286  3.746203  0.0  -0.127015  0.000149  3.996324  0.0  -0.129851  0.000134  4.016672  0.0  -0.032477  0.000584  -0.090528  -0.125455  0.000451  3.982476  0.0
C  C75  1  0.17092166  0.58690275  0.09369409  1  -0.107668  -0.000187  3.74644  0.0  -0.127127  -0.000148  3.996528  0.0  -0.129958  -0.000136  4.016896  0.0  -0.033073  -0.000585  -0.090611  -0.125567  -0.000452  3.982669  0.0
C  C76  1  0.77804713  0.28750483  0.90314353  1  0.034879  -0.000869  3.74255  -0.001  0.042859  -0.000881  3.974852  -0.001  0.043459  -0.000651  3.998141  -0.001  0.007652  -0.001495  -0.003188  0.042997  -0.001277  3.958982  -0.001
C  C77  1  0.22195445  0.71249332  0.09685571  1  0.034879  0.000776  3.742826  0.001  0.04285  0.00088  3.975124  0.001  0.043445  0.000657  3.998414  0.001  0.007844  0.001494  -0.003221  0.042989  0.001277  3.959254  0.001
C  C78  1  0.84961386  0.18387814  0.85121421  1  0.081873  0.000741  3.760563  0.001  0.092874  0.000785  3.996083  0.001  0.095904  0.000589  4.017701  0.001  -0.044883  0.002935  0.002969  0.090439  0.002036  3.98185  0.002
C  C79  1  0.15038835  0.81611896  0.14878388  1  0.081764  -0.000607  3.760481  -0.001  0.092783  -0.000793  3.995985  -0.001  0.095815  -0.000586  4.017601  -0.001  -0.044888  -0.002935  0.002967  0.090351  -0.002036  3.981742  -0.002
C  C80  1  0.85851052  0.14392672  0.72422347  1  -0.11938  -0.000745  3.727619  -0.001  -0.135879  -0.000494  3.975787  -0.001  -0.140372  -0.000538  3.996075  -0.001  -0.048204  -0.000705  -0.094873  -0.132664  -0.000553  3.962063  -0.001
C  C81  1  0.14148633  0.85607248  0.27577679  1  -0.119355  0.000568  3.727682  0.001  -0.135832  0.000499  3.975811  0.001  -0.140326  0.000535  3.996098  0.001  -0.048241  0.000704  -0.094848  -0.132617  0.000552  3.962086  0.001
C  C82  1  0.94778184  0.06922144  0.68343193  1  -0.070486  0.001162  3.773657  0.001  -0.097072  0.001309  4.029047  0.001  -0.095639  0.001059  4.048585  0.001  -0.049674  0.002755  -0.091447  -0.097727  0.002094  4.01528  0.002
C  C83  1  0.05221321  0.93077565  0.31656113  1  -0.07047  -0.000968  3.773795  -0.001  -0.097027  -0.00131  4.029176  -0.001  -0.095594  -0.00105  4.04872  -0.001  -0.049779  -0.002757  -0.091458  -0.097687  -0.002095  4.015407  -0.002
C  C84  1  0.03292196  0.03342490  0.76874959  1  -0.092188  -0.000127  3.781869  0.0  -0.069442  0.000107  4.015636  0.0  -0.078429  -0.000129  4.038981  0.0  -0.015579  0.000907  -0.031452  -0.063627  0.000463  4.000099  0.0
C  C85  1  0.96707831  0.96656691  0.23124158  1  -0.092257  5.6e-05  3.781958  0.0  -0.069485  -0.000112  4.015686  0.0  -0.078475  0.000118  4.039031  0.0  -0.015678  -0.000905  -0.03146  -0.063663  -0.000462  4.00014  0.0
C  C86  1  0.01945954  0.06723222  0.89294281  1  -0.072689  0.000977  3.748577  0.001  -0.09432  0.001325  3.99498  0.001  -0.093001  0.001045  4.014756  0.001  -0.042515  0.002404  -0.08671  -0.095356  0.001673  3.981984  0.001
C  C87  1  0.98054345  0.93276699  0.10705301  1  -0.072594  -0.000911  3.748628  -0.001  -0.094256  -0.001326  3.995014  -0.001  -0.092934  -0.001035  4.014786  -0.001  -0.042525  -0.002403  -0.086706  -0.095296  -0.001672  3.982029  -0.001
C  C88  1  0.92792449  0.14042260  0.93318725  1  -0.123881  -0.000764  3.725157  -0.001  -0.141193  -0.000442  3.97617  0.0  -0.145379  -0.000518  3.995618  0.0  -0.042459  -0.000493  -0.088812  -0.138687  -0.000472  3.963933  -0.001
C  C89  1  0.07207787  0.85957766  0.06680804  1  -0.123856  0.000671  3.725156  0.001  -0.141179  0.00045  3.976167  0.0  -0.145366  0.000512  3.995614  0.0  -0.042747  0.000494  -0.088817  -0.138681  0.000473  3.963955  0.001
C  C90  1  0.13890732  0.96562143  0.72672646  1  0.662402  0.003545  3.874615  0.004  0.611887  0.007429  4.164574  0.007  0.647112  0.005379  4.156619  0.005  1.540218  0.010852  0.2204  0.58703  0.010156  4.169712  0.009
C  C91  1  0.86108960  0.03436405  0.27326035  1  0.662389  -0.003562  3.87451  -0.004  0.611879  -0.007427  4.164464  -0.007  0.647103  -0.005384  4.156511  -0.005  1.540096  -0.010853  0.220446  0.587017  -0.010157  4.169605  -0.009
N  N92  1  0.75211786  0.38597094  0.30898646  1  -0.336229  -0.026503  3.250734  -0.017  -0.275119  -0.031071  3.52023  -0.018  -0.292164  -0.027722  3.536081  -0.015  -1.2188  -0.048362  -0.307115  -0.263737  -0.034423  3.510342  -0.021
N  N93  1  0.24788825  0.61403671  0.69103053  1  -0.336297  0.026506  3.251176  0.017  -0.275198  0.031071  3.520548  0.018  -0.292247  0.02773  3.536403  0.015  -1.21941  0.048364  -0.307154  -0.263816  0.034421  3.510665  0.021
N  N94  1  0.47654781  0.28897430  0.28667198  1  -0.327705  -0.028098  3.218699  -0.018  -0.26476  -0.032527  3.484316  -0.019  -0.282007  -0.028792  3.498545  -0.016  -1.226391  -0.051326  -0.304412  -0.251187  -0.036055  3.474089  -0.022
N  N95  1  0.52344978  0.71101857  0.71332070  1  -0.32761  0.028026  3.219126  0.018  -0.264673  0.032528  3.484828  0.019  -0.281921  0.028785  3.499062  0.016  -1.226685  0.051322  -0.30441  -0.251098  0.036051  3.474599  0.022
N  N96  1  0.66238600  0.82390049  0.38126961  1  -0.326745  3.2e-05  3.395636  0.0  -0.263441  4e-06  3.631814  0.0  -0.281428  3.9e-05  3.647451  0.0  -1.293965  -0.000127  -0.373195  -0.251506  -4.9e-05  3.621585  0.0
N  N97  1  0.33760486  0.17610188  0.61872978  1  -0.32663  -4.2e-05  3.395502  0.0  -0.263328  -5e-06  3.631682  0.0  -0.281311  -3.9e-05  3.647317  0.0  -1.294637  0.000127  -0.373118  -0.251392  4.9e-05  3.621463  0.0
N  N98  1  0.44989791  0.75690597  0.39599334  1  -0.41218  0.000105  3.068685  0.0  -0.359792  0.000434  3.333262  0.001  -0.376348  0.000282  3.348812  0.001  -1.199692  0.001225  -0.327655  -0.348865  0.000605  3.322452  0.001
N  N99  1  0.55009548  0.24309218  0.60401154  1  -0.412136  -0.000154  3.068791  0.0  -0.359726  -0.000436  3.333397  -0.001  -0.37628  -0.000281  3.348953  -0.001  -1.199773  -0.001225  -0.327628  -0.348795  -0.000605  3.322588  -0.001
O  O100  1  0.54536084  0.14868903  0.03279550  1  -0.653374  -0.028262  2.076865  -0.015  -0.592518  -0.033521  2.348404  -0.016  -0.622664  -0.029898  2.333297  -0.012  -1.209695  -0.053316  -0.310493  -0.569402  -0.037585  2.358161  -0.019
O  O101  1  0.45462432  0.85130067  0.96719962  1  -0.653571  0.028276  2.077248  0.015  -0.592659  0.033528  2.34882  0.016  -0.622806  0.029906  2.333708  0.012  -1.209499  0.053333  -0.310597  -0.569563  0.037604  2.358599  0.02
O  O102  1  0.55367317  0.02238116  0.82651420  1  -0.640611  0.025513  2.007602  0.013  -0.579694  0.026815  2.271105  0.009  -0.609865  0.025564  2.257319  0.008  -1.193836  0.040767  -0.309177  -0.556693  0.027459  2.280639  0.009
O  O103  1  0.44631867  0.97761277  0.17347254  1  -0.640856  -0.025505  2.008028  -0.012  -0.579956  -0.026821  2.271597  -0.009  -0.610119  -0.025571  2.257808  -0.008  -1.193753  -0.040748  -0.309334  -0.556935  -0.027459  2.281107  -0.009
O  O104  1  0.70792106  0.21714774  0.44403148  1  -0.851149  -0.02795  1.948034  -0.018  -0.796968  -0.037435  2.166966  -0.025  -0.82027  -0.033524  2.132032  -0.021  -1.292953  -0.054291  -0.583144  -0.778938  -0.041309  2.190665  -0.028
O  O105  1  0.29207671  0.78285675  0.55597884  1  -0.85106  0.027948  1.94812  0.018  -0.796843  0.037436  2.167207  0.025  -0.820147  0.033525  2.132278  0.021  -1.292955  0.054298  -0.583047  -0.77882  0.041311  2.190899  0.028
O  O106  1  0.19515438  0.90740146  0.78721819  1  -0.630846  0.027528  1.978467  0.015  -0.568895  0.034072  2.235217  0.017  -0.597091  0.030855  2.220551  0.014  -1.192759  0.052712  -0.308118  -0.547362  0.03695  2.244964  0.019
O  O107  1  0.80483707  0.09259140  0.21277640  1  -0.630798  -0.027517  1.978311  -0.015  -0.568825  -0.03407  2.235039  -0.017  -0.597021  -0.030852  2.220374  -0.014  -1.192736  -0.052696  -0.308105  -0.547293  -0.036947  2.244791  -0.019
O  O108  1  0.16630008  0.97033831  0.62935647  1  -0.659505  0.000829  2.023718  0.001  -0.59437  0.002713  2.245194  0.003  -0.620105  0.001848  2.234925  0.002  -1.204219  0.006077  -0.32076  -0.576484  0.003939  2.252206  0.004
O  O109  1  0.83369595  0.02965034  0.37063149  1  -0.659559  -0.000843  2.023636  -0.001  -0.594478  -0.002714  2.245145  -0.003  -0.620211  -0.00185  2.234874  -0.002  -1.204018  -0.006077  -0.320844  -0.576604  -0.003939  2.252175  -0.004
