# generated using pymatgen
data_SnH12C14Br2(NO2)2
_symmetry_space_group_name_H-M   'P 1'
_cell_length_a   7.51548415
_cell_length_b   8.17557789
_cell_length_c   15.02630042
_cell_angle_alpha   73.92827345
_cell_angle_beta   74.85589980
_cell_angle_gamma   86.67857737
_symmetry_Int_Tables_number   1
_chemical_formula_structural   SnH12C14Br2(NO2)2
_chemical_formula_sum   'Sn2 H24 C28 Br4 N4 O8'
_cell_volume   856.26905950
_cell_formula_units_Z   2
loop_
 _symmetry_equiv_pos_site_id
 _symmetry_equiv_pos_as_xyz
  1  'x, y, z'
loop_
 _atom_site_type_symbol
 _atom_site_label
 _atom_site_symmetry_multiplicity
 _atom_site_fract_x
 _atom_site_fract_y
 _atom_site_fract_z
 _atom_site_occupancy
 _atom_site_hle17_bader_spin_density
 _atom_site_hle17_ddec_charge
 _atom_site_hle17_ddec_spin_density
 _atom_site_hle17_ddec_sum_bond_order
 _atom_site_hle17_magmom
 _atom_site_hse06_10hf_bader_spin_density
 _atom_site_hse06_10hf_ddec_charge
 _atom_site_hse06_10hf_ddec_spin_density
 _atom_site_hse06_10hf_ddec_sum_bond_order
 _atom_site_hse06_10hf_magmom
 _atom_site_hse06_bader_spin_density
 _atom_site_hse06_ddec_charge
 _atom_site_hse06_ddec_spin_density
 _atom_site_hse06_ddec_sum_bond_order
 _atom_site_hse06_magmom
 _atom_site_pbe_bader_spin_density
 _atom_site_pbe_cm5_charge
 _atom_site_pbe_ddec_charge
 _atom_site_pbe_ddec_spin_density
 _atom_site_pbe_ddec_sum_bond_order
 _atom_site_pbe_magmom
Sn  Sn0  1  0.28153886  0.23466821  0.40557177  1  0  1.430167  0  2.831091  0  0  1.273979  0  3.329542  0  0  1.327826  0  3.303882  0  0  0.60104  1.237184  0  3.345886  0
Sn  Sn1  1  0.71845336  0.76532904  0.59443021  1  0  1.430158  0  2.831144  0  0  1.273927  0  3.32968  0  0  1.327808  0  3.303962  0  0  0.601031  1.237137  0  3.346023  0
H  H2  1  0.30340596  0.65295457  0.40175278  1  0  0.108566  0  0.924437  0  0  0.115422  0  0.988566  0  0  0.119119  0  0.984519  0  0  0.128792  0.112677  0  0.991534  0
H  H3  1  0.69660224  0.34706680  0.59823974  1  0  0.108654  0  0.924455  0  0  0.115636  0  0.988446  0  0  0.119248  0  0.984513  0  0  0.12888  0.112942  0  0.99137  0
H  H4  1  0.34492818  0.44702301  0.17336488  1  0  0.106122  0  0.938707  0  0  0.110617  0  1.007946  0  0  0.114738  0  1.003168  0  0  0.11814  0.107617  0  1.01143  0
H  H5  1  0.65507932  0.55297794  0.82663406  1  0  0.106152  0  0.93866  0  0  0.110659  0  1.007895  0  0  0.114779  0  1.003121  0  0  0.118175  0.107659  0  1.011377  0
H  H6  1  0.36019517  0.99582382  0.11990127  1  0  0.113644  0  0.96253  0  0  0.119188  0  1.033242  0  0  0.123541  0  1.028631  0  0  0.103002  0.116001  0  1.036573  0
H  H7  1  0.63983474  0.00417706  0.88008700  1  0  0.113577  0  0.962793  0  0  0.119142  0  1.033459  0  0  0.123493  0  1.028853  0  0  0.102957  0.115954  0  1.036792  0
H  H8  1  0.13377638  0.93499481  0.74181534  1  0  0.087295  0  0.931405  0  0  0.09451  0  0.996978  0  0  0.097754  0  0.993702  0  0  0.114513  0.092145  0  0.999389  0
H  H9  1  0.86621320  0.06499998  0.25818332  1  0  0.087341  0  0.931496  0  0  0.094557  0  0.997052  0  0  0.097809  0  0.993751  0  0  0.114539  0.09219  0  0.999464  0
H  H10  1  0.08499988  0.14070163  0.97103156  1  0  0.090289  0  0.949437  0  0  0.089895  0  1.026068  0  0  0.094496  0  1.02102  0  0  0.106213  0.086543  0  1.029691  0
H  H11  1  0.91498330  0.85927273  0.02897819  1  0  0.090319  0  0.949445  0  0  0.089925  0  1.026063  0  0  0.094526  0  1.021013  0  0  0.106277  0.086578  0  1.029679  0
H  H12  1  0.20086442  0.47677813  0.68333943  1  0  0.117178  0  0.974564  0  0  0.128925  0  1.037251  0  0  0.131762  0  1.035094  0  0  0.112421  0.126808  0  1.038868  0
H  H13  1  0.79912163  0.52321265  0.31667489  1  0  0.117132  0  0.97463  0  0  0.128846  0  1.037354  0  0  0.131684  0  1.035195  0  0  0.112364  0.126725  0  1.038971  0
H  H14  1  0.95196454  0.38063971  0.42530976  1  0  0.173544  0  0.988901  0  0  0.18634  0  1.052322  0  0  0.190298  0  1.051687  0  0  0.091264  0.183519  0  1.0529  0
H  H15  1  0.04802657  0.61936647  0.57469038  1  0  0.173428  0  0.989044  0  0  0.186231  0  1.052461  0  0  0.190187  0  1.05183  0  0  0.091236  0.183408  0  1.053042  0
H  H16  1  0.92625939  0.15627480  0.44003223  1  0  0.18745  0  0.985801  0  0  0.200159  0  1.04556  0  0  0.204624  0  1.044537  0  0  0.096818  0.19694  0  1.046594  0
H  H17  1  0.07373716  0.84373006  0.55996812  1  0  0.187396  0  0.985776  0  0  0.200098  0  1.045561  0  0  0.204565  0  1.044534  0  0  0.096809  0.196878  0  1.046595  0
H  H18  1  0.00420419  0.29783550  0.32194639  1  0  0.155466  0  0.984882  0  0  0.171318  0  1.046584  0  0  0.174177  0  1.047376  0  0  0.08631  0.169303  0  1.046125  0
H  H19  1  0.99579784  0.70216930  0.67805397  1  0  0.155437  0  0.984912  0  0  0.171295  0  1.046604  0  0  0.174153  0  1.047398  0  0  0.086324  0.169276  0  1.046154  0
H  H20  1  0.63555000  0.29475012  0.31378839  1  0  0.145761  0  1.015424  0  0  0.157905  0  1.086038  0  0  0.160969  0  1.086648  0  0  0.079084  0.155721  0  1.085746  0
H  H21  1  0.36444568  0.70523552  0.68622287  1  0  0.145739  0  1.015357  0  0  0.157919  0  1.085967  0  0  0.160986  0  1.086573  0  0  0.07911  0.155736  0  1.085674  0
H  H22  1  0.61723914  0.13650859  0.42596394  1  0  0.186597  0  0.990146  0  0  0.199037  0  1.049454  0  0  0.203597  0  1.04845  0  0  0.09609  0.195775  0  1.050417  0
H  H23  1  0.38274432  0.86348732  0.57404927  1  0  0.186499  0  0.990256  0  0  0.198986  0  1.049506  0  0  0.203545  0  1.048506  0  0  0.09611  0.195726  0  1.050464  0
H  H24  1  0.58669222  0.35741647  0.42387357  1  0  0.170098  0  0.971371  0  0  0.186499  0  1.028927  0  0  0.190164  0  1.028483  0  0  0.092944  0.183867  0  1.02944  0
H  H25  1  0.41329691  0.64258070  0.57613611  1  0  0.170105  0  0.971353  0  0  0.186471  0  1.028965  0  0  0.190161  0  1.028493  0  0  0.092997  0.183839  0  1.029478  0
C  C26  1  0.32553882  0.99323419  0.30464745  1  0  0.630282  0  3.907989  0  0  0.583098  0  4.192029  0  0  0.617391  0  4.186561  0  0  0.218748  0.560067  0  4.195  0
C  C27  1  0.67446124  0.00678098  0.69534030  1  0  0.630156  0  3.908219  0  0  0.582881  0  4.192371  0  0  0.617177  0  4.1869  0  0  0.218633  0.559838  0  4.19536  0
C  C28  1  0.33282060  0.84304224  0.26515252  1  0  -0.092519  0  3.737712  0  0  -0.067044  0  3.979  0  0  -0.079824  0  4.002635  0  0  -0.007611  -0.059208  0  3.963436  0
C  C29  1  0.66718603  0.15696646  0.73483873  1  0  -0.092541  0  3.737959  0  0  -0.067049  0  3.979238  0  0  -0.079819  0  4.002843  0  0  -0.007617  -0.05921  0  3.963696  0
C  C30  1  0.31902375  0.67672600  0.32499960  1  0  0.124396  0  3.636293  0  0  0.077276  0  3.894467  0  0  0.087408  0  3.909332  0  0  0.061395  0.070884  0  3.884304  0
C  C31  1  0.68098429  0.32328396  0.67499129  1  0  0.124406  0  3.636287  0  0  0.077186  0  3.894453  0  0  0.087368  0  3.909355  0  0  0.061275  0.070742  0  3.884273  0
C  C32  1  0.34196172  0.56169895  0.19741757  1  0  0.075045  0  3.699967  0  0  0.031964  0  3.959499  0  0  0.040276  0  3.974972  0  0  0.045864  0.026359  0  3.949704  0
C  C33  1  0.65804600  0.43830460  0.80257763  1  0  0.075052  0  3.700049  0  0  0.031962  0  3.959622  0  0  0.040275  0  3.975078  0  0  0.045805  0.026359  0  3.949824  0
C  C34  1  0.35646919  0.72411024  0.13367544  1  0  0.033425  0  3.724662  0  0  0.053464  0  3.998765  0  0  0.05033  0  4.022037  0  0  -0.01488  0.054996  0  3.983126  0
C  C35  1  0.64355522  0.27589321  0.86631444  1  0  0.033386  0  3.724992  0  0  0.053335  0  3.999196  0  0  0.050221  0  4.022443  0  0  -0.014909  0.054861  0  3.983563  0
C  C36  1  0.35095818  0.86724662  0.16735041  1  0  -0.053086  0  3.682287  0  0  -0.0919  0  3.930185  0  0  -0.087432  0  3.948295  0  0  -0.066304  -0.094301  0  3.917907  0
C  C37  1  0.64905510  0.13275311  0.83264135  1  0  -0.053031  0  3.68287  0  0  -0.091793  0  3.930665  0  0  -0.087327  0  3.948765  0  0  -0.06616  -0.094192  0  3.918388  0
C  C38  1  0.20557800  0.23340447  0.59449791  1  0  0.629516  0  3.900022  0  0  0.579044  0  4.186453  0  0  0.613846  0  4.180075  0  0  0.220474  0.555682  0  4.190002  0
C  C39  1  0.79441567  0.76659911  0.40550496  1  0  0.629649  0  3.899915  0  0  0.579201  0  4.186335  0  0  0.614  0  4.179961  0  0  0.220504  0.555839  0  4.18989  0
C  C40  1  0.17197992  0.20893592  0.69969256  1  0  -0.099069  0  3.752052  0  0  -0.074886  0  3.993156  0  0  -0.087359  0  4.016728  0  0  -0.012959  -0.067105  0  3.977478  0
C  C41  1  0.82801489  0.79105748  0.30031101  1  0  -0.098949  0  3.752017  0  0  -0.07486  0  3.993199  0  0  -0.087333  0  4.016773  0  0  -0.012876  -0.06708  0  3.977523  0
C  C42  1  0.13751714  0.04844867  0.76624999  1  0  0.11906  0  3.68194  0  0  0.079765  0  3.946434  0  0  0.088818  0  3.960626  0  0  0.049801  0.073974  0  3.936687  0
C  C43  1  0.86246798  0.95154227  0.23375443  1  0  0.118906  0  3.682036  0  0  0.079641  0  3.946544  0  0  0.088697  0  3.960736  0  0  0.04973  0.073852  0  3.936797  0
C  C44  1  0.11172110  0.16223620  0.89351735  1  0  0.070061  0  3.721791  0  0  0.037395  0  3.984248  0  0  0.04346  0  4.000749  0  0  0.035327  0.033673  0  3.973013  0
C  C45  1  0.88827447  0.83774184  0.10649304  1  0  0.069676  0  3.722066  0  0  0.037043  0  3.984502  0  0  0.043105  0  4.001011  0  0  0.035069  0.033321  0  3.973264  0
C  C46  1  0.14550201  0.32651105  0.83154039  1  0  0.033658  0  3.724966  0  0  0.054054  0  3.993206  0  0  0.051241  0  4.017114  0  0  -0.020849  0.055409  0  3.977125  0
C  C47  1  0.85449231  0.67346956  0.16846844  1  0  0.034195  0  3.724758  0  0  0.054546  0  3.992978  0  0  0.051736  0  4.016887  0  0  -0.020624  0.055898  0  3.976897  0
C  C48  1  0.17524324  0.35121903  0.73363256  1  0  -0.069941  0  3.703073  0  0  -0.109407  0  3.949764  0  0  -0.105646  0  3.969596  0  0  -0.074089  -0.11131  0  3.93616  0
C  C49  1  0.82474820  0.64876410  0.26638024  1  0  -0.070089  0  3.702963  0  0  -0.10948  0  3.949672  0  0  -0.105708  0  3.969478  0  0  -0.074106  -0.111387  0  3.936086  0
C  C50  1  0.00507122  0.27226541  0.39731538  1  0  -0.692142  0  3.476381  0  0  -0.743494  0  3.720944  0  0  -0.759789  0  3.726451  0  0  -0.324593  -0.73213  0  3.717243  0
C  C51  1  0.99492259  0.72774073  0.60268577  1  0  -0.691983  0  3.476402  0  0  -0.74334  0  3.720996  0  0  -0.759635  0  3.726503  0  0  -0.324611  -0.731986  0  3.717313  0
C  C52  1  0.56716997  0.25888632  0.39046129  1  0  -0.689573  0  3.48319  0  0  -0.739917  0  3.726552  0  0  -0.756337  0  3.732142  0  0  -0.324402  -0.728483  0  3.722871  0
C  C53  1  0.43281913  0.74111084  0.60954907  1  0  -0.689449  0  3.483168  0  0  -0.739832  0  3.726484  0  0  -0.756282  0  3.732048  0  0  -0.32448  -0.728402  0  3.722795  0
Br  Br54  1  0.38303409  0.74785690  0.00177375  1  0  -0.024899  0  1.332664  0  0  -0.021845  0  1.598023  0  0  -0.026349  0  1.590916  0  0  0.070775  -0.018467  0  1.602976  0
Br  Br55  1  0.61702376  0.25216027  0.99821009  1  0  -0.024901  0  1.332759  0  0  -0.021803  0  1.59813  0  0  -0.026315  0  1.591018  0  0  0.070781  -0.018425  0  1.603091  0
Br  Br56  1  0.14750106  0.51669397  0.88077126  1  0  -0.060684  0  1.334778  0  0  -0.052098  0  1.597133  0  0  -0.055968  0  1.589964  0  0  0.050025  -0.049335  0  1.602303  0
Br  Br57  1  0.85249902  0.48329173  0.11923347  1  0  -0.060762  0  1.334716  0  0  -0.052175  0  1.597089  0  0  -0.056049  0  1.589916  0  0  0.050031  -0.049411  0  1.602258  0
N  N58  1  0.32328181  0.54013317  0.29138877  1  0  -0.305307  0  3.204399  0  0  -0.229223  0  3.458716  0  0  -0.248271  0  3.479566  0  0  -0.284001  -0.216405  0  3.444164  0
N  N59  1  0.67672608  0.45987674  0.70860547  1  0  -0.305415  0  3.204322  0  0  -0.229323  0  3.45868  0  0  -0.248377  0  3.479524  0  0  -0.283996  -0.216506  0  3.44415  0
N  N60  1  0.10710923  0.02558915  0.86091450  1  0  -0.299364  0  3.078924  0  0  -0.262551  0  3.357178  0  0  -0.275016  0  3.371308  0  0  -0.321239  -0.254  0  3.347266  0
N  N61  1  0.89287726  0.97439799  0.13908832  1  0  -0.299291  0  3.079037  0  0  -0.262485  0  3.357268  0  0  -0.274952  0  3.3714  0  0  -0.321198  -0.253933  0  3.347354  0
O  O62  1  0.29381603  0.96309226  0.39627789  1  0  -0.591034  0  1.973532  0  0  -0.521948  0  2.197069  0  0  -0.549319  0  2.191534  0  0  -0.274902  -0.50314  0  2.200176  0
O  O63  1  0.70617585  0.03692301  0.60370883  1  0  -0.59095  0  1.973661  0  0  -0.521825  0  2.197235  0  0  -0.549198  0  2.191693  0  0  -0.274795  -0.503017  0  2.200354  0
O  O64  1  0.34813650  0.14280881  0.24935884  1  0  -0.60853  0  1.908218  0  0  -0.55215  0  2.123505  0  0  -0.577555  0  2.116398  0  0  -0.298617  -0.534633  0  2.1278  0
O  O65  1  0.65187196  0.85721012  0.75062669  1  0  -0.608451  0  1.908366  0  0  -0.552044  0  2.123709  0  0  -0.577445  0  2.116585  0  0  -0.298594  -0.534521  0  2.128008  0
O  O66  1  0.22894269  0.38184225  0.53722693  1  0  -0.607978  0  1.932817  0  0  -0.545451  0  2.149843  0  0  -0.571359  0  2.143166  0  0  -0.285723  -0.527604  0  2.1538  0
O  O67  1  0.77105366  0.61816633  0.46277954  1  0  -0.608041  0  1.932827  0  0  -0.545501  0  2.149862  0  0  -0.571409  0  2.143173  0  0  -0.285724  -0.527658  0  2.153831  0
O  O68  1  0.21171107  0.10050003  0.56369439  1  0  -0.593434  0  2.013362  0  0  -0.517887  0  2.235796  0  0  -0.545567  0  2.23022  0  0  -0.268872  -0.498953  0  2.239061  0
O  O69  1  0.78828423  0.89950614  0.43630391  1  0  -0.593569  0  2.013385  0  0  -0.518032  0  2.235827  0  0  -0.545716  0  2.230253  0  0  -0.268945  -0.4991  0  2.239096  0
