# generated using pymatgen
data_CuH4C7N5
_symmetry_space_group_name_H-M   'P 1'
_cell_length_a   25.20426499
_cell_length_b   25.92163520
_cell_length_c   26.96213456
_cell_angle_alpha   92.26312550
_cell_angle_beta   93.49705752
_cell_angle_gamma   94.51342649
_symmetry_Int_Tables_number   1
_chemical_formula_structural   CuH4C7N5
_chemical_formula_sum   'Cu12 H48 C84 N60'
_cell_volume   17510.63013767
_cell_formula_units_Z   12
loop_
 _symmetry_equiv_pos_site_id
 _symmetry_equiv_pos_as_xyz
  1  'x, y, z'
loop_
 _atom_site_type_symbol
 _atom_site_label
 _atom_site_symmetry_multiplicity
 _atom_site_fract_x
 _atom_site_fract_y
 _atom_site_fract_z
 _atom_site_occupancy
 _atom_site_pbe_bader_charge
 _atom_site_pbe_bader_spin_density
 _atom_site_pbe_cm5_charge
 _atom_site_pbe_ddec_charge
 _atom_site_pbe_ddec_spin_density
 _atom_site_pbe_ddec_sum_bond_order
 _atom_site_pbe_magmom
Cu  Cu0  1  0.76543248  0.74684927  0.81318750  1  0.542486  0  0.490338  0.206671  0  2.138371  0
Cu  Cu1  1  0.84282532  0.75151387  0.72946474  1  0.547539  0  0.4917  0.214343  0  2.108387  0
Cu  Cu2  1  0.78486411  0.85349745  0.76183648  1  0.546804  0  0.483618  0.204005  0  2.100587  0
Cu  Cu3  1  0.75247858  0.21274539  0.16657856  1  0.546402  0  0.488244  0.209397  0  2.111438  0
Cu  Cu4  1  0.86681402  0.23051480  0.22668523  1  0.5486  0  0.48748  0.210652  0  2.083991  0
Cu  Cu5  1  0.78170555  0.13625979  0.24767780  1  0.542243  0  0.489036  0.206628  0  2.124275  0
Cu  Cu6  1  0.16408307  0.80831201  0.12764343  1  0.543483  0  0.489352  0.209186  0  2.12494  0
Cu  Cu7  1  0.12692029  0.78963387  0.23544324  1  0.547457  0  0.486127  0.209208  0  2.088391  0
Cu  Cu8  1  0.21631511  0.88120956  0.21362050  1  0.548165  0  0.49191  0.20935  0  2.122366  0
Cu  Cu9  1  0.26007883  0.24381321  0.90611717  1  0.549506  0  0.49093  0.216612  0  2.079603  0
Cu  Cu10  1  0.16684732  0.22823763  0.82080054  1  0.541635  0  0.484529  0.202218  0  2.119102  0
Cu  Cu11  1  0.27663918  0.18615526  0.80079647  1  0.560029  0  0.49023  0.21133  0  2.104159  0
H  H12  1  0.80262208  0.65067790  0.87154291  1  0.063001  0  0.120662  0.11304  0  0.987203  0
H  H13  1  0.90855275  0.65126994  0.75076886  1  0.101741  0  0.126943  0.121696  0  0.978851  0
H  H14  1  0.69765241  0.91854069  0.81359078  1  0.087562  0  0.118316  0.110907  0  0.993033  0
H  H15  1  0.65922557  0.76482588  0.86546759  1  0.120004  0  0.127138  0.122343  0  0.980384  0
H  H16  1  0.88838621  0.78886781  0.62957364  1  0.122846  0  0.126616  0.122391  0  0.978106  0
H  H17  1  0.84035143  0.93391287  0.69029812  1  0.082382  0  0.117964  0.110054  0  0.993839  0
H  H18  1  0.75989833  0.30577872  0.09514698  1  0.132714  0  0.124306  0.118717  0  0.986708  0
H  H19  1  0.91893337  0.32410930  0.16751413  1  0.103975  0  0.123401  0.117249  0  0.983495  0
H  H20  1  0.69230187  0.04257282  0.22136394  1  0.112569  0  0.125439  0.120157  0  0.981862  0
H  H21  1  0.64864553  0.15299188  0.11253688  1  0.102216  0  0.121554  0.114897  0  0.985723  0
H  H22  1  0.95943851  0.21164281  0.30978984  1  0.127914  0  0.128532  0.124476  0  0.978093  0
H  H23  1  0.83904311  0.08993320  0.33929041  1  0.087681  0  0.119637  0.110912  0  0.990876  0
H  H24  1  0.10597538  0.71277864  0.06809609  1  0.081686  0  0.119742  0.110804  0  0.991141  0
H  H25  1  0.06629486  0.67370756  0.21695793  1  0.118854  0  0.128181  0.123529  0  0.977747  0
H  H26  1  0.31582668  0.93484823  0.15961525  1  0.10537  0  0.122186  0.114834  0  0.985979  0
H  H27  1  0.22613610  0.85038639  0.03570463  1  0.144491  0  0.125  0.118924  0  0.984885  0
H  H28  1  0.08977064  0.83356228  0.33755140  1  0.072424  0  0.120327  0.111846  0  0.989922  0
H  H29  1  0.21368846  0.95251460  0.30992905  1  0.126298  0  0.127464  0.122917  0  0.980059  0
H  H30  1  0.20807229  0.32136430  0.98235902  1  0.12101  0  0.128421  0.123795  0  0.975766  0
H  H31  1  0.08244225  0.29711255  0.86480233  1  0.088029  0  0.119287  0.110156  0  0.991985  0
H  H32  1  0.38066003  0.13193644  0.82758531  1  0.086809  0  0.120995  0.112949  0  0.988081  0
H  H33  1  0.35919221  0.20759455  0.97031180  1  0.114443  0  0.127873  0.123063  0  0.979534  0
H  H34  1  0.09653084  0.17985424  0.72500413  1  0.1022  0  0.119269  0.110953  0  0.99092  0
H  H35  1  0.25429005  0.14309727  0.68720506  1  0.091612  0  0.127877  0.122473  0  0.978094  0
H  H36  1  0.91789203  0.01677320  0.49465200  1  0.076486  0  0.118302  0.150111  0  0.993605  0
H  H37  1  0.08384201  0.07180465  0.47943367  1  0.180711  0  0.12939  0.127161  0  1.003164  0
H  H38  1  0.02254823  0.91254601  0.49824839  1  0.105714  0  0.119596  0.148748  0  1.010216  0
H  H39  1  0.02230774  0.00984793  0.61343022  1  0.066623  0  0.114034  0.137824  0  1.012684  0
H  H40  1  0.00403589  0.47130587  0.89190728  1  0.159775  0  0.120176  0.147254  0  1.018433  0
H  H41  1  0.99596489  0.45825821  0.05185673  1  0.15211  0  0.122748  0.113004  0  1.009025  0
H  H42  1  0.86236159  0.47896173  0.94613991  1  0.132668  0  0.121888  0.154288  0  0.99545  0
H  H43  1  0.97366156  0.59620545  0.97007332  1  0.113409  0  0.11846  0.145774  0  0.99648  0
H  H44  1  0.45631562  0.87526475  0.94680339  1  0.181641  0  0.129679  0.160436  0  0.994867  0
H  H45  1  0.46838592  0.01793826  0.03899530  1  0.109923  0  0.123209  0.117626  0  0.973347  0
H  H46  1  0.52941011  0.99883344  0.89306177  1  0.108408  0  0.119581  0.149428  0  0.989609  0
H  H47  1  0.60050388  0.92814796  0.00512543  1  0.12962  0  0.127071  0.159991  0  0.972978  0
H  H48  1  0.86739100  0.58167125  0.92064039  1  0.111303  0  0.132834  0.142084  0  0.982334  0
H  H49  1  0.94517619  0.39575217  0.08343426  1  0.167622  0  0.135392  0.146989  0  0.989604  0
H  H50  1  0.04455006  0.63153594  0.02925835  1  0.107688  0  0.131678  0.137138  0  0.993279  0
H  H51  1  0.04659512  0.39192902  0.89836889  1  0.142723  0  0.134304  0.143123  0  0.985542  0
H  H52  1  0.62212647  0.95038453  0.89708999  1  0.121295  0  0.129961  0.138382  0  0.989242  0
H  H53  1  0.43838010  0.05808203  0.88265942  1  0.096875  0  0.135326  0.143218  0  0.98312  0
H  H54  1  0.56509180  0.07619901  0.07202665  1  0.138272  0  0.129488  0.137436  0  1.005498  0
H  H55  1  0.40542564  0.94447696  0.08987494  1  0.127459  0  0.134651  0.144966  0  0.980319  0
H  H56  1  0.94287751  0.97447345  0.63119130  1  0.087775  0  0.127649  0.133879  0  1.000662  0
H  H57  1  0.05945345  0.90039164  0.41717510  1  0.093764  0  0.132917  0.142211  0  0.987531  0
H  H58  1  0.05928041  0.09569947  0.64864882  1  0.100216  0  0.128616  0.134646  0  0.99626  0
H  H59  1  0.90638367  0.05667873  0.41426827  1  0.116643  0  0.131505  0.138618  0  0.991976  0
C  C60  1  0.82430996  0.65765302  0.83857961  1  0.44759  0  0.00469  -0.055007  0  3.967926  0
C  C61  1  0.86690282  0.63267721  0.82014953  1  -0.013988  0  -0.035508  -0.045738  0  4.114014  0
C  C62  1  0.87818538  0.65809145  0.77652040  1  0.438432  0  0.015415  -0.029114  0  3.925057  0
C  C63  1  0.69596543  0.87813838  0.82293461  1  0.401634  0  0.003487  -0.058151  0  3.972682  0
C  C64  1  0.65909805  0.84936926  0.84998058  1  0.000205  0  -0.035699  -0.043552  0  4.111175  0
C  C65  1  0.67633309  0.79920526  0.84882871  1  0.479528  0  0.015154  -0.031009  0  3.931096  0
C  C66  1  0.87253981  0.81965600  0.65114024  1  0.39695  0  0.01375  -0.035452  0  3.938464  0
C  C67  1  0.87501288  0.87283844  0.64293093  1  0.01496  0  -0.036004  -0.04161  0  4.111281  0
C  C68  1  0.84879401  0.89412199  0.68230825  1  0.400281  0  0.002212  -0.059868  0  3.974576  0
C  C69  1  0.79626852  0.30319948  0.11823330  1  0.468953  0  0.013492  -0.034473  0  3.937269  0
C  C70  1  0.84523713  0.33286796  0.11740769  1  0.030771  0  -0.035141  -0.043417  0  4.108716  0
C  C71  1  0.87784715  0.31271517  0.15473940  1  0.380028  0  0.007339  -0.051324  0  3.953816  0
C  C72  1  0.68819230  0.07600826  0.19888540  1  0.456046  0  0.013912  -0.033017  0  3.931645  0
C  C73  1  0.65246930  0.08184960  0.15787817  1  0.075793  0  -0.035524  -0.043939  0  4.108852  0
C  C74  1  0.66547796  0.13237807  0.14320563  1  0.343528  0  0.006178  -0.051732  0  3.961499  0
C  C75  1  0.92432479  0.18471703  0.31032187  1  0.435021  0  0.01637  -0.031254  0  3.917877  0
C  C76  1  0.91416235  0.14390750  0.34204529  1  0.036649  0  -0.035197  -0.044029  0  4.110857  0
C  C77  1  0.86296606  0.12239382  0.32569208  1  0.412476  0  0.0048  -0.05487  0  3.971331  0
C  C78  1  0.10005137  0.71130684  0.10757309  1  0.429828  0  0.004296  -0.056747  0  3.974702  0
C  C79  1  0.07497920  0.67191897  0.13421989  1  0.155108  0  -0.033682  -0.040583  0  4.102567  0
C  C80  1  0.08023260  0.69133383  0.18380823  1  0.360835  0  0.015666  -0.032997  0  3.920135  0
C  C81  1  0.28765723  0.91100083  0.13469495  1  0.402552  0  0.007416  -0.051677  0  3.958488  0
C  C82  1  0.28759379  0.90077880  0.08318345  1  0.042047  0  -0.034887  -0.044272  0  4.109489  0
C  C83  1  0.24119597  0.86791331  0.07151313  1  0.419355  0  0.013881  -0.032191  0  3.936142  0
C  C84  1  0.12222586  0.85785902  0.32382273  1  0.448211  0  0.006059  -0.052931  0  3.961379  0
C  C85  1  0.14660976  0.90573606  0.34273965  1  0.023905  0  -0.034722  -0.041551  0  4.109836  0
C  C86  1  0.18576365  0.91842833  0.30947416  1  0.383235  0  0.015762  -0.031029  0  3.926466  0
C  C87  1  0.18259422  0.30955211  0.94933745  1  0.392205  0  0.016481  -0.032519  0  3.921125  0
C  C88  1  0.13180921  0.32455186  0.93484057  1  0.055678  0  -0.034087  -0.041187  0  4.102937  0
C  C89  1  0.11850684  0.29764257  0.88903548  1  0.398612  0  0.004521  -0.05652  0  3.974401  0
C  C90  1  0.36832655  0.15463406  0.85891474  1  0.426879  0  0.004708  -0.055852  0  3.964616  0
C  C91  1  0.38873275  0.15866645  0.90861239  1  0.043704  0  -0.034939  -0.044311  0  4.107331  0
C  C92  1  0.35725666  0.19371114  0.93171119  1  0.430686  0  0.016241  -0.031249  0  3.924797  0
C  C93  1  0.13864040  0.17408172  0.72374866  1  0.385823  0  0.003704  -0.056816  0  3.96933  0
C  C94  1  0.16608976  0.15142141  0.68587491  1  0.05837  0  -0.033919  -0.041176  0  4.106574  0
C  C95  1  0.21957908  0.15597964  0.70440460  1  0.432794  0  0.016001  -0.030824  0  3.928651  0
C  C96  1  0.98847213  0.98232101  0.53496494  1  0.368727  0  0.117269  0.27995  0  3.825247  0
C  C97  1  0.96103251  0.01980903  0.50083243  1  0.113298  0  -0.104657  -0.300803  0  3.829171  0
C  C98  1  0.99649013  0.05190152  0.47983469  1  0.272544  0  0.105304  0.146223  0  3.959757  0
C  C99  1  0.05515973  0.04498736  0.49612748  1  0.05349  0  -0.048592  -0.139784  0  3.791813  0
C  C100  1  0.02701518  0.95442863  0.50305896  1  0.027921  0  -0.099206  -0.290118  0  3.82455  0
C  C101  1  0.06081435  0.98772484  0.48170422  1  0.349404  0  0.104064  0.146104  0  3.957324  0
C  C102  1  0.02379414  0.01563592  0.57384788  1  0.038685  0  -0.102809  -0.296324  0  3.845098  0
C  C103  1  0.05826455  0.04879703  0.55289397  1  0.294825  0  0.106975  0.152475  0  3.963044  0
C  C104  1  0.94787945  0.51454525  0.93819498  1  0.39221  0  0.1167  0.277665  0  3.824936  0
C  C105  1  0.99076799  0.47730834  0.92908854  1  0.008601  0  -0.09418  -0.276269  0  3.821738  0
C  C106  1  0.00736025  0.45621879  0.97118602  1  0.320993  0  0.100271  0.133581  0  3.958731  0
C  C107  1  0.98059595  0.47477062  0.01777640  1  -0.027668  0  -0.049825  -0.134995  0  3.806271  0
C  C108  1  0.90290277  0.48343054  0.96270802  1  0.097332  0  -0.097588  -0.28732  0  3.810032  0
C  C109  1  0.92052627  0.46256796  0.00465484  1  0.260708  0  0.10317  0.141031  0  3.947741  0
C  C110  1  0.97242396  0.55528248  0.97761618  1  0.022553  0  -0.099185  -0.289921  0  3.834194  0
C  C111  1  0.98951056  0.53402801  0.01939475  1  0.301584  0  0.103033  0.143684  0  3.967465  0
C  C112  1  0.52840627  0.93508895  0.95029429  1  0.357155  0  0.119867  0.271139  0  3.807683  0
C  C113  1  0.47365925  0.91190061  0.96364273  1  0.003475  0  -0.078038  -0.24277  0  3.795153  0
C  C114  1  0.45176880  0.94269718  0.99610128  1  0.361269  0  0.096236  0.121716  0  3.956701  0
C  C115  1  0.48675977  0.99262216  0.01281072  1  -0.006123  0  -0.056124  -0.147598  0  3.848813  0
C  C116  1  0.51965059  0.98912300  0.93048111  1  0.08977  0  -0.09352  -0.28049  0  3.808855  0
C  C117  1  0.49655300  0.01854238  0.96340916  1  0.249664  0  0.102334  0.137766  0  3.976504  0
C  C118  1  0.56244185  0.94477284  0.99958149  1  -0.011031  0  -0.083297  -0.257235  0  3.800441  0
C  C119  1  0.54050231  0.97563160  0.03185168  1  0.388242  0  0.094653  0.12998  0  3.989933  0
C  C120  1  0.89535978  0.59253911  0.84299969  1  0.4319  0  0.086438  0.123417  0  4.125913  0
C  C121  1  0.89191859  0.57341964  0.89012221  1  0.376588  0  0.012543  -0.165362  0  3.894341  0
C  C122  1  0.85660961  0.37351561  0.08338112  1  0.400429  0  0.088047  0.12213  0  4.11132  0
C  C123  1  0.90400814  0.39883672  0.07077142  1  0.32055  0  0.016745  -0.169758  0  3.853738  0
C  C124  1  0.04936850  0.62361817  0.11258120  1  0.428326  0  0.090165  0.125417  0  4.115091  0
C  C125  1  0.03772807  0.61085122  0.06264486  1  0.314973  0  0.013387  -0.171584  0  3.885802  0
C  C126  1  0.10018517  0.36140951  0.95878263  1  0.53801  0  0.089794  0.125703  0  4.116408  0
C  C127  1  0.06185388  0.38983639  0.93657039  1  0.246411  0  0.01595  -0.168377  0  3.871698  0
C  C128  1  0.61330480  0.86467899  0.87512820  1  0.454768  0  0.086383  0.123117  0  4.117659  0
C  C129  1  0.60118954  0.91213273  0.89507425  1  0.31255  0  0.009131  -0.17153  0  3.902929  0
C  C130  1  0.42771976  0.12830210  0.93273314  1  0.461443  0  0.08986  0.124927  0  4.111795  0
C  C131  1  0.44623357  0.08205046  0.91651766  1  0.343469  0  0.018994  -0.162697  0  3.862777  0
C  C132  1  0.61664012  0.04174696  0.13220453  1  0.432866  0  0.086213  0.12176  0  4.11255  0
C  C133  1  0.57995975  0.04436928  0.09219758  1  0.307078  0  0.012834  -0.166896  0  3.860897  0
C  C134  1  0.32727862  0.91512672  0.04860088  1  0.426531  0  0.087873  0.122442  0  4.117808  0
C  C135  1  0.38020477  0.93407002  0.05643764  1  0.331792  0  0.014007  -0.172678  0  3.871824  0
C  C136  1  0.90146694  0.89763973  0.60283958  1  0.530554  0  0.085305  0.120646  0  4.121269  0
C  C137  1  0.93249520  0.94425475  0.60264100  1  0.348061  0  0.011364  -0.164462  0  3.902612  0
C  C138  1  0.13281826  0.93761385  0.38444874  1  0.484378  0  0.087637  0.120032  0  4.126666  0
C  C139  1  0.09129433  0.93065116  0.41525693  1  0.346203  0  0.012285  -0.173132  0  3.877666  0
C  C140  1  0.14435096  0.12635386  0.63928313  1  0.493779  0  0.088936  0.124587  0  4.11788  0
C  C141  1  0.09433464  0.10161569  0.62764544  1  0.303239  0  0.010176  -0.178978  0  3.896862  0
C  C142  1  0.94839332  0.12678005  0.38204308  1  0.444166  0  0.089633  0.12384  0  4.121362  0
C  C143  1  0.93936886  0.08575269  0.41250409  1  0.306914  0  0.011547  -0.174965  0  3.879014  0
N  N144  1  0.84469737  0.69564484  0.76971533  1  -0.766886  0  -0.335595  -0.141892  0  3.758512  0
N  N145  1  0.81127380  0.69528698  0.80812646  1  -0.766692  0  -0.341028  -0.140246  0  3.779357  0
N  N146  1  0.72035254  0.79829966  0.82309919  1  -0.781451  0  -0.338042  -0.139036  0  3.772005  0
N  N147  1  0.73258760  0.84714675  0.80681703  1  -0.780677  0  -0.337269  -0.139932  0  3.761122  0
N  N148  1  0.83187167  0.85613766  0.71189555  1  -0.7771  0  -0.337597  -0.142408  0  3.761863  0
N  N149  1  0.84695108  0.80999368  0.69258912  1  -0.776603  0  -0.336032  -0.138045  0  3.760923  0
N  N150  1  0.85012619  0.27378698  0.17617431  1  -0.762951  0  -0.33476  -0.139658  0  3.760576  0
N  N151  1  0.79956328  0.26792503  0.15339654  1  -0.804087  0  -0.336308  -0.140681  0  3.765712  0
N  N152  1  0.70625260  0.15491514  0.17318791  1  -0.772874  0  -0.338467  -0.140796  0  3.763542  0
N  N153  1  0.72024309  0.11995181  0.20772430  1  -0.777803  0  -0.337758  -0.141521  0  3.763905  0
N  N154  1  0.84407125  0.14846089  0.28707391  1  -0.780203  0  -0.339321  -0.139149  0  3.78215  0
N  N155  1  0.88208310  0.18714685  0.27750607  1  -0.764102  0  -0.331109  -0.137403  0  3.750531  0
N  N156  1  0.10655272  0.73891870  0.18621243  1  -0.765475  0  -0.33122  -0.138441  0  3.743587  0
N  N157  1  0.11878910  0.75117927  0.13886055  1  -0.793264  0  -0.339026  -0.138705  0  3.778386  0
N  N158  1  0.21570180  0.85898134  0.11316462  1  -0.786904  0  -0.338752  -0.142734  0  3.764116  0
N  N159  1  0.24441501  0.88572771  0.15233615  1  -0.770491  0  -0.338555  -0.138903  0  3.773132  0
N  N160  1  0.18451616  0.88088115  0.27329974  1  -0.767082  0  -0.337766  -0.141158  0  3.764963  0
N  N161  1  0.14510891  0.84319864  0.28214308  1  -0.784205  0  -0.33515  -0.140048  0  3.762795  0
N  N162  1  0.15843952  0.26883502  0.87706694  1  -0.763119  0  -0.337688  -0.137922  0  3.776484  0
N  N163  1  0.19831900  0.27635276  0.91435633  1  -0.769162  0  -0.332061  -0.138283  0  3.748713  0
N  N164  1  0.32042922  0.20890978  0.89818177  1  -0.775062  0  -0.332253  -0.138672  0  3.748599  0
N  N165  1  0.32739619  0.18479916  0.85294157  1  -0.780794  0  -0.336636  -0.138753  0  3.761752  0
N  N166  1  0.22353751  0.17945180  0.75015000  1  -0.782384  0  -0.335635  -0.140704  0  3.757388  0
N  N167  1  0.17338465  0.19090258  0.76208308  1  -0.781904  0  -0.3388  -0.140319  0  3.773931  0
N  N168  1  0.95584442  0.53649611  0.85084549  1  -0.104595  0  -0.101989  -0.109063  0  3.166144  0
N  N169  1  0.93481000  0.56849195  0.82033714  1  -0.526434  0  -0.214098  -0.228256  0  3.220336  0
N  N170  1  0.92966265  0.53887667  0.89336762  1  -0.814516  0  -0.130639  0.089235  0  3.757767  0
N  N171  1  0.83479197  0.42669326  0.02541813  1  -0.073641  0  -0.097975  -0.1164  0  3.128116  0
N  N172  1  0.81569708  0.39224167  0.05467353  1  -0.536527  0  -0.198233  -0.207148  0  3.242768  0
N  N173  1  0.88925037  0.43145145  0.03457286  1  -0.850295  0  -0.120432  0.144733  0  3.791099  0
N  N174  1  0.01134242  0.54414425  0.10845108  1  -0.075832  0  -0.096471  -0.117709  0  3.105012  0
N  N175  1  0.03250263  0.58148778  0.13904182  1  -0.527072  0  -0.202255  -0.208525  0  3.202904  0
N  N176  1  0.01432703  0.56160440  0.06110359  1  -0.875838  0  -0.12338  0.14331  0  3.811332  0
N  N177  1  0.07013160  0.40842910  0.01888348  1  -0.08965  0  -0.097646  -0.121865  0  3.124502  0
N  N178  1  0.10376591  0.37415625  0.00915795  1  -0.529359  0  -0.204865  -0.212675  0  3.21291  0
N  N179  1  0.04394932  0.41857509  0.97456358  1  -0.86523  0  -0.1241  0.14574  0  3.816272  0
N  N180  1  0.53758676  0.85053515  0.91024451  1  -0.073004  0  -0.093517  -0.09246  0  3.166164  0
N  N181  1  0.57297661  0.82835018  0.88526413  1  -0.543424  0  -0.207602  -0.222143  0  3.224797  0
N  N182  1  0.55384413  0.90178830  0.91601649  1  -0.806106  0  -0.131354  0.079594  0  3.75484  0
N  N183  1  0.47571264  0.10158043  0.99593883  1  -0.116143  0  -0.101891  -0.134028  0  3.145931  0
N  N184  1  0.44744558  0.13876224  0.98127666  1  -0.512793  0  -0.200977  -0.204438  0  3.220472  0
N  N185  1  0.47561058  0.06627331  0.95651709  1  -0.858691  0  -0.125499  0.136724  0  3.814598  0
N  N186  1  0.59041381  0.96109368  0.10872643  1  -0.075254  0  -0.101914  -0.121229  0  3.125388  0
N  N187  1  0.62059593  0.99009543  0.14132005  1  -0.532235  0  -0.204668  -0.212375  0  3.241389  0
N  N188  1  0.56490831  0.99380320  0.07811260  1  -0.867994  0  -0.131292  0.123014  0  3.803594  0
N  N189  1  0.35953966  0.91661840  0.97475604  1  -0.06427  0  -0.098192  -0.116446  0  3.121302  0
N  N190  1  0.31679034  0.90571023  0.99808975  1  -0.550819  0  -0.202286  -0.209951  0  3.249138  0
N  N191  1  0.39937395  0.93409695  0.01013535  1  -0.871699  0  -0.127389  0.135833  0  3.805063  0
N  N192  1  0.93253151  0.90170309  0.52889410  1  -0.110312  0  -0.103072  -0.108908  0  3.173162  0
N  N193  1  0.90258695  0.87312422  0.55679838  1  -0.541653  0  -0.212955  -0.226012  0  3.227569  0
N  N194  1  0.95127895  0.94508238  0.55640866  1  -0.792064  0  -0.128171  0.090919  0  3.749741  0
N  N195  1  0.13714692  0.00779149  0.43351591  1  -0.066488  0  -0.083899  -0.09632  0  3.112499  0
N  N196  1  0.15973489  0.98530825  0.39729532  1  -0.529906  0  -0.199355  -0.209815  0  3.213218  0
N  N197  1  0.09486005  0.97475482  0.44517433  1  -0.859883  0  -0.122345  0.141301  0  3.807887  0
N  N198  1  0.14473618  0.09666051  0.56184852  1  -0.049781  0  -0.081855  -0.090454  0  3.092682  0
N  N199  1  0.17359134  0.12224531  0.59776710  1  -0.534146  0  -0.198973  -0.209388  0  3.205221  0
N  N200  1  0.09561779  0.08360034  0.57951762  1  -0.866766  0  -0.123266  0.138793  0  3.797519  0
N  N201  1  0.02100658  0.12569291  0.43132089  1  -0.068522  0  -0.087703  -0.102183  0  3.108362  0
N  N202  1  0.99884378  0.14994277  0.39518061  1  -0.51832  0  -0.198877  -0.206448  0  3.207545  0
N  N203  1  0.98495914  0.08591622  0.44261508  1  -0.887651  0  -0.123441  0.14014  0  3.809921  0
