# generated using pymatgen
data_PrH16C21N3O14
_symmetry_space_group_name_H-M   'P 1'
_cell_length_a   9.63714084
_cell_length_b   15.21756354
_cell_length_c   23.53978500
_cell_angle_alpha   90.00011942
_cell_angle_beta   89.99958688
_cell_angle_gamma   100.28609569
_symmetry_Int_Tables_number   1
_chemical_formula_structural   PrH16C21N3O14
_chemical_formula_sum   'Pr4 H64 C84 N12 O56'
_cell_volume   3396.71663175
_cell_formula_units_Z   4
loop_
 _symmetry_equiv_pos_site_id
 _symmetry_equiv_pos_as_xyz
  1  'x, y, z'
loop_
 _atom_site_type_symbol
 _atom_site_label
 _atom_site_symmetry_multiplicity
 _atom_site_fract_x
 _atom_site_fract_y
 _atom_site_fract_z
 _atom_site_occupancy
 _atom_site_pbe_bader_charge
 _atom_site_pbe_bader_spin_density
 _atom_site_pbe_cm5_charge
 _atom_site_pbe_ddec_charge
 _atom_site_pbe_ddec_spin_density
 _atom_site_pbe_ddec_sum_bond_order
 _atom_site_pbe_magmom
Pr  Pr0  1  0.51406232  0.59782178  0.26289543  1  2.28016  0  1.482976  2.139431  0  2.157394  0
Pr  Pr1  1  0.98592544  0.40216950  0.76289705  1  2.280328  0  1.483  2.139408  0  2.157555  0
Pr  Pr2  1  0.48593139  0.40217827  0.73710145  1  2.280177  0  1.482977  2.139433  0  2.157346  0
Pr  Pr3  1  0.01407370  0.59782328  0.23710365  1  2.280192  0  1.482973  2.139443  0  2.157567  0
H  H4  1  0.41958703  0.34794169  0.26671829  1  0.135558  0  0.110835  0.109311  0  1.033647  0
H  H5  1  0.08040263  0.65205839  0.76671803  1  0.135341  0  0.110793  0.109324  0  1.033694  0
H  H6  1  0.58042469  0.65206390  0.73327817  1  0.135522  0  0.110898  0.109425  0  1.033508  0
H  H7  1  0.91957721  0.34794016  0.23328012  1  0.135467  0  0.110878  0.10936  0  1.033541  0
H  H8  1  0.44599401  0.19067494  0.24336449  1  0.135055  0  0.11444  0.125823  0  1.006435  0
H  H9  1  0.05399398  0.80932509  0.74336835  1  0.134954  0  0.114446  0.125765  0  1.00643  0
H  H10  1  0.55401374  0.80932727  0.75663536  1  0.135139  0  0.114428  0.12581  0  1.006412  0
H  H11  1  0.94598637  0.19067547  0.25663405  1  0.135064  0  0.114453  0.125794  0  1.006404  0
H  H12  1  0.10749816  0.17412895  0.12204271  1  0.15173  0  0.11819  0.130354  0  1.008906  0
H  H13  1  0.39249870  0.82587301  0.62204475  1  0.151824  0  0.118187  0.13035  0  1.008873  0
H  H14  1  0.89250872  0.82587392  0.87795757  1  0.151848  0  0.118238  0.130502  0  1.008784  0
H  H15  1  0.60750072  0.17412911  0.37796402  1  0.151915  0  0.118226  0.130425  0  1.008778  0
H  H16  1  0.07848793  0.32934740  0.14687953  1  0.105616  0  0.110862  0.114283  0  0.991149  0
H  H17  1  0.42150365  0.67065186  0.64688000  1  0.105682  0  0.110881  0.114342  0  0.991136  0
H  H18  1  0.92152328  0.67065618  0.85311862  1  0.10562  0  0.110826  0.114242  0  0.991088  0
H  H19  1  0.57848882  0.32935150  0.35312750  1  0.105599  0  0.110803  0.114252  0  0.991091  0
H  H20  1  0.58151207  0.83111489  0.23052858  1  0.092906  0  0.110545  0.10829  0  1.037017  0
H  H21  1  0.91848404  0.16887845  0.73052923  1  0.093032  0  0.110508  0.108228  0  1.03714  0
H  H22  1  0.41849151  0.16888727  0.76947127  1  0.092843  0  0.110574  0.108293  0  1.037108  0
H  H23  1  0.08152913  0.83111651  0.26946255  1  0.093206  0  0.110524  0.108294  0  1.037091  0
H  H24  1  0.55458492  0.98826021  0.20805358  1  0.155024  0  0.111355  0.126135  0  1.03624  0
H  H25  1  0.94541556  0.01173647  0.70805225  1  0.155087  0  0.111359  0.126124  0  1.036211  0
H  H26  1  0.44541900  0.01174329  0.79194924  1  0.15501  0  0.111365  0.12615  0  1.036118  0
H  H27  1  0.05459050  0.98825907  0.29193996  1  0.154164  0  0.11137  0.126143  0  1.036209  0
H  H28  1  0.96782716  0.03575669  0.13185708  1  0.11217  0  0.112594  0.120634  0  1.031468  0
H  H29  1  0.53217172  0.96423654  0.63185654  1  0.152445  0  0.112569  0.120571  0  1.031445  0
H  H30  1  0.03217989  0.96424685  0.86814702  1  0.152209  0  0.112578  0.12063  0  1.031407  0
H  H31  1  0.46782081  0.03575884  0.36814374  1  0.152501  0  0.112569  0.120595  0  1.03146  0
H  H32  1  0.99658888  0.88047156  0.15627159  1  0.103137  0  0.112665  0.116987  0  0.997748  0
H  H33  1  0.50340678  0.11952299  0.65627127  1  0.102811  0  0.112645  0.117027  0  0.997774  0
H  H34  1  0.00341420  0.11952860  0.84372868  1  0.103161  0  0.112688  0.117042  0  0.9977  0
H  H35  1  0.49659109  0.88047711  0.34372986  1  0.102828  0  0.112658  0.117027  0  0.997766  0
H  H36  1  0.23299975  0.83481994  0.13030048  1  0.07845  0  0.112701  0.117618  0  0.993833  0
H  H37  1  0.26699620  0.16516670  0.63029562  1  0.078483  0  0.1127  0.117529  0  0.993905  0
H  H38  1  0.76698929  0.16517806  0.86970362  1  0.078646  0  0.112763  0.117712  0  0.993833  0
H  H39  1  0.73300609  0.83482213  0.36969998  1  0.078542  0  0.112735  0.117647  0  0.993846  0
H  H40  1  0.37698479  0.96598580  0.08176933  1  0.147671  0  0.110025  0.117472  0  1.043728  0
H  H41  1  0.12300083  0.03400996  0.58175919  1  0.14786  0  0.109979  0.117475  0  1.043815  0
H  H42  1  0.62300264  0.03401816  0.91823902  1  0.14783  0  0.11006  0.117571  0  1.043845  0
H  H43  1  0.87699830  0.96598282  0.41823131  1  0.147808  0  0.11005  0.117614  0  1.04379  0
H  H44  1  0.70404237  0.81277938  0.04993625  1  0.099071  0  0.116834  0.127535  0  0.985355  0
H  H45  1  0.79595346  0.18723300  0.54994579  1  0.099027  0  0.11678  0.127498  0  0.985272  0
H  H46  1  0.29594915  0.18723662  0.95006275  1  0.098867  0  0.116807  0.127535  0  0.98524  0
H  H47  1  0.20404753  0.81276714  0.45005959  1  0.098978  0  0.116797  0.127542  0  0.985256  0
H  H48  1  0.56439633  0.68365993  0.10356091  1  0.095827  0  0.108024  0.10235  0  1.00752  0
H  H49  1  0.93561342  0.31633738  0.60357530  1  0.095811  0  0.108021  0.102355  0  1.007628  0
H  H50  1  0.43560568  0.31634421  0.89643300  1  0.095699  0  0.108106  0.102434  0  1.007585  0
H  H51  1  0.06439388  0.68365484  0.39643305  1  0.095721  0  0.108105  0.102401  0  1.00757  0
H  H52  1  0.46885498  0.49919090  0.37154892  1  0.620872  0  0.332083  0.41799  0  0.868797  0
H  H53  1  0.03113963  0.50080739  0.87154649  1  0.620924  0  0.332113  0.417994  0  0.868787  0
H  H54  1  0.53115524  0.50080468  0.62844031  1  0.620932  0  0.332082  0.417936  0  0.868865  0
H  H55  1  0.96884594  0.49918923  0.12844784  1  0.620842  0  0.332147  0.417984  0  0.868795  0
H  H56  1  0.52129543  0.60039152  0.38225377  1  0.629451  0  0.317521  0.410841  0  0.895113  0
H  H57  1  0.97869765  0.39960865  0.88225456  1  0.629356  0  0.317548  0.410821  0  0.895166  0
H  H58  1  0.47870109  0.39960323  0.61774353  1  0.629473  0  0.31752  0.410704  0  0.895314  0
H  H59  1  0.02129589  0.60039073  0.11774657  1  0.629549  0  0.31749  0.410746  0  0.895243  0
H  H60  1  0.67135780  0.49881896  0.18335744  1  0.630372  0  0.310202  0.401067  0  0.925036  0
H  H61  1  0.82864465  0.50117970  0.68335881  1  0.630388  0  0.310181  0.400982  0  0.925158  0
H  H62  1  0.32864044  0.50117848  0.81664156  1  0.630371  0  0.310216  0.401095  0  0.925018  0
H  H63  1  0.17135739  0.49882044  0.31664402  1  0.630238  0  0.310193  0.400983  0  0.925142  0
H  H64  1  0.56852289  0.53842562  0.14192479  1  0.617333  0  0.332872  0.418383  0  0.867361  0
H  H65  1  0.93147539  0.46157827  0.64192198  1  0.617655  0  0.332839  0.418353  0  0.867388  0
H  H66  1  0.43148053  0.46157588  0.85807294  1  0.617432  0  0.332825  0.418337  0  0.867425  0
H  H67  1  0.06850931  0.53841901  0.35807575  1  0.617682  0  0.332867  0.418405  0  0.867333  0
C  C68  1  0.22336621  0.43832449  0.22591197  1  1.580727  0  0.241273  0.645404  0  4.135711  0
C  C69  1  0.27663009  0.56167028  0.72591357  1  1.580847  0  0.241236  0.645311  0  4.135962  0
C  C70  1  0.77664604  0.56167911  0.77408618  1  1.58086  0  0.241166  0.645232  0  4.136079  0
C  C71  1  0.72335982  0.43832706  0.27409053  1  1.580825  0  0.241291  0.645445  0  4.135954  0
C  C72  1  0.24719740  0.34766288  0.20843763  1  -0.038355  0  -0.001245  -0.025511  0  3.914265  0
C  C73  1  0.25279066  0.65233910  0.70843772  1  -0.03775  0  -0.001312  -0.025683  0  3.914142  0
C  C74  1  0.75281224  0.65234269  0.79156052  1  -0.038335  0  -0.001383  -0.025677  0  3.914471  0
C  C75  1  0.74720198  0.34766493  0.29156595  1  -0.038674  0  -0.001298  -0.025612  0  3.914021  0
C  C76  1  0.35186213  0.30924578  0.23527585  1  0.014216  0  -0.068495  -0.059287  0  3.913515  0
C  C77  1  0.14812529  0.69075556  0.73527714  1  0.013867  0  -0.068447  -0.05927  0  3.91386  0
C  C78  1  0.64815133  0.69075850  0.76472273  1  0.0143  0  -0.068447  -0.059283  0  3.91363  0
C  C79  1  0.85186026  0.30924506  0.26472526  1  0.014322  0  -0.068522  -0.059297  0  3.913509  0
C  C80  1  0.36679785  0.22224255  0.22261422  1  -0.03713  0  -0.07285  -0.108943  0  3.94498  0
C  C81  1  0.13319519  0.77775551  0.72261738  1  -0.03696  0  -0.072887  -0.108866  0  3.94516  0
C  C82  1  0.63320781  0.77775964  0.77738308  1  -0.037174  0  -0.072876  -0.108948  0  3.944861  0
C  C83  1  0.86679418  0.22224382  0.27738459  1  -0.037074  0  -0.072902  -0.108981  0  3.944952  0
C  C84  1  0.27661689  0.17517220  0.18229875  1  0.221248  0  0.084551  0.076639  0  3.927688  0
C  C85  1  0.22337182  0.82482642  0.68230086  1  0.221553  0  0.084615  0.07668  0  3.927539  0
C  C86  1  0.72338669  0.82482997  0.81770196  1  0.221322  0  0.084603  0.076723  0  3.927618  0
C  C87  1  0.77661756  0.17517291  0.31770324  1  0.221274  0  0.084644  0.076858  0  3.927521  0
C  C88  1  0.17520125  0.21281660  0.15339806  1  0.034903  0  -0.072881  -0.118944  0  3.956155  0
C  C89  1  0.32478797  0.78718198  0.65340067  1  0.034314  0  -0.07297  -0.119038  0  3.956143  0
C  C90  1  0.82480546  0.78718560  0.84660179  1  0.034665  0  -0.073027  -0.119348  0  3.956365  0
C  C91  1  0.67520695  0.21281875  0.34660513  1  0.034602  0  -0.07303  -0.119261  0  3.95621  0
C  C92  1  0.16010708  0.29936591  0.16721135  1  -0.093649  0  -0.072729  -0.068919  0  3.940171  0
C  C93  1  0.33988985  0.70063544  0.66721125  1  -0.0936  0  -0.072711  -0.068894  0  3.940315  0
C  C94  1  0.83990342  0.70063899  0.83278680  1  -0.093669  0  -0.072519  -0.068592  0  3.940045  0
C  C95  1  0.66010833  0.29936999  0.33279370  1  -0.093284  0  -0.072567  -0.068717  0  3.93988  0
C  C96  1  0.80729073  0.75202008  0.20666986  1  1.588327  0  0.239651  0.653022  0  4.154976  0
C  C97  1  0.69270718  0.24797458  0.70667213  1  1.588257  0  0.239544  0.652773  0  4.154865  0
C  C98  1  0.19270976  0.24797805  0.79332956  1  1.588012  0  0.239556  0.652805  0  4.15504  0
C  C99  1  0.30730234  0.75202233  0.29332559  1  1.588396  0  0.239581  0.652749  0  4.154748  0
C  C100  1  0.79062195  0.84631633  0.19452243  1  0.004007  0  -0.00359  -0.027209  0  3.918109  0
C  C101  1  0.70937569  0.15367232  0.69452495  1  0.004098  0  -0.003576  -0.027112  0  3.918053  0
C  C102  1  0.20938374  0.15368187  0.80547572  1  0.00389  0  -0.003651  -0.027248  0  3.918201  0
C  C103  1  0.29062480  0.84632582  0.30547575  1  0.004173  0  -0.003561  -0.027086  0  3.917916  0
C  C104  1  0.66575006  0.87629070  0.20910306  1  -0.001154  0  -0.071355  -0.069103  0  3.92613  0
C  C105  1  0.83425059  0.12370266  0.70910559  1  -0.001186  0  -0.071309  -0.068987  0  3.926397  0
C  C106  1  0.33425839  0.12371019  0.79089722  1  -0.001055  0  -0.071286  -0.068992  0  3.926195  0
C  C107  1  0.16575319  0.87629618  0.29088916  1  -0.001104  0  -0.071334  -0.069058  0  3.926339  0
C  C108  1  0.65023717  0.96351403  0.19700405  1  -0.014738  0  -0.078719  -0.120213  0  3.953339  0
C  C109  1  0.84976367  0.03648330  0.69700472  1  -0.014964  0  -0.078734  -0.120287  0  3.953269  0
C  C110  1  0.34976988  0.03648950  0.80299835  1  -0.013895  0  -0.078807  -0.120311  0  3.953333  0
C  C111  1  0.15023978  0.96351420  0.30299088  1  -0.013138  0  -0.078753  -0.120302  0  3.953677  0
C  C112  1  0.76034306  0.01951551  0.16945967  1  0.18795  0  0.076931  0.067176  0  3.938695  0
C  C113  1  0.73965896  0.98048047  0.66945854  1  0.187246  0  0.077007  0.067316  0  3.93843  0
C  C114  1  0.23966658  0.98049006  0.83054188  1  0.186406  0  0.077015  0.067302  0  3.938628  0
C  C115  1  0.26033809  0.01951229  0.33053791  1  0.186396  0  0.076938  0.067269  0  3.938576  0
C  C116  1  0.88460980  0.99097139  0.15382024  1  0.014411  0  -0.078425  -0.115797  0  3.953664  0
C  C117  1  0.61539354  0.00902458  0.65382029  1  -0.025569  0  -0.078311  -0.115617  0  3.953622  0
C  C118  1  0.11539795  0.00903082  0.84618259  1  -0.025374  0  -0.078356  -0.115716  0  3.953688  0
C  C119  1  0.38460574  0.99097287  0.34618084  1  -0.026002  0  -0.078338  -0.115639  0  3.953735  0
C  C120  1  0.89993383  0.90424044  0.16727185  1  -0.05296  0  -0.072664  -0.06974  0  3.928539  0
C  C121  1  0.60005990  0.09575543  0.66727206  1  -0.05269  0  -0.072754  -0.07  0  3.928801  0
C  C122  1  0.10007046  0.09576040  0.83272927  1  -0.05287  0  -0.072721  -0.069859  0  3.928671  0
C  C123  1  0.39993797  0.90424466  0.33272906  1  -0.05269  0  -0.072705  -0.06991  0  3.92875  0
C  C124  1  0.31039012  0.67648376  0.15453837  1  1.615818  0  0.233929  0.643119  0  4.176558  0
C  C125  1  0.18961927  0.32350441  0.65454373  1  1.615331  0  0.233875  0.642692  0  4.177234  0
C  C126  1  0.68961020  0.32351371  0.84545935  1  1.614924  0  0.233923  0.643161  0  4.176683  0
C  C127  1  0.81038302  0.67648442  0.34545952  1  1.615196  0  0.233855  0.642942  0  4.176848  0
C  C128  1  0.38976913  0.75121063  0.11956942  1  0.007043  0  -0.005245  -0.029715  0  3.934403  0
C  C129  1  0.11023252  0.24878139  0.61957151  1  0.007346  0  -0.005345  -0.029494  0  3.93422  0
C  C130  1  0.61022078  0.24878671  0.88042958  1  0.007161  0  -0.005181  -0.029611  0  3.934394  0
C  C131  1  0.88977165  0.75121079  0.38042961  1  0.007158  0  -0.005145  -0.029511  0  3.934341  0
C  C132  1  0.33607623  0.83029895  0.11274239  1  0.03282  0  -0.069541  -0.066329  0  3.910457  0
C  C133  1  0.16392641  0.16969241  0.61274124  1  0.032607  0  -0.06946  -0.066183  0  3.91055  0
C  C134  1  0.66392060  0.16970114  0.88725831  1  0.032755  0  -0.069595  -0.066389  0  3.910516  0
C  C135  1  0.83607813  0.83029712  0.38725776  1  0.032495  0  -0.069585  -0.066397  0  3.910504  0
C  C136  1  0.41599906  0.90351246  0.08566646  1  0.011646  0  -0.070981  -0.105841  0  3.952307  0
C  C137  1  0.08399254  0.09648672  0.58566332  1  0.011397  0  -0.07091  -0.105925  0  3.952499  0
C  C138  1  0.58399026  0.09649486  0.91433636  1  0.011689  0  -0.071034  -0.106091  0  3.952516  0
C  C139  1  0.91600606  0.90350806  0.41433356  1  0.011621  0  -0.07099  -0.106023  0  3.95233  0
C  C140  1  0.54746061  0.89500554  0.06388357  1  0.13794  0  0.082007  0.074613  0  3.940234  0
C  C141  1  0.95252704  0.10500010  0.56388276  1  0.138131  0  0.081915  0.074583  0  3.940009  0
C  C142  1  0.45252609  0.10500374  0.93612011  1  0.137794  0  0.081925  0.074733  0  3.940073  0
C  C143  1  0.04747016  0.89499733  0.43611539  1  0.13817  0  0.081884  0.074534  0  3.940095  0
C  C144  1  0.60099666  0.81594530  0.06785841  1  0.062427  0  -0.07769  -0.12151  0  3.970509  0
C  C145  1  0.89900184  0.18406247  0.56786466  1  0.062735  0  -0.077541  -0.121265  0  3.97016  0
C  C146  1  0.39900130  0.18406745  0.93214187  1  0.063159  0  -0.077616  -0.12144  0  3.970281  0
C  C147  1  0.10100039  0.81593435  0.43213817  1  0.06278  0  -0.07764  -0.12144  0  3.970327  0
C  C148  1  0.52224404  0.74462515  0.09696324  1  -0.067337  0  -0.077235  -0.078079  0  3.972309  0
C  C149  1  0.97775781  0.25537738  0.59697106  1  -0.067625  0  -0.077312  -0.078333  0  3.972359  0
C  C150  1  0.47775237  0.25538558  0.90303491  1  -0.067727  0  -0.077375  -0.07829  0  3.972369  0
C  C151  1  0.02224600  0.74461746  0.40303389  1  -0.067744  0  -0.077316  -0.07819  0  3.972283  0
N  N152  1  0.28413981  0.08114806  0.17122295  1  0.377411  0  0.061362  0.516677  0  4.177269  0
N  N153  1  0.21585253  0.91885591  0.67122564  1  0.37756  0  0.061186  0.516467  0  4.177426  0
N  N154  1  0.71586499  0.91885478  0.82877690  1  0.377815  0  0.061395  0.516744  0  4.177352  0
N  N155  1  0.78413769  0.08114676  0.32877634  1  0.377924  0  0.06134  0.516564  0  4.177529  0
N  N156  1  0.74695942  0.11296427  0.15811300  1  0.38769  0  0.0542  0.514321  0  4.213243  0
N  N157  1  0.75304645  0.88702974  0.65811001  1  0.388171  0  0.05418  0.514327  0  4.213318  0
N  N158  1  0.25305007  0.88703663  0.84189025  1  0.388416  0  0.054048  0.513869  0  4.213523  0
N  N159  1  0.24694920  0.11296567  0.34188856  1  0.388392  0  0.053997  0.513788  0  4.213317  0
N  N160  1  0.63580552  0.97313765  0.03759778  1  0.373554  0  0.055985  0.509761  0  4.210265  0
N  N161  1  0.86418330  0.02686663  0.53759542  1  0.374143  0  0.056076  0.509703  0  4.210687  0
N  N162  1  0.36418606  0.02687036  0.96240675  1  0.373244  0  0.056019  0.509743  0  4.21073  0
N  N163  1  0.13580729  0.97313338  0.46240230  1  0.374087  0  0.05602  0.509758  0  4.210349  0
O  O164  1  0.30341329  0.47955570  0.26487656  1  -1.223702  0  -0.396538  -0.703725  0  2.31431  0
O  O165  1  0.19658076  0.52044110  0.76487833  1  -1.223939  0  -0.39648  -0.703619  0  2.314286  0
O  O166  1  0.69659012  0.52044579  0.73512117  1  -1.223687  0  -0.396534  -0.703711  0  2.314235  0
O  O167  1  0.80340794  0.47955556  0.23512322  1  -1.223731  0  -0.396554  -0.70379  0  2.314195  0
O  O168  1  0.12168390  0.46885235  0.20374881  1  -1.194971  0  -0.373718  -0.661313  0  2.269661  0
O  O169  1  0.37830877  0.53114701  0.70374880  1  -1.194912  0  -0.373674  -0.661271  0  2.269917  0
O  O170  1  0.87832143  0.53114850  0.79624891  1  -1.195063  0  -0.373606  -0.661186  0  2.270061  0
O  O171  1  0.62168652  0.46885106  0.29625318  1  -1.195092  0  -0.373682  -0.661314  0  2.270153  0
O  O172  1  0.34995854  0.04231716  0.20552603  1  -0.470641  0  -0.115963  -0.328171  0  2.016492  0
O  O173  1  0.15004223  0.95768563  0.70553236  1  -0.470874  0  -0.115816  -0.327974  0  2.016409  0
O  O174  1  0.65004955  0.95768639  0.79447424  1  -0.471083  0  -0.115992  -0.328213  0  2.016634  0
O  O175  1  0.84994886  0.04231639  0.29447131  1  -0.471122  0  -0.115957  -0.328117  0  2.016693  0
O  O176  1  0.22138396  0.04504799  0.12878890  1  -0.46722  0  -0.117205  -0.323345  0  1.9525  0
O  O177  1  0.27860689  0.95495123  0.62879060  1  -0.467103  0  -0.117159  -0.323288  0  1.952621  0
O  O178  1  0.77862117  0.95495618  0.87121052  1  -0.467228  0  -0.117243  -0.323379  0  1.952461  0
O  O179  1  0.72138527  0.04504680  0.37121095  1  -0.467231  0  -0.117235  -0.323359  0  1.952517  0
O  O180  1  0.69664589  0.69412661  0.21560932  1  -1.224859  0  -0.423409  -0.724901  0  2.375263  0
O  O181  1  0.80335912  0.30587213  0.71560922  1  -1.224716  0  -0.423369  -0.724811  0  2.375177  0
O  O182  1  0.30336377  0.30587496  0.78438968  1  -1.224657  0  -0.423329  -0.724788  0  2.375117  0
O  O183  1  0.19664415  0.69412470  0.28438553  1  -1.224677  0  -0.42334  -0.724792  0  2.375096  0
O  O184  1  0.93098061  0.73375781  0.20686551  1  -1.192105  0  -0.386098  -0.648447  0  2.24564  0
O  O185  1  0.56901955  0.26623753  0.70686944  1  -1.192052  0  -0.386052  -0.648282  0  2.245619  0
O  O186  1  0.06902421  0.26624104  0.79313477  1  -1.192041  0  -0.386125  -0.648343  0  2.245732  0
O  O187  1  0.43098806  0.73376002  0.29312956  1  -1.192274  0  -0.386111  -0.648291  0  2.245652  0
O  O188  1  0.63946402  0.13879182  0.17531894  1  -0.470711  0  -0.13477  -0.342821  0  1.9713  0
O  O189  1  0.86054049  0.86120619  0.67531390  1  -0.470837  0  -0.134767  -0.342886  0  1.9715  0
O  O190  1  0.36054995  0.86121446  0.82468218  1  -0.470917  0  -0.134807  -0.342723  0  1.971266  0
O  O191  1  0.13945083  0.13878850  0.32467830  1  -0.470798  0  -0.134752  -0.342699  0  1.971102  0
O  O192  1  0.84545607  0.16141286  0.13304044  1  -0.465856  0  -0.13934  -0.349746  0  1.936785  0
O  O193  1  0.65454867  0.83858310  0.63303810  1  -0.465893  0  -0.139358  -0.349741  0  1.93683  0
O  O194  1  0.15456175  0.83858814  0.86696196  1  -0.465979  0  -0.13919  -0.349483  0  1.937042  0
O  O195  1  0.34543466  0.16141283  0.36696387  1  -0.466071  0  -0.139165  -0.349416  0  1.937017  0
O  O196  1  0.38192856  0.62526935  0.17945520  1  -1.220381  0  -0.404898  -0.693517  0  2.331186  0
O  O197  1  0.11807314  0.37471477  0.67946466  1  -1.219994  0  -0.404872  -0.693413  0  2.331301  0
O  O198  1  0.61806706  0.37473005  0.82053998  1  -1.219823  0  -0.404917  -0.693587  0  2.331065  0
O  O199  1  0.88192971  0.62526808  0.32053859  1  -1.219822  0  -0.404941  -0.693531  0  2.330943  0
O  O200  1  0.17705229  0.66942335  0.15877819  1  -1.229549  0  -0.375008  -0.663691  0  2.266933  0
O  O201  1  0.32295683  0.33056815  0.65877892  1  -1.229824  0  -0.37494  -0.663426  0  2.26731  0
O  O202  1  0.82294145  0.33057270  0.84121996  1  -1.229546  0  -0.374967  -0.663669  0  2.267208  0
O  O203  1  0.67705530  0.66942679  0.34122051  1  -1.229675  0  -0.374913  -0.663556  0  2.267325  0
O  O204  1  0.60286573  0.04739770  0.04621028  1  -0.479547  0  -0.141434  -0.344952  0  1.954369  0
O  O205  1  0.89712257  0.95260926  0.54620483  1  -0.479917  0  -0.141406  -0.344828  0  1.954775  0
O  O206  1  0.39713327  0.95261506  0.95379467  1  -0.479864  0  -0.141319  -0.344831  0  1.954864  0
O  O207  1  0.10286214  0.04738802  0.45379205  1  -0.480073  0  -0.141355  -0.344865  0  1.954577  0
O  O208  1  0.73897214  0.96100640  0.00913007  1  -0.451585  0  -0.132784  -0.329755  0  1.901739  0
O  O209  1  0.76101557  0.03900382  0.50912888  1  -0.451743  0  -0.132909  -0.329886  0  1.901801  0
O  O210  1  0.26101319  0.03900153  0.99087403  1  -0.450951  0  -0.132927  -0.329931  0  1.901828  0
O  O211  1  0.23898261  0.96100161  0.49087012  1  -0.451512  0  -0.132882  -0.329858  0  1.901681  0
O  O212  1  0.43951236  0.55722626  0.36858594  1  -1.217839  0  -0.606344  -0.794544  0  1.927953  0
O  O213  1  0.06048143  0.44277268  0.86858843  1  -1.217825  0  -0.606425  -0.794555  0  1.927957  0
O  O214  1  0.56048920  0.44276789  0.63140669  1  -1.217915  0  -0.606356  -0.794375  0  1.928115  0
O  O215  1  0.93951002  0.55722667  0.13141142  1  -1.217876  0  -0.606385  -0.794444  0  1.928107  0
O  O216  1  0.57218551  0.50554958  0.17710648  1  -1.228249  0  -0.61345  -0.811159  0  2.014403  0
O  O217  1  0.92781638  0.49444641  0.67710627  1  -1.228627  0  -0.61338  -0.811042  0  2.014472  0
O  O218  1  0.42781341  0.49445053  0.82289168  1  -1.228333  0  -0.613415  -0.811171  0  2.014474  0
O  O219  1  0.07218324  0.50555238  0.32289189  1  -1.228454  0  -0.613435  -0.811117  0  2.014451  0
