# generated using pymatgen
data_ZnH18C29N6(O2F3)2
_symmetry_space_group_name_H-M   'P 1'
_cell_length_a   13.87089723
_cell_length_b   14.10086588
_cell_length_c   18.48958949
_cell_angle_alpha   89.99969134
_cell_angle_beta   90.00037853
_cell_angle_gamma   97.02018718
_symmetry_Int_Tables_number   1
_chemical_formula_structural   ZnH18C29N6(O2F3)2
_chemical_formula_sum   'Zn4 H72 C116 N24 O16 F24'
_cell_volume   3589.29785380
_cell_formula_units_Z   4
loop_
 _symmetry_equiv_pos_site_id
 _symmetry_equiv_pos_as_xyz
  1  'x, y, z'
loop_
 _atom_site_type_symbol
 _atom_site_label
 _atom_site_symmetry_multiplicity
 _atom_site_fract_x
 _atom_site_fract_y
 _atom_site_fract_z
 _atom_site_occupancy
 _atom_site_pbe_bader_charge
 _atom_site_pbe_bader_spin_density
 _atom_site_pbe_cm5_charge
 _atom_site_pbe_ddec_charge
 _atom_site_pbe_ddec_spin_density
 _atom_site_pbe_ddec_sum_bond_order
 _atom_site_pbe_magmom
Zn  Zn0  1  0.44149903  0.35212752  0.74005194  1  1.247584  0  0.691833  0.757331  0  2.371628  0
Zn  Zn1  1  0.55850226  0.14787202  0.24004749  1  1.247698  0  0.691839  0.757297  0  2.371716  0
Zn  Zn2  1  0.55850208  0.64787168  0.25995010  1  1.247574  0  0.691838  0.757295  0  2.37166  0
Zn  Zn3  1  0.44149895  0.85212789  0.75994968  1  1.247633  0  0.691877  0.757351  0  2.371536  0
H  H4  1  0.55875851  0.73539830  0.42409526  1  0.478493  0  0.302269  0.290522  0  0.994047  0
H  H5  1  0.44124275  0.76459742  0.92409466  1  0.478497  0  0.302268  0.290534  0  0.994046  0
H  H6  1  0.44124518  0.26459872  0.57590515  1  0.478502  0  0.302265  0.290528  0  0.994095  0
H  H7  1  0.55875346  0.23539754  0.07590359  1  0.478509  0  0.302271  0.290575  0  0.993996  0
H  H8  1  0.61864684  0.78228249  0.49611584  1  0.41526  0  0.313172  0.278124  0  0.933541  0
H  H9  1  0.38135563  0.71771207  0.99611460  1  0.415267  0  0.313076  0.278003  0  0.933624  0
H  H10  1  0.38135767  0.21771523  0.50388404  1  0.415319  0  0.313094  0.278021  0  0.933648  0
H  H11  1  0.61864336  0.28228214  0.00388366  1  0.415286  0  0.313096  0.277999  0  0.933727  0
H  H12  1  0.55683246  0.44553509  0.61218548  1  0.15341  0  0.120092  0.104499  0  1.020414  0
H  H13  1  0.44316562  0.05446525  0.11217923  1  0.153251  0  0.120078  0.104449  0  1.020373  0
H  H14  1  0.44317245  0.55446549  0.38781926  1  0.153319  0  0.120074  0.104444  0  1.020398  0
H  H15  1  0.55682694  0.94553476  0.88782065  1  0.152925  0  0.120081  0.104508  0  1.020399  0
H  H16  1  0.38393958  0.10176776  0.33616666  1  0.112513  0  0.112556  0.092784  0  1.019103  0
H  H17  1  0.61606979  0.39823182  0.83617123  1  0.112772  0  0.11254  0.092722  0  1.019172  0
H  H18  1  0.61606882  0.89823206  0.66383268  1  0.112554  0  0.112531  0.09272  0  1.01919  0
H  H19  1  0.38393237  0.60176450  0.16383460  1  0.112635  0  0.112556  0.092787  0  1.019209  0
H  H20  1  0.75120035  0.24233660  0.61045188  1  0.114404  0  0.106091  0.116449  0  0.996669  0
H  H21  1  0.24879447  0.25767166  0.11044439  1  0.113941  0  0.106151  0.11646  0  0.99673  0
H  H22  1  0.24879458  0.75766481  0.38954853  1  0.114376  0  0.106118  0.116459  0  0.996671  0
H  H23  1  0.75120833  0.74233467  0.88955170  1  0.113965  0  0.106092  0.11642  0  0.99665  0
H  H24  1  0.32708135  0.97554336  0.42786011  1  0.105021  0  0.111857  0.123031  0  1.010822  0
H  H25  1  0.67292662  0.52445369  0.92786487  1  0.10524  0  0.111887  0.123087  0  1.011007  0
H  H26  1  0.67292744  0.02445933  0.57214193  1  0.10484  0  0.111858  0.122998  0  1.011041  0
H  H27  1  0.32707329  0.47554194  0.07214042  1  0.10483  0  0.111862  0.12306  0  1.010978  0
H  H28  1  0.88158725  0.13952182  0.62936251  1  0.056791  0  0.104701  0.115234  0  0.988978  0
H  H29  1  0.11841142  0.36048700  0.12935883  1  0.056731  0  0.104691  0.115218  0  0.988906  0
H  H30  1  0.11840973  0.86047885  0.37063466  1  0.056952  0  0.104686  0.115271  0  0.988983  0
H  H31  1  0.88158903  0.63951793  0.87064051  1  0.056733  0  0.104702  0.115219  0  0.988916  0
H  H32  1  0.73528291  0.02401509  0.82221740  1  0.072738  0  0.095805  0.105223  0  1.027889  0
H  H33  1  0.26472206  0.47597962  0.32221613  1  0.072687  0  0.095809  0.105204  0  1.027872  0
H  H34  1  0.26472127  0.97598550  0.17778085  1  0.072637  0  0.095854  0.105209  0  1.027774  0
H  H35  1  0.73527870  0.52401171  0.67778537  1  0.072792  0  0.095821  0.105215  0  1.027741  0
H  H36  1  0.55249736  0.59509765  0.53818731  1  0.132071  0  0.108049  0.115421  0  1.047994  0
H  H37  1  0.44750401  0.90490324  0.03818289  1  0.131963  0  0.108132  0.115517  0  1.047905  0
H  H38  1  0.44750806  0.40490150  0.46181582  1  0.132033  0  0.108104  0.115485  0  1.047914  0
H  H39  1  0.55248836  0.09509533  0.96181645  1  0.132083  0  0.108078  0.115467  0  1.047969  0
H  H40  1  0.61854258  0.89538259  0.42484253  1  0.104954  0  0.111002  0.113046  0  1.052192  0
H  H41  1  0.38146550  0.60461018  0.92484878  1  0.105164  0  0.110905  0.112835  0  1.052311  0
H  H42  1  0.38146438  0.10461725  0.57515735  1  0.10495  0  0.110854  0.112767  0  1.052397  0
H  H43  1  0.61853484  0.39538330  0.07515434  1  0.104939  0  0.110913  0.112882  0  1.052283  0
H  H44  1  0.66285430  0.02667588  0.33967866  1  0.090807  0  0.122271  0.088538  0  0.995848  0
H  H45  1  0.33715369  0.47331869  0.83968426  1  0.09097  0  0.122319  0.088647  0  0.995793  0
H  H46  1  0.33715342  0.97331895  0.66031906  1  0.090951  0  0.122305  0.088652  0  0.995754  0
H  H47  1  0.66284664  0.52667479  0.16032157  1  0.090936  0  0.122301  0.088627  0  0.995811  0
H  H48  1  0.61192766  0.13428404  0.80567892  1  0.102359  0  0.096191  0.098655  0  1.043014  0
H  H49  1  0.38807074  0.36570584  0.30567491  1  0.102446  0  0.096199  0.098666  0  1.042967  0
H  H50  1  0.38807162  0.86571232  0.19432150  1  0.102399  0  0.096204  0.098661  0  1.042951  0
H  H51  1  0.61192940  0.63428621  0.69432388  1  0.102451  0  0.096233  0.098694  0  1.04309  0
H  H52  1  0.96166928  0.18654407  0.78672360  1  0.110576  0  0.097672  0.107734  0  1.023062  0
H  H53  1  0.03832784  0.31345881  0.28671647  1  0.111084  0  0.097599  0.107635  0  1.023063  0
H  H54  1  0.03832172  0.81346025  0.21327195  1  0.110824  0  0.097616  0.107656  0  1.022998  0
H  H55  1  0.96167039  0.68654042  0.71327962  1  0.111022  0  0.097632  0.107691  0  1.023046  0
H  H56  1  0.12354996  0.28193019  0.77831446  1  0.130241  0  0.106705  0.114918  0  0.994366  0
H  H57  1  0.87644925  0.21807272  0.27830695  1  0.130625  0  0.106719  0.114943  0  0.994274  0
H  H58  1  0.87643979  0.71807557  0.22168271  1  0.130364  0  0.106709  0.11491  0  0.994338  0
H  H59  1  0.12354888  0.78192580  0.72169022  1  0.130392  0  0.106733  0.11496  0  0.994321  0
H  H60  1  0.21958106  0.07100722  0.63705564  1  0.085565  0  0.102732  0.103568  0  1.017107  0
H  H61  1  0.78041790  0.42899797  0.13704734  1  0.085313  0  0.102695  0.103551  0  1.017124  0
H  H62  1  0.78042092  0.92899841  0.36294857  1  0.085302  0  0.102727  0.103602  0  1.017068  0
H  H63  1  0.21957754  0.57100200  0.86295362  1  0.085512  0  0.102711  0.103532  0  1.017037  0
H  H64  1  0.06338468  0.96964409  0.65135984  1  0.094  0  0.098153  0.107774  0  1.017527  0
H  H65  1  0.93661274  0.53036261  0.15135664  1  0.094109  0  0.098141  0.107781  0  1.017475  0
H  H66  1  0.93661629  0.03035940  0.34863949  1  0.093855  0  0.098141  0.107779  0  1.017529  0
H  H67  1  0.06338065  0.46963810  0.84864324  1  0.093869  0  0.098152  0.107812  0  1.017502  0
H  H68  1  0.29072668  0.64037523  0.65225455  1  0.139621  0  0.117124  0.128803  0  1.012633  0
H  H69  1  0.70927467  0.85962856  0.15225321  1  0.139625  0  0.117103  0.128821  0  1.0126  0
H  H70  1  0.70927279  0.35962255  0.34774208  1  0.139609  0  0.117116  0.128796  0  1.012741  0
H  H71  1  0.29072058  0.14036999  0.84774180  1  0.139746  0  0.117075  0.128779  0  1.012762  0
H  H72  1  0.30424304  0.48871519  0.71972205  1  0.101064  0  0.11857  0.086489  0  1.007857  0
H  H73  1  0.69575497  0.01128809  0.21972099  1  0.10113  0  0.118581  0.086525  0  1.007868  0
H  H74  1  0.69575663  0.51128402  0.28027783  1  0.101079  0  0.118558  0.086486  0  1.007867  0
H  H75  1  0.30424509  0.98871398  0.78027347  1  0.101029  0  0.11858  0.086468  0  1.007855  0
C  C76  1  0.41057271  0.71914229  0.55201665  1  0.956853  0  0.226125  0.177467  0  3.971948  0
C  C77  1  0.58943113  0.78085993  0.05201559  1  0.957469  0  0.226071  0.177393  0  3.972128  0
C  C78  1  0.58943200  0.28085687  0.44798323  1  0.956845  0  0.225983  0.177263  0  3.972075  0
C  C79  1  0.41056595  0.21914146  0.94798158  1  0.956901  0  0.225939  0.177056  0  3.972126  0
C  C80  1  0.49982185  0.49169848  0.61900422  1  0.438293  0  0.049314  0.093694  0  3.936051  0
C  C81  1  0.50017792  0.00830323  0.11899898  1  0.438414  0  0.04941  0.093932  0  3.935849  0
C  C82  1  0.50018171  0.50830283  0.38099944  1  0.438282  0  0.049339  0.09385  0  3.93599  0
C  C83  1  0.49981743  0.99169603  0.88100036  1  0.438796  0  0.049327  0.093732  0  3.93607  0
C  C84  1  0.43100549  0.84763346  0.48422369  1  0.927274  0  0.219034  0.159116  0  4.008186  0
C  C85  1  0.56900083  0.65236900  0.98422634  1  0.927745  0  0.219064  0.15933  0  4.007892  0
C  C86  1  0.56900104  0.15236854  0.51577781  1  0.927722  0  0.219092  0.159365  0  4.008081  0
C  C87  1  0.43099893  0.34763093  0.01577570  1  0.927794  0  0.219037  0.159144  0  4.00812  0
C  C88  1  0.43288656  0.05452591  0.35854433  1  0.509545  0  0.041432  0.085816  0  3.942171  0
C  C89  1  0.56712126  0.44547141  0.85855009  1  0.508402  0  0.041524  0.086004  0  3.942563  0
C  C90  1  0.56712299  0.94547176  0.64145609  1  0.508591  0  0.041577  0.086056  0  3.942451  0
C  C91  1  0.43287812  0.55452565  0.14145574  1  0.508501  0  0.041524  0.085935  0  3.942657  0
C  C92  1  0.74947443  0.19544339  0.65730753  1  -0.033252  0  -0.082231  -0.079419  0  3.972683  0
C  C93  1  0.25052335  0.30456240  0.15730202  1  -0.032722  0  -0.08233  -0.079498  0  3.972846  0
C  C94  1  0.25052111  0.80455730  0.34269072  1  -0.03293  0  -0.082217  -0.079354  0  3.972542  0
C  C95  1  0.74947824  0.69544036  0.84269624  1  -0.032609  0  -0.08225  -0.079381  0  3.972544  0
C  C96  1  0.46716608  0.92288157  0.43384338  1  -0.051064  0  0.020389  0.080441  0  3.993921  0
C  C97  1  0.53284194  0.57711544  0.93384778  1  -0.050931  0  0.02038  0.080291  0  3.993886  0
C  C98  1  0.53284449  0.07711823  0.56615649  1  -0.051209  0  0.020412  0.080218  0  3.994018  0
C  C99  1  0.46715672  0.42288163  0.06615534  1  -0.051054  0  0.020405  0.080453  0  3.993838  0
C  C100  1  0.67409561  0.19559480  0.70754805  1  0.023378  0  -0.019921  -0.031326  0  3.975169  0
C  C101  1  0.32590584  0.30440278  0.20754399  1  0.023263  0  -0.019847  -0.031197  0  3.975273  0
C  C102  1  0.32590512  0.80440153  0.29244858  1  0.023682  0  -0.019968  -0.031305  0  3.975274  0
C  C103  1  0.67409412  0.69559858  0.79245535  1  0.023768  0  -0.019849  -0.031285  0  3.975179  0
C  C104  1  0.42130325  0.63043129  0.58989601  1  0.006129  0  0.027694  0.095191  0  3.963564  0
C  C105  1  0.57869740  0.86957144  0.08989400  1  0.006033  0  0.027753  0.095212  0  3.963676  0
C  C106  1  0.57869920  0.36956717  0.41010441  1  0.006106  0  0.027783  0.095472  0  3.963268  0
C  C107  1  0.42130031  0.13042922  0.91010426  1  0.0062  0  0.027819  0.095411  0  3.963338  0
C  C108  1  0.40191066  0.98486495  0.40897938  1  -0.03296  0  -0.077833  -0.158452  0  3.935315  0
C  C109  1  0.59810066  0.51513146  0.90898597  1  -0.03281  0  -0.077889  -0.15854  0  3.935646  0
C  C110  1  0.59809890  0.01513272  0.59102266  1  -0.031719  0  -0.077928  -0.158527  0  3.935633  0
C  C111  1  0.40190016  0.48486559  0.09102148  1  -0.031781  0  -0.077897  -0.158587  0  3.935548  0
C  C112  1  0.59740808  0.26058253  0.69725275  1  1.558257  0  0.199463  0.56561  0  4.225828  0
C  C113  1  0.40258733  0.23941375  0.19724987  1  1.557622  0  0.199474  0.565509  0  4.22609  0
C  C114  1  0.40258712  0.73941029  0.30275091  1  1.557921  0  0.199497  0.565584  0  4.226172  0
C  C115  1  0.59741181  0.76058690  0.80274136  1  1.557534  0  0.199452  0.565538  0  4.22613  0
C  C116  1  0.82180538  0.13671455  0.66780725  1  -0.042066  0  -0.092079  -0.129839  0  3.962954  0
C  C117  1  0.17819331  0.36329189  0.16780385  1  -0.042209  0  -0.091982  -0.129724  0  3.962808  0
C  C118  1  0.17818997  0.86328472  0.33218938  1  -0.042515  0  -0.092078  -0.130007  0  3.963082  0
C  C119  1  0.82180713  0.63671303  0.83219603  1  -0.042291  0  -0.092029  -0.129732  0  3.962782  0
C  C120  1  0.74142150  0.07256981  0.77627958  1  -0.010903  0  -0.1001  -0.143782  0  3.990821  0
C  C121  1  0.25857835  0.42742738  0.27627739  1  -0.010875  0  -0.10006  -0.143598  0  3.990949  0
C  C122  1  0.25857663  0.92742870  0.22371814  1  -0.011018  0  -0.100117  -0.143667  0  3.990714  0
C  C123  1  0.74142338  0.57257109  0.72372520  1  -0.01093  0  -0.100107  -0.14371  0  3.990772  0
C  C124  1  0.81892961  0.07470523  0.72743822  1  -0.028549  0  -0.018928  0.080686  0  3.956402  0
C  C125  1  0.18107278  0.42529795  0.22743945  1  -0.02849  0  -0.018995  0.080536  0  3.956619  0
C  C126  1  0.18106996  0.92529327  0.27255733  1  -0.028314  0  -0.018914  0.080694  0  3.956415  0
C  C127  1  0.81892781  0.57470268  0.77256205  1  -0.028142  0  -0.019001  0.080449  0  3.956622  0
C  C128  1  0.90135823  0.01133935  0.73475456  1  0.02101  0  -0.010414  -0.273162  0  3.853633  0
C  C129  1  0.09864259  0.48866237  0.23475459  1  0.021043  0  -0.010388  -0.273005  0  3.853329  0
C  C130  1  0.09864216  0.98865985  0.26524153  1  0.021062  0  -0.010384  -0.272959  0  3.853284  0
C  C131  1  0.90135521  0.51133901  0.76524583  1  0.020821  0  -0.010395  -0.272863  0  3.853296  0
C  C132  1  0.49673552  0.57406543  0.57827085  1  -0.002731  0  -0.080347  -0.161731  0  3.934169  0
C  C133  1  0.50326403  0.92593525  0.07826608  1  -0.002771  0  -0.080484  -0.161909  0  3.934257  0
C  C134  1  0.50326837  0.42593302  0.42173119  1  -0.002648  0  -0.080484  -0.162022  0  3.934075  0
C  C135  1  0.49673070  0.07406474  0.92173218  1  -0.002655  0  -0.080431  -0.161869  0  3.934236  0
C  C136  1  0.56307982  0.93890549  0.40868619  1  0.05554  0  -0.080063  -0.157758  0  3.935593  0
C  C137  1  0.43692707  0.56109025  0.90869180  1  0.054882  0  -0.080009  -0.157416  0  3.935288  0
C  C138  1  0.43692819  0.06109148  0.59131477  1  0.055184  0  -0.079807  -0.157108  0  3.935241  0
C  C139  1  0.56307087  0.43890683  0.09131294  1  0.05519  0  -0.079963  -0.157521  0  3.935403  0
C  C140  1  0.18225772  0.18228018  0.70753985  1  0.025316  0  -0.016672  -0.02783  0  3.977009  0
C  C141  1  0.81774235  0.31772315  0.20753110  1  0.025184  0  -0.016648  -0.027792  0  3.97672  0
C  C142  1  0.81773818  0.81772838  0.29246273  1  0.025185  0  -0.016673  -0.027777  0  3.976723  0
C  C143  1  0.18225535  0.68227752  0.79246878  1  0.025307  0  -0.016609  -0.027698  0  3.976659  0
C  C144  1  0.90819253  0.96845140  0.81238874  1  1.730402  0  0.30115  0.677331  0  3.976468  0
C  C145  1  0.09180700  0.53154429  0.31239006  1  1.730152  0  0.301013  0.676992  0  3.976905  0
C  C146  1  0.09180465  0.03155071  0.18760844  1  1.729508  0  0.301043  0.677043  0  3.9767  0
C  C147  1  0.90818815  0.46845354  0.68760982  1  1.730201  0  0.301094  0.67697  0  3.976842  0
C  C148  1  0.58849797  0.01163328  0.35924573  1  0.527067  0  0.055272  0.111786  0  3.943526  0
C  C149  1  0.41150711  0.48835977  0.85925056  1  0.527546  0  0.055296  0.111688  0  3.943615  0
C  C150  1  0.41150884  0.98836013  0.64075414  1  0.527425  0  0.055195  0.111511  0  3.943834  0
C  C151  1  0.58849341  0.51163513  0.14075365  1  0.527309  0  0.055296  0.111757  0  3.943622  0
C  C152  1  0.67089620  0.13391482  0.76689184  1  -0.081498  0  -0.089884  -0.084263  0  3.975828  0
C  C153  1  0.32910554  0.36608097  0.26688916  1  -0.081278  0  -0.08994  -0.084409  0  3.975703  0
C  C154  1  0.32910174  0.86608226  0.23310858  1  -0.081478  0  -0.089955  -0.084387  0  3.975931  0
C  C155  1  0.67089217  0.63391969  0.73311126  1  -0.081346  0  -0.089961  -0.08436  0  3.975742  0
C  C156  1  0.00049875  0.07043563  0.72071191  1  -0.020838  0  -0.017411  0.083899  0  3.950586  0
C  C157  1  0.99949750  0.42957052  0.22070738  1  -0.020843  0  -0.017396  0.083871  0  3.950543  0
C  C158  1  0.99949623  0.92957150  0.27928851  1  -0.02079  0  -0.017364  0.083969  0  3.950368  0
C  C159  1  0.00049877  0.57043016  0.77929088  1  -0.020975  0  -0.017386  0.083974  0  3.950397  0
C  C160  1  0.01864446  0.15961746  0.75514087  1  -0.08867  0  -0.091365  -0.125235  0  3.966087  0
C  C161  1  0.98135446  0.34038488  0.25513446  1  -0.089123  0  -0.091278  -0.125078  0  3.965837  0
C  C162  1  0.98134663  0.84038758  0.24485738  1  -0.088803  0  -0.091341  -0.125195  0  3.96585  0
C  C163  1  0.01864367  0.65961364  0.74486380  1  -0.089036  0  -0.091321  -0.125242  0  3.965946  0
C  C164  1  0.10893762  0.21405123  0.74989857  1  -0.045415  0  -0.079574  -0.074471  0  3.949969  0
C  C165  1  0.89106246  0.28595470  0.24989032  1  -0.045479  0  -0.079635  -0.074533  0  3.950049  0
C  C166  1  0.89105549  0.78595807  0.25010130  1  -0.045221  0  -0.07959  -0.074481  0  3.950219  0
C  C167  1  0.10893606  0.71404667  0.75010794  1  -0.045404  0  -0.079646  -0.07455  0  3.949987  0
C  C168  1  0.16327997  0.09496997  0.67120494  1  -0.08791  0  -0.087151  -0.091519  0  3.9804  0
C  C169  1  0.83672028  0.40503715  0.17119701  1  -0.08755  0  -0.087107  -0.091498  0  3.980277  0
C  C170  1  0.83671818  0.90503928  0.32879981  1  -0.08776  0  -0.087133  -0.09156  0  3.980296  0
C  C171  1  0.16327690  0.59496495  0.82880287  1  -0.087723  0  -0.087156  -0.09145  0  3.980275  0
C  C172  1  0.07410472  0.03840222  0.67873069  1  -0.027463  0  -0.097776  -0.138744  0  3.987772  0
C  C173  1  0.92589190  0.46160418  0.17872513  1  -0.027927  0  -0.09772  -0.1387  0  3.988031  0
C  C174  1  0.92588987  0.96160206  0.32127027  1  -0.027498  0  -0.097738  -0.138722  0  3.988182  0
C  C175  1  0.07410375  0.53839723  0.82127421  1  -0.027562  0  -0.097746  -0.138821  0  3.988086  0
C  C176  1  0.35036413  0.59875282  0.64183702  1  0.020729  0  -0.067973  -0.137306  0  3.893545  0
C  C177  1  0.64963561  0.90125033  0.14183523  1  0.020732  0  -0.067931  -0.137276  0  3.893684  0
C  C178  1  0.64963669  0.40124423  0.35816285  1  0.020496  0  -0.067911  -0.137284  0  3.893608  0
C  C179  1  0.35035941  0.09875179  0.85816194  1  0.019938  0  -0.067941  -0.137281  0  3.893444  0
C  C180  1  0.87780257  0.92708415  0.68037933  1  1.710779  0  0.302956  0.677368  0  3.970099  0
C  C181  1  0.12220281  0.57292085  0.18038225  1  1.710494  0  0.303132  0.677515  0  3.969796  0
C  C182  1  0.12220688  0.07291280  0.31961785  1  1.710802  0  0.303046  0.677392  0  3.969876  0
C  C183  1  0.87779140  0.42708057  0.81961979  1  1.71083  0  0.302944  0.677279  0  3.97024  0
C  C184  1  0.28044595  0.23937791  0.70214991  1  1.559612  0  0.198235  0.563658  0  4.227831  0
C  C185  1  0.71955048  0.26062549  0.20214308  1  1.559536  0  0.198091  0.563426  0  4.228037  0
C  C186  1  0.71954773  0.76062495  0.29785375  1  1.559526  0  0.198117  0.563388  0  4.228096  0
C  C187  1  0.28044785  0.73937445  0.79785680  1  1.559239  0  0.198089  0.563388  0  4.22822  0
C  C188  1  0.35847887  0.51554497  0.67967364  1  0.430368  0  0.04586  0.088607  0  3.942547  0
C  C189  1  0.64151963  0.98445725  0.17967038  1  0.430505  0  0.045819  0.088552  0  3.942611  0
C  C190  1  0.64152358  0.48445349  0.32032678  1  0.430381  0  0.04581  0.088549  0  3.942442  0
C  C191  1  0.35847683  0.01554486  0.82032571  1  0.430823  0  0.045828  0.088565  0  3.94231  0
N  N192  1  0.47482435  0.76931191  0.50525201  1  -0.862654  0  -0.13385  0.116962  0  3.716521  0
N  N193  1  0.52517771  0.73068559  0.00525193  1  -0.862699  0  -0.133859  0.116932  0  3.716411  0
N  N194  1  0.52518150  0.23068508  0.49474895  1  -0.863017  0  -0.13387  0.116868  0  3.716441  0
N  N195  1  0.47481918  0.26931436  0.99474633  1  -0.862982  0  -0.133811  0.117073  0  3.716343  0
N  N196  1  0.52478083  0.06714056  0.33284682  1  -1.261663  0  -0.333646  -0.238689  0  3.555629  0
N  N197  1  0.47522721  0.43285476  0.83285219  1  -1.261685  0  -0.333766  -0.238917  0  3.556239  0
N  N198  1  0.47522810  0.93285783  0.66714981  1  -1.261886  0  -0.333766  -0.238841  0  3.556334  0
N  N199  1  0.52477250  0.56713944  0.16715148  1  -1.261766  0  -0.333788  -0.238867  0  3.556166  0
N  N200  1  0.43259224  0.46288900  0.66949739  1  -1.255737  0  -0.330519  -0.235779  0  3.583826  0
N  N201  1  0.56740660  0.03711314  0.16949344  1  -1.255778  0  -0.33062  -0.235987  0  3.583743  0
N  N202  1  0.56741040  0.53711089  0.33050573  1  -1.255452  0  -0.330515  -0.235845  0  3.583746  0
N  N203  1  0.43259336  0.96288822  0.83050535  1  -1.255668  0  -0.330517  -0.235772  0  3.583696  0
N  N204  1  0.33253184  0.76533802  0.55961686  1  -0.628902  0  -0.213482  -0.220632  0  3.201712  0
N  N205  1  0.66747255  0.73466771  0.05961529  1  -0.629671  0  -0.21342  -0.220524  0  3.201924  0
N  N206  1  0.66747215  0.23466114  0.44038518  1  -0.629542  0  -0.213377  -0.220478  0  3.201693  0
N  N207  1  0.33252573  0.26533724  0.94038404  1  -0.62903  0  -0.21335  -0.220377  0  3.201767  0
N  N208  1  0.55981064  0.73676067  0.47969899  1  -0.715404  0  -0.49176  -0.508028  0  3.161201  0
N  N209  1  0.44019056  0.76323615  0.97969730  1  -0.715312  0  -0.491687  -0.507922  0  3.161086  0
N  N210  1  0.44019316  0.26323706  0.52030305  1  -0.715264  0  -0.491741  -0.507951  0  3.161081  0
N  N211  1  0.55980594  0.23676096  0.02030095  1  -0.715282  0  -0.491769  -0.508032  0  3.161169  0
N  N212  1  0.34508727  0.84459832  0.51745733  1  -0.648421  0  -0.215153  -0.23035  0  3.241926  0
N  N213  1  0.65492306  0.65540617  0.01745873  1  -0.64862  0  -0.2152  -0.230497  0  3.241633  0
N  N214  1  0.65491950  0.15540009  0.48254526  1  -0.648056  0  -0.215162  -0.230452  0  3.241541  0
N  N215  1  0.34507720  0.34459733  0.98254439  1  -0.648721  0  -0.215193  -0.230449  0  3.241586  0
O  O216  1  0.54092959  0.26730688  0.75267514  1  -1.168766  0  -0.337862  -0.552148  0  2.33977  0
O  O217  1  0.45906281  0.23268481  0.25266661  1  -1.168665  0  -0.337801  -0.55201  0  2.339981  0
O  O218  1  0.45906282  0.73268669  0.24732690  1  -1.168625  0  -0.337939  -0.552213  0  2.339745  0
O  O219  1  0.54093921  0.76731581  0.74732948  1  -1.168734  0  -0.337805  -0.552015  0  2.34032  0
O  O220  1  0.59080445  0.30381213  0.63865264  1  -1.18423  0  -0.321756  -0.557966  0  2.166352  0
O  O221  1  0.40918813  0.19618311  0.13864456  1  -1.183843  0  -0.321869  -0.558053  0  2.166227  0
O  O222  1  0.40918802  0.69618717  0.36134561  1  -1.184343  0  -0.321701  -0.557868  0  2.166753  0
O  O223  1  0.59081160  0.80382182  0.86135207  1  -1.184174  0  -0.321855  -0.558091  0  2.165907  0
O  O224  1  0.30256429  0.30153405  0.75301630  1  -1.164852  0  -0.333443  -0.550857  0  2.296416  0
O  O225  1  0.69743696  0.19846970  0.25301286  1  -1.164617  0  -0.333478  -0.550904  0  2.296262  0
O  O226  1  0.69743404  0.69846589  0.24698250  1  -1.164815  0  -0.333409  -0.550807  0  2.296368  0
O  O227  1  0.30256438  0.80152591  0.74698864  1  -1.164551  0  -0.333441  -0.550882  0  2.296468  0
O  O228  1  0.33690973  0.22391330  0.65154052  1  -1.193245  0  -0.324077  -0.573252  0  2.201963  0
O  O229  1  0.66308786  0.27608609  0.15153227  1  -1.193427  0  -0.323891  -0.573007  0  2.202238  0
O  O230  1  0.66308572  0.77608667  0.34845990  1  -1.1933  0  -0.323997  -0.573063  0  2.202329  0
O  O231  1  0.33690936  0.72391100  0.84846923  1  -1.193238  0  -0.323919  -0.57302  0  2.202195  0
F  F232  1  0.91224906  0.03802917  0.86374550  1  -0.625867  0  -0.096392  -0.199221  0  1.305288  0
F  F233  1  0.08774588  0.46196326  0.36374287  1  -0.625652  0  -0.096308  -0.199132  0  1.305632  0
F  F234  1  0.08774648  0.96197152  0.13625221  1  -0.625564  0  -0.096428  -0.199236  0  1.305305  0
F  F235  1  0.91224044  0.53803325  0.63625754  1  -0.625915  0  -0.096351  -0.199156  0  1.305623  0
F  F236  1  0.93631537  0.85659137  0.68790439  1  -0.626591  0  -0.091735  -0.202642  0  1.340628  0
F  F237  1  0.06368873  0.64341431  0.18790566  1  -0.626376  0  -0.091784  -0.202686  0  1.340464  0
F  F238  1  0.06369597  0.14341414  0.31209873  1  -0.62651  0  -0.091755  -0.202662  0  1.340363  0
F  F239  1  0.93630250  0.35658643  0.81209855  1  -0.626566  0  -0.091733  -0.202631  0  1.340495  0
F  F240  1  0.83125286  0.90250751  0.82920139  1  -0.615346  0  -0.090884  -0.202641  0  1.367342  0
F  F241  1  0.16874675  0.59748236  0.32920823  1  -0.615293  0  -0.090824  -0.202541  0  1.367441  0
F  F242  1  0.16874340  0.09749318  0.17079470  1  -0.614934  0  -0.090873  -0.202582  0  1.367388  0
F  F243  1  0.83124907  0.40250974  0.67079652  1  -0.615119  0  -0.090816  -0.202507  0  1.36737  0
F  F244  1  0.88682670  0.95819136  0.61060218  1  -0.615521  0  -0.097788  -0.204711  0  1.300849  0
F  F245  1  0.11318608  0.54181970  0.11060411  1  -0.615428  0  -0.09789  -0.204757  0  1.300689  0
F  F246  1  0.11319015  0.04180693  0.38939391  1  -0.615468  0  -0.097822  -0.204728  0  1.300719  0
F  F247  1  0.88680788  0.45818531  0.88939739  1  -0.61546  0  -0.097828  -0.204741  0  1.300742  0
F  F248  1  0.78476450  0.88422406  0.68796886  1  -0.617436  0  -0.096392  -0.205744  0  1.345781  0
F  F249  1  0.21524012  0.61578019  0.18797910  1  -0.617497  0  -0.096464  -0.205859  0  1.345866  0
F  F250  1  0.21524384  0.11577004  0.31202182  1  -0.617496  0  -0.096427  -0.205784  0  1.346024  0
F  F251  1  0.78475476  0.38422623  0.81202240  1  -0.61759  0  -0.096373  -0.205734  0  1.346147  0
F  F252  1  0.98962049  0.92448141  0.82015610  1  -0.610031  0  -0.105244  -0.208201  0  1.306341  0
F  F253  1  0.01038247  0.57551777  0.32015901  1  -0.610041  0  -0.105279  -0.208159  0  1.30627  0
F  F254  1  0.01037535  0.07552142  0.17984270  1  -0.610001  0  -0.10519  -0.208122  0  1.306425  0
F  F255  1  0.98961470  0.42448433  0.67984087  1  -0.610081  0  -0.105296  -0.208152  0  1.306262  0
