# generated using pymatgen
data_Zn2H9C30Br10N2Cl5O8
_symmetry_space_group_name_H-M   'P 1'
_cell_length_a   9.82064795
_cell_length_b   11.01820191
_cell_length_c   15.98033334
_cell_angle_alpha   88.46008229
_cell_angle_beta   86.96556715
_cell_angle_gamma   86.54619160
_symmetry_Int_Tables_number   1
_chemical_formula_structural   Zn2H9C30Br10N2Cl5O8
_chemical_formula_sum   'Zn2 H9 C30 Br10 N2 Cl5 O8'
_cell_volume   1723.11868810
_cell_formula_units_Z   1
loop_
 _symmetry_equiv_pos_site_id
 _symmetry_equiv_pos_as_xyz
  1  'x, y, z'
loop_
 _atom_site_type_symbol
 _atom_site_label
 _atom_site_symmetry_multiplicity
 _atom_site_fract_x
 _atom_site_fract_y
 _atom_site_fract_z
 _atom_site_occupancy
 _atom_site_pbe_bader_charge
 _atom_site_pbe_bader_spin_density
 _atom_site_pbe_cm5_charge
 _atom_site_pbe_ddec_charge
 _atom_site_pbe_ddec_spin_density
 _atom_site_pbe_ddec_sum_bond_order
 _atom_site_pbe_magmom
Zn  Zn0  1  0.64940038  0.49764335  0.49475340  1  1.300303  0  0.672271  0.852885  0  2.373434  0
Zn  Zn1  1  0.36091910  0.50333420  0.50253594  1  1.295694  0  0.679847  0.841665  0  2.420451  0
H  H2  1  0.66336749  0.36069195  0.07045169  1  0.111186  0  0.096645  0.130851  0  1.003973  0
H  H3  1  0.70303260  0.50320800  0.91483147  1  0.092417  0  0.108012  0.095151  0  0.949256  0
H  H4  1  0.71223745  0.51170893  0.05827773  1  0.081527  0  0.097786  0.12629  0  0.990058  0
H  H5  1  0.73845064  0.83090868  0.60424472  1  0.139784  0  0.104849  0.10868  0  0.970138  0
H  H6  1  0.14875760  0.62455632  0.40579979  1  0.18024  0  0.134981  0.134209  0  0.980463  0
H  H7  1  0.83500335  0.29873646  0.63454493  1  0.157969  0  0.099163  0.10319  0  1.03257  0
H  H8  1  0.07780004  0.24181432  0.59067096  1  0.10599  0  0.110939  0.126815  0  0.967574  0
H  H9  1  0.55694543  0.66692783  0.91612210  1  0.089728  0  0.106482  0.140537  0  0.966051  0
H  H10  1  0.37748782  0.66052103  0.91955878  1  0.126199  0  0.096626  0.137352  0  1.004981  0
C  C11  1  0.53383013  0.26503987  0.49532845  1  1.645374  0  0.213419  0.609236  0  4.190476  0
C  C12  1  0.52462667  0.13012218  0.48676994  1  0.069804  0  -0.005497  -0.050968  0  3.900943  0
C  C13  1  0.44787181  0.07921420  0.42571236  1  -0.033329  0  -0.012961  0.036674  0  3.891655  0
C  C14  1  0.49713229  0.50018398  0.65888073  1  1.685905  0  0.221154  0.667766  0  4.228188  0
C  C15  1  0.42776488  0.95277852  0.42467195  1  -0.033137  0  -0.01108  0.045673  0  3.90037  0
C  C16  1  0.48205377  0.87171809  0.48578964  1  0.088146  0  -0.009197  -0.07193  0  3.922664  0
C  C17  1  0.56033141  0.92370948  0.54358497  1  0.00514  0  -0.010873  0.035491  0  3.939541  0
C  C18  1  0.64716727  0.89093018  0.61688622  1  0.118824  0  -0.045663  -0.003805  0  3.814396  0
C  C19  1  0.67730867  0.03249082  0.61436276  1  0.014597  0  0.01042  0.116545  0  3.648719  0
C  C20  1  0.07016863  0.43305346  0.55577055  1  0.597026  0  0.140581  0.166728  0  3.857715  0
C  C21  1  0.08596611  0.57078544  0.44909961  1  0.523688  0  0.07132  0.023988  0  3.812023  0
C  C22  1  0.63618708  0.44913073  0.04160799  1  -0.057453  0  -0.169697  -0.253588  0  3.841644  0
C  C23  1  0.94240120  0.58234955  0.44858109  1  0.516647  0  0.130363  0.194398  0  3.919723  0
C  C24  1  0.92881987  0.45175423  0.55861172  1  0.526968  0  0.14157  0.174642  0  3.859521  0
C  C25  1  0.90723204  0.37050411  0.63556635  1  0.117176  0  -0.036174  -0.005228  0  3.772991  0
C  C26  1  0.47067104  0.73653737  0.49020768  1  1.604652  0  0.215408  0.615403  0  4.17225  0
C  C27  1  0.06629506  0.33058690  0.62073810  1  0.019556  0  -0.069582  -0.076406  0  3.763233  0
C  C28  1  0.50911179  0.50095798  0.33636262  1  1.696362  0  0.220955  0.671036  0  4.226281  0
C  C29  1  0.63341753  0.44006647  0.94603767  1  0.108324  0  -0.043809  0.068491  0  3.74649  0
C  C30  1  0.36894062  0.41098799  0.95726396  1  0.006214  0  0.011516  0.082898  0  3.488496  0
C  C31  1  0.38610368  0.40175931  0.05589979  1  0.12969  0  0.038183  0.133017  0  3.54628  0
C  C32  1  0.50826866  0.50169461  0.24600493  1  -0.451754  0  -0.041297  -0.15628  0  3.934214  0
C  C33  1  0.49422836  0.49659147  0.08054528  1  0.139952  0  -0.004625  0.072365  0  3.834739  0
C  C34  1  0.48922217  0.48339137  0.91583208  1  0.141779  0  -0.006411  0.10982  0  3.860427  0
C  C35  1  0.46814776  0.62733303  0.04036275  1  0.101241  0  0.045641  0.211987  0  3.595615  0
C  C36  1  0.47106825  0.61836245  0.94431313  1  -0.041753  0  -0.16704  -0.285595  0  3.823938  0
C  C37  1  0.49968302  0.50042564  0.17067795  1  0.208892  0  -0.051408  -0.05227  0  4.11042  0
C  C38  1  0.48847508  0.48513218  0.82520528  1  -0.478739  0  -0.047264  -0.058228  0  4.077626  0
C  C39  1  0.49415314  0.49402790  0.74935112  1  0.247181  0  -0.042293  -0.157842  0  3.950655  0
C  C40  1  0.58293128  0.04682220  0.54334277  1  -0.03809  0  -0.021344  -0.014616  0  3.96848  0
Br  Br41  1  0.29785467  0.71413803  0.08315932  1  -0.065929  0  -0.007838  -0.099306  0  1.410687  0
Br  Br42  1  0.21156874  0.41936275  0.12272175  1  -0.036682  0  -0.001007  -0.075972  0  1.500451  0
Br  Br43  1  0.37675618  0.18414860  0.34050979  1  0.000883  0  0.042168  -0.018728  0  1.555614  0
Br  Br44  1  0.33387880  0.88883721  0.33657815  1  -0.007761  0  0.033654  -0.036052  0  1.500571  0
Br  Br45  1  0.63205807  0.12967149  0.71238862  1  -0.026705  0  0.020231  -0.049902  0  1.469286  0
Br  Br46  1  0.87243814  0.04830904  0.57693971  1  -0.10942  0  -0.011471  -0.108467  0  1.30061  0
Br  Br47  1  0.86546066  0.69147657  0.36977131  1  0.081042  0  0.117136  0.038091  0  1.417849  0
Br  Br48  1  0.18219639  0.31815853  0.71452738  1  -0.024077  0  0.005189  -0.055614  0  1.545014  0
Br  Br49  1  0.19580851  0.49848448  0.92612182  1  -0.037632  0  0.022786  -0.052591  0  1.548787  0
Br  Br50  1  0.35974673  0.25163619  0.90597736  1  -0.011753  0  0.02209  -0.038656  0  1.579937  0
N  N51  1  0.15179980  0.49291651  0.50209775  1  -1.187433  0  -0.279787  -0.142705  0  3.434069  0
N  N52  1  0.85997994  0.52054225  0.50307870  1  -1.215566  0  -0.280921  -0.210679  0  3.396009  0
Cl  Cl53  1  0.56062374  0.83219175  0.70804514  1  -0.224239  0  -0.048831  -0.092924  0  1.401088  0
Cl  Cl54  1  0.69910158  0.29416816  0.91104572  1  -0.23266  0  -0.055719  -0.12779  0  1.474464  0
Cl  Cl55  1  0.87197770  0.45703979  0.72674101  1  -0.18663  0  -0.026473  -0.074012  0  1.508721  0
Cl  Cl56  1  0.45353263  0.25443263  0.08837142  1  -0.160037  0  -0.002711  -0.058042  0  1.623765  0
Cl  Cl57  1  0.60146607  0.72153576  0.06923762  1  -0.198162  0  -0.025644  -0.104393  0  1.414358  0
O  O58  1  0.65095381  0.30776493  0.48850381  1  -1.15372  0  -0.310447  -0.522976  0  2.259153  0
O  O59  1  0.41992624  0.32254451  0.51135578  1  -1.164754  0  -0.314891  -0.553834  0  2.371635  0
O  O60  1  0.61246248  0.47785095  0.62062330  1  -1.149536  0  -0.30882  -0.543671  0  2.356776  0
O  O61  1  0.38370797  0.52659546  0.62600284  1  -1.13711  0  -0.309627  -0.531405  0  2.313164  0
O  O62  1  0.58481363  0.67795645  0.49992431  1  -1.164788  0  -0.315969  -0.565407  0  2.377273  0
O  O63  1  0.35514080  0.69284928  0.48686186  1  -1.154898  0  -0.310738  -0.532443  0  2.314499  0
O  O64  1  0.62509802  0.50023850  0.36838501  1  -1.144659  0  -0.314033  -0.545486  0  2.308742  0
O  O65  1  0.39246938  0.50035292  0.37498809  1  -1.147695  0  -0.310246  -0.54406  0  2.31224  0
