# generated using pymatgen
data_HgH11C13(BrN)2
_symmetry_space_group_name_H-M   'P 1'
_cell_length_a   10.40052799
_cell_length_b   11.29405018
_cell_length_c   13.23300000
_cell_angle_alpha   72.77259826
_cell_angle_beta   74.93379036
_cell_angle_gamma   72.94106696
_symmetry_Int_Tables_number   1
_chemical_formula_structural   HgH11C13(BrN)2
_chemical_formula_sum   'Hg4 H44 C52 Br8 N8'
_cell_volume   1393.62364577
_cell_formula_units_Z   4
loop_
 _symmetry_equiv_pos_site_id
 _symmetry_equiv_pos_as_xyz
  1  'x, y, z'
loop_
 _atom_site_type_symbol
 _atom_site_label
 _atom_site_symmetry_multiplicity
 _atom_site_fract_x
 _atom_site_fract_y
 _atom_site_fract_z
 _atom_site_occupancy
 _atom_site_pbe_bader_charge
 _atom_site_pbe_bader_spin_density
 _atom_site_pbe_cm5_charge
 _atom_site_pbe_ddec_charge
 _atom_site_pbe_ddec_spin_density
 _atom_site_pbe_ddec_sum_bond_order
 _atom_site_pbe_magmom
Hg  Hg0  1  0.29970611  0.28502583  0.18366453  1  0.682809  0  0.439068  0.449256  0  2.656609  0
Hg  Hg1  1  0.70029046  0.71497104  0.81633825  1  0.682753  0  0.439037  0.449186  0  2.656683  0
Hg  Hg2  1  0.16663633  0.99397663  0.54256114  1  0.71585  0  0.469245  0.477509  0  2.628164  0
Hg  Hg3  1  0.83336302  0.00602500  0.45743986  1  0.715847  0  0.469255  0.477535  0  2.628066  0
H  H4  1  0.96255831  0.30110488  0.24595739  1  0.125291  0  0.093833  0.077124  0  1.062845  0
H  H5  1  0.03743706  0.69889675  0.75404291  1  0.125195  0  0.093827  0.077101  0  1.062854  0
H  H6  1  0.73810929  0.44829580  0.21307372  1  0.139701  0  0.10014  0.110605  0  1.02986  0
H  H7  1  0.26188560  0.55170774  0.78692394  1  0.139817  0  0.100182  0.110673  0  1.029814  0
H  H8  1  0.73595050  0.67020697  0.09355549  1  0.109629  0  0.095659  0.101742  0  1.041847  0
H  H9  1  0.26404886  0.32979466  0.90644098  1  0.109676  0  0.095631  0.101727  0  1.041894  0
H  H10  1  0.95844814  0.73571903  0.02258479  1  0.122219  0  0.111258  0.12121  0  1.010365  0
H  H11  1  0.04155173  0.26428450  0.97741336  1  0.122257  0  0.111244  0.121188  0  1.010415  0
H  H12  1  0.26853808  0.71906018  0.84880998  1  0.072622  0  0.092784  0.0938  0  1.045648  0
H  H13  1  0.73146327  0.28094145  0.15119138  1  0.072598  0  0.092759  0.09377  0  1.045678  0
H  H14  1  0.26166721  0.94753610  0.77729375  1  0.055483  0  0.092122  0.089188  0  1.041215  0
H  H15  1  0.73833414  0.05246553  0.22270534  1  0.055479  0  0.092115  0.089204  0  1.041228  0
H  H16  1  0.20171513  0.09159940  0.90245068  1  0.065555  0  0.094343  0.091285  0  1.023968  0
H  H17  1  0.79828395  0.90839937  0.09755186  1  0.065535  0  0.094333  0.091261  0  1.023981  0
H  H18  1  0.14148565  0.00419118  0.10061738  1  0.109684  0  0.092462  0.095968  0  1.020503  0
H  H19  1  0.85851243  0.99580759  0.89938460  1  0.109752  0  0.092442  0.095936  0  1.020518  0
H  H20  1  0.14042595  0.77523149  0.17267673  1  0.048525  0  0.095948  0.100887  0  1.020278  0
H  H21  1  0.85957485  0.22476442  0.82732618  1  0.048194  0  0.095895  0.10083  0  1.020339  0
H  H22  1  0.49857264  0.49586829  0.11684331  1  0.081384  0  0.103961  0.09081  0  0.982109  0
H  H23  1  0.50142668  0.50412953  0.88315791  1  0.081409  0  0.103959  0.090846  0  0.982112  0
H  H24  1  0.45128673  0.63742328  0.01621822  1  0.090739  0  0.093761  0.072011  0  1.032338  0
H  H25  1  0.54871407  0.36257263  0.98378318  1  0.090811  0  0.093823  0.07215  0  1.032138  0
H  H26  1  0.87885563  0.19813256  0.56000177  1  0.110865  0  0.091521  0.071451  0  1.082552  0
H  H27  1  0.12114672  0.80186907  0.43999560  1  0.110837  0  0.091541  0.071496  0  1.082594  0
H  H28  1  0.77381177  0.41598034  0.59323103  1  0.140631  0  0.10188  0.11007  0  1.036563  0
H  H29  1  0.22618981  0.58402034  0.40676825  1  0.14097  0  0.10188  0.110072  0  1.036529  0
H  H30  1  0.91344570  0.52047846  0.65220474  1  0.130873  0  0.095274  0.099437  0  1.037165  0
H  H31  1  0.08655712  0.47952126  0.34779528  1  0.130918  0  0.095281  0.099447  0  1.03714  0
H  H32  1  0.15491108  0.40579850  0.67085906  1  0.094888  0  0.103489  0.110274  0  1.054912  0
H  H33  1  0.84509050  0.59420218  0.32914173  1  0.094883  0  0.103506  0.110312  0  1.05493  0
H  H34  1  0.34652954  0.41876397  0.54223959  1  0.058617  0  0.093478  0.096594  0  1.035787  0
H  H35  1  0.65347276  0.58123385  0.45776102  1  0.05859  0  0.093459  0.096608  0  1.035725  0
H  H36  1  0.48929480  0.50533110  0.61247092  1  0.066934  0  0.086069  0.095266  0  1.050024  0
H  H37  1  0.51070751  0.49466672  0.38752894  1  0.066913  0  0.086063  0.095281  0  1.049997  0
H  H38  1  0.61227219  0.36843837  0.75957194  1  0.048699  0  0.092778  0.088356  0  1.035371  0
H  H39  1  0.38773135  0.63155850  0.24042790  1  0.048732  0  0.092807  0.088336  0  1.035353  0
H  H40  1  0.59185154  0.14222635  0.83671116  1  0.103515  0  0.088418  0.095599  0  1.041569  0
H  H41  1  0.40815200  0.85777051  0.16328944  1  0.103562  0  0.088439  0.095636  0  1.04155  0
H  H42  1  0.44663704  0.05725082  0.77009109  1  0.085793  0  0.096146  0.100612  0  1.033556  0
H  H43  1  0.55336427  0.94274700  0.22990972  1  0.085826  0  0.096102  0.100546  0  1.033577  0
H  H44  1  0.49431577  0.91707639  0.61486559  1  0.106189  0  0.094777  0.09248  0  1.016435  0
H  H45  1  0.50568506  0.08292333  0.38513333  1  0.106188  0  0.094768  0.092466  0  1.016437  0
H  H46  1  0.55075361  0.06253199  0.56687412  1  0.063324  0  0.088991  0.072024  0  1.043195  0
H  H47  1  0.44924821  0.93746773  0.43312460  1  0.063351  0  0.088994  0.072022  0  1.043209  0
C  C48  1  0.95744986  0.39827726  0.19640465  1  0.462246  0  0.047033  0.094953  0  3.927369  0
C  C49  1  0.04254575  0.60172341  0.80359434  1  0.46223  0  0.046988  0.09497  0  3.927461  0
C  C50  1  0.83217863  0.48084394  0.17669473  1  -0.048765  0  -0.079454  -0.116729  0  3.943644  0
C  C51  1  0.16781773  0.51915769  0.82330084  1  -0.04885  0  -0.079472  -0.116797  0  3.943756  0
C  C52  1  0.83114813  0.60343422  0.11263620  1  -0.020809  0  -0.068041  -0.018409  0  3.939514  0
C  C53  1  0.16885074  0.39656932  0.88736064  1  -0.020838  0  -0.067975  -0.018379  0  3.939599  0
C  C54  1  0.95509961  0.64048823  0.07286290  1  -0.078856  0  -0.076564  -0.149177  0  3.922991  0
C  C55  1  0.04490049  0.35951435  0.92713469  1  -0.078826  0  -0.076518  -0.149114  0  3.922954  0
C  C56  1  0.07647475  0.55401742  0.09804882  1  0.4867  0  0.115798  0.150273  0  3.97862  0
C  C57  1  0.92352262  0.44598421  0.90195108  1  0.486723  0  0.115788  0.150341  0  3.978532  0
C  C58  1  0.20965403  0.59297010  0.06062737  1  0.70169  0  0.161667  0.169431  0  3.935625  0
C  C59  1  0.79034481  0.40702962  0.93937346  1  0.701677  0  0.161651  0.169382  0  3.935726  0
C  C60  1  0.20492384  0.73169665  0.01588403  1  -0.070266  0  -0.016794  0.020741  0  4.019274  0
C  C61  1  0.79507723  0.26830212  0.98411584  1  -0.070271  0  -0.016794  0.020702  0  4.019352  0
C  C62  1  0.23938129  0.78090555  0.90456435  1  -0.035626  0  -0.093581  -0.124841  0  3.969886  0
C  C63  1  0.76061953  0.21909417  0.09543608  1  -0.035607  0  -0.09354  -0.12478  0  3.969877  0
C  C64  1  0.23582747  0.91057363  0.86415180  1  -0.098951  0  -0.09339  -0.073323  0  4.004767  0
C  C65  1  0.76417336  0.08942609  0.13584939  1  -0.098956  0  -0.093408  -0.073376  0  4.004806  0
C  C66  1  0.20091815  0.99101182  0.93420154  1  -0.010973  0  -0.092176  -0.080734  0  3.999833  0
C  C67  1  0.79908069  0.00898791  0.06579930  1  -0.011015  0  -0.092156  -0.080697  0  3.999886  0
C  C68  1  0.16705252  0.94231119  0.04522876  1  0.001555  0  -0.085722  -0.061696  0  3.998555  0
C  C69  1  0.83294704  0.05768567  0.95477416  1  0.001436  0  -0.085695  -0.061637  0  3.998519  0
C  C70  1  0.16743035  0.81334117  0.08598071  1  -0.060485  0  -0.091463  -0.120842  0  3.950052  0
C  C71  1  0.83257020  0.18665569  0.91402050  1  -0.060061  0  -0.09142  -0.120775  0  3.95003  0
C  C72  1  0.45417903  0.53472942  0.04321297  1  0.273101  0  -0.067265  -0.050661  0  3.929932  0
C  C73  1  0.54581977  0.46526649  0.95678959  1  0.247179  0  -0.067255  -0.050846  0  3.929715  0
C  C74  1  0.93777147  0.24864698  0.58226562  1  0.556537  0  0.049008  0.103053  0  3.923586  0
C  C75  1  0.06222764  0.75135561  0.41773368  1  0.556928  0  0.04899  0.102917  0  3.923717  0
C  C76  1  0.87930993  0.36960179  0.60181498  1  -0.076163  0  -0.07936  -0.115507  0  3.948952  0
C  C77  1  0.12069165  0.63039889  0.39818354  1  -0.077069  0  -0.079293  -0.115334  0  3.948968  0
C  C78  1  0.95770424  0.42699470  0.63448107  1  -0.094002  0  -0.068648  -0.019134  0  3.958138  0
C  C79  1  0.04229758  0.57300503  0.36552067  1  -0.093853  0  -0.068689  -0.019194  0  3.958264  0
C  C80  1  0.09239851  0.36334983  0.64422315  1  -0.079787  0  -0.081283  -0.151586  0  3.926356  0
C  C81  1  0.90760208  0.63665085  0.35577936  1  -0.079716  0  -0.081337  -0.151727  0  3.926475  0
C  C82  1  0.14772279  0.24528259  0.61743226  1  0.552065  0  0.121019  0.160005  0  3.947494  0
C  C83  1  0.85227681  0.75471809  0.38256969  1  0.551958  0  0.121014  0.160014  0  3.947651  0
C  C84  1  0.29610599  0.17921170  0.61402352  1  0.703287  0  0.157078  0.16324  0  3.932699  0
C  C85  1  0.70389408  0.82078707  0.38597730  1  0.703062  0  0.157099  0.16336  0  3.932548  0
C  C86  1  0.38395012  0.23294365  0.65257855  1  -0.056313  0  -0.01667  0.024178  0  3.989691  0
C  C87  1  0.61604995  0.76705512  0.34742530  1  -0.056207  0  -0.016616  0.024171  0  3.989584  0
C  C88  1  0.39831661  0.35883251  0.60803499  1  -0.058694  0  -0.091632  -0.118114  0  3.976799  0
C  C89  1  0.60168470  0.64116530  0.39196507  1  -0.058613  0  -0.091628  -0.118108  0  3.976644  0
C  C90  1  0.48012760  0.40694189  0.64660946  1  0.02807  0  -0.09754  -0.085425  0  4.007311  0
C  C91  1  0.51987223  0.59305783  0.35339042  1  0.028088  0  -0.097555  -0.085522  0  4.007378  0
C  C92  1  0.54897229  0.32984520  0.72955299  1  -0.110113  0  -0.092543  -0.079451  0  3.986104  0
C  C93  1  0.45103101  0.67015261  0.27044666  1  -0.110219  0  -0.092495  -0.079298  0  3.986086  0
C  C94  1  0.53766825  0.20383142  0.77279592  1  -0.021657  0  -0.091859  -0.066424  0  3.991296  0
C  C95  1  0.46233530  0.79616545  0.22720392  1  -0.021658  0  -0.091931  -0.066509  0  3.991362  0
C  C96  1  0.45563880  0.15548649  0.73452512  1  -0.036604  0  -0.086084  -0.110732  0  3.943453  0
C  C97  1  0.54436127  0.84451228  0.26547646  1  -0.036562  0  -0.086087  -0.110712  0  3.943482  0
C  C98  1  0.48135798  0.01109637  0.55731057  1  0.301002  0  -0.070767  -0.056606  0  3.919734  0
C  C99  1  0.51864185  0.98890335  0.44269007  1  0.278395  0  -0.070796  -0.056626  0  3.919761  0
Br  Br100  1  0.39432459  0.13837657  0.05707417  1  -0.412893  0  -0.200976  -0.31855  0  1.393023  0
Br  Br101  1  0.60567723  0.86162315  0.94292454  1  -0.412884  0  -0.200968  -0.318519  0  1.393052  0
Br  Br102  1  0.35955294  0.33377795  0.34043135  1  -0.458327  0  -0.223852  -0.364127  0  1.396369  0
Br  Br103  1  0.64044717  0.66622464  0.65957077  1  -0.458285  0  -0.223841  -0.36409  0  1.396396  0
Br  Br104  1  0.12005325  0.06657154  0.33825704  1  -0.483753  0  -0.25289  -0.404244  0  1.354294  0
Br  Br105  1  0.87994676  0.93344725  0.66174327  1  -0.483729  0  -0.252874  -0.40423  0  1.35429  0
Br  Br106  1  0.28220094  0.75563643  0.59152735  1  -0.451078  0  -0.226791  -0.360607  0  1.325365  0
Br  Br107  1  0.71779591  0.24436330  0.40846331  1  -0.451047  0  -0.226795  -0.360609  0  1.325343  0
N  N108  1  0.32060679  0.50610449  0.07087451  1  -1.149767  0  -0.306567  -0.221625  0  3.397079  0
N  N109  1  0.67939129  0.49389428  0.92912597  1  -1.149725  0  -0.306595  -0.221614  0  3.396951  0
N  N110  1  0.07609225  0.43408680  0.15785991  1  -1.188923  0  -0.301183  -0.220892  0  3.474729  0
N  N111  1  0.92390388  0.56591578  0.84214001  1  -1.188907  0  -0.301181  -0.220952  0  3.474708  0
N  N112  1  0.06795104  0.18958236  0.58955888  1  -1.207803  0  -0.299872  -0.193722  0  3.516971  0
N  N113  1  0.93204907  0.81042022  0.41044021  1  -1.207798  0  -0.299845  -0.193658  0  3.51703  0
N  N114  1  0.33960865  0.07853285  0.57677294  1  -1.161279  0  -0.306077  -0.206301  0  3.436941  0
N  N115  1  0.66039218  0.92146688  0.42322749  1  -1.161262  0  -0.306078  -0.206361  0  3.436861  0
