# generated using pymatgen
data_CdH4C6(SN2)2
_symmetry_space_group_name_H-M   'P 1'
_cell_length_a   5.60197999
_cell_length_b   6.88476610
_cell_length_c   12.51487104
_cell_angle_alpha   89.99932577
_cell_angle_beta   90.00108219
_cell_angle_gamma   106.24729647
_symmetry_Int_Tables_number   1
_chemical_formula_structural   CdH4C6(SN2)2
_chemical_formula_sum   'Cd2 H8 C12 S4 N8'
_cell_volume   463.40090781
_cell_formula_units_Z   2
loop_
 _symmetry_equiv_pos_site_id
 _symmetry_equiv_pos_as_xyz
  1  'x, y, z'
loop_
 _atom_site_type_symbol
 _atom_site_label
 _atom_site_symmetry_multiplicity
 _atom_site_fract_x
 _atom_site_fract_y
 _atom_site_fract_z
 _atom_site_occupancy
 _atom_site_hle17_bader_spin_density
 _atom_site_hle17_ddec_charge
 _atom_site_hle17_ddec_spin_density
 _atom_site_hle17_ddec_sum_bond_order
 _atom_site_hle17_magmom
 _atom_site_hse06_10hf_bader_spin_density
 _atom_site_hse06_10hf_ddec_charge
 _atom_site_hse06_10hf_ddec_spin_density
 _atom_site_hse06_10hf_ddec_sum_bond_order
 _atom_site_hse06_10hf_magmom
 _atom_site_hse06_bader_spin_density
 _atom_site_hse06_ddec_charge
 _atom_site_hse06_ddec_spin_density
 _atom_site_hse06_ddec_sum_bond_order
 _atom_site_hse06_magmom
 _atom_site_pbe_bader_spin_density
 _atom_site_pbe_cm5_charge
 _atom_site_pbe_ddec_charge
 _atom_site_pbe_ddec_spin_density
 _atom_site_pbe_ddec_sum_bond_order
 _atom_site_pbe_magmom
Cd  Cd0  1  0.49999778  0.49999348  0.50000160  1  0  0.951  0  1.987119  0  0  0.77429  0  2.448278  0  0  0.819473  0  2.413077  0  0  0.722693  0.742999  0  2.47168  0
Cd  Cd1  1  0.50000745  0.50000556  0.99999964  1  0  0.951002  0  1.986994  0  0  0.774294  0  2.448128  0  0  0.819476  0  2.412927  0  0  0.722696  0.743004  0  2.471505  0
H  H2  1  0.42015035  0.51954401  0.25000022  1  0  0.078301  0  0.963299  0  0  0.079093  0  1.040117  0  0  0.081836  0  1.035919  0  0  0.12236  0.077033  0  1.043151  0
H  H3  1  0.57985771  0.48044296  0.74999818  1  0  0.078392  0  0.96323  0  0  0.079113  0  1.040151  0  0  0.081857  0  1.03595  0  0  0.122365  0.077052  0  1.043188  0
H  H4  1  0.02473399  0.86531517  0.42239069  1  0  0.074267  0  0.954324  0  0  0.083577  0  1.020114  0  0  0.085084  0  1.018413  0  0  0.113147  0.082378  0  1.021449  0
H  H5  1  0.97526654  0.13470149  0.92238633  1  0  0.074306  0  0.954398  0  0  0.08356  0  1.020202  0  0  0.085063  0  1.018505  0  0  0.113174  0.082357  0  1.021548  0
H  H6  1  0.97525427  0.13468692  0.57761410  1  0  0.074271  0  0.954334  0  0  0.083534  0  1.020147  0  0  0.085038  0  1.018451  0  0  0.11316  0.082343  0  1.021466  0
H  H7  1  0.02473428  0.86531119  0.07761447  1  0  0.0743  0  0.954322  0  0  0.083552  0  1.020162  0  0  0.085057  0  1.018465  0  0  0.113175  0.082359  0  1.021485  0
H  H8  1  0.24760384  0.99700436  0.25000428  1  0  0.125258  0  0.953343  0  0  0.130781  0  1.018297  0  0  0.134553  0  1.017874  0  0  0.105232  0.128113  0  1.018767  0
H  H9  1  0.75238299  0.00301436  0.75000131  1  0  0.125229  0  0.953302  0  0  0.130766  0  1.018254  0  0  0.134542  0  1.017825  0  0  0.105244  0.128089  0  1.018738  0
C  C10  1  0.93333020  0.30830079  0.40301226  1  0  0.302189  0  4.009893  0  0  0.280803  0  4.312857  0  0  0.302794  0  4.328246  0  0  0.144048  0.265871  0  4.3021  0
C  C11  1  0.06665243  0.69170248  0.90301326  1  0  0.302283  0  4.009661  0  0  0.280901  0  4.312616  0  0  0.302891  0  4.327996  0  0  0.144043  0.265974  0  4.301857  0
C  C12  1  0.06667102  0.69169223  0.59698854  1  0  0.30213  0  4.009498  0  0  0.280743  0  4.312476  0  0  0.302738  0  4.327866  0  0  0.143941  0.265809  0  4.301722  0
C  C13  1  0.93336215  0.30830870  0.09698114  1  0  0.30209  0  4.009784  0  0  0.280704  0  4.312748  0  0  0.302694  0  4.328134  0  0  0.143896  0.265773  0  4.301992  0
C  C14  1  0.60546060  0.62651099  0.25000304  1  0  0.302582  0  3.67771  0  0  0.250775  0  3.942215  0  0  0.266232  0  3.955044  0  0  0.181795  0.240755  0  3.933297  0
C  C15  1  0.39454136  0.37347900  0.74999936  1  0  0.302464  0  3.677963  0  0  0.250636  0  3.942564  0  0  0.266097  0  3.955389  0  0  0.181742  0.240619  0  3.933644  0
C  C16  1  0.93924659  0.81889107  0.34481101  1  0  0.19946  0  3.651803  0  0  0.161577  0  3.905393  0  0  0.173352  0  3.921637  0  0  0.070926  0.153906  0  3.894606  0
C  C17  1  0.06075070  0.18112047  0.84480740  1  0  0.199399  0  3.652034  0  0  0.161617  0  3.905554  0  0  0.173391  0  3.921799  0  0  0.070937  0.153942  0  3.894757  0
C  C18  1  0.06074576  0.18111253  0.65519058  1  0  0.199409  0  3.65174  0  0  0.161619  0  3.905268  0  0  0.173393  0  3.921511  0  0  0.070934  0.153947  0  3.894482  0
C  C19  1  0.93924447  0.81888616  0.15519500  1  0  0.19947  0  3.651905  0  0  0.16166  0  3.905482  0  0  0.173435  0  3.921728  0  0  0.070919  0.153992  0  3.894691  0
C  C20  1  0.06253960  0.89018725  0.25000146  1  0  -0.150927  0  3.642838  0  0  -0.155751  0  3.886446  0  0  -0.168257  0  3.907301  0  0  -0.073581  -0.147983  0  3.872905  0
C  C21  1  0.93745074  0.10982089  0.75000173  1  0  -0.150809  0  3.64273  0  0  -0.155672  0  3.886265  0  0  -0.168171  0  3.907113  0  0  -0.073613  -0.147896  0  3.872714  0
S  S22  1  0.64076167  0.18404408  0.41036429  1  0  -0.323907  0  2.211059  0  0  -0.296265  0  2.551743  0  0  -0.313996  0  2.548127  0  0  -0.139585  -0.283674  0  2.553834  0
S  S23  1  0.35923195  0.81595911  0.91035575  1  0  -0.323987  0  2.210797  0  0  -0.296352  0  2.551493  0  0  -0.314108  0  2.547919  0  0  -0.139591  -0.283764  0  2.553581  0
S  S24  1  0.35922832  0.81594742  0.58963331  1  0  -0.323811  0  2.211118  0  0  -0.29619  0  2.551836  0  0  -0.313908  0  2.548209  0  0  -0.139548  -0.283596  0  2.55393  0
S  S25  1  0.64078815  0.18403694  0.08962827  1  0  -0.323926  0  2.210737  0  0  -0.296304  0  2.551445  0  0  -0.31401  0  2.547783  0  0  -0.139543  -0.283715  0  2.553532  0
N  N26  1  0.14770920  0.39685111  0.39901260  1  0  -0.53891  0  2.881974  0  0  -0.480128  0  3.156274  0  0  -0.502029  0  3.164271  0  0  -0.400319  -0.465048  0  3.150474  0
N  N27  1  0.85228382  0.60316734  0.89901284  1  0  -0.538958  0  2.882006  0  0  -0.480156  0  3.156298  0  0  -0.502051  0  3.164286  0  0  -0.400332  -0.465082  0  3.150497  0
N  N28  1  0.85227231  0.60313131  0.60098980  1  0  -0.538948  0  2.881555  0  0  -0.480149  0  3.155871  0  0  -0.502055  0  3.16387  0  0  -0.400238  -0.465067  0  3.150074  0
N  N29  1  0.14771931  0.39684686  0.10098795  1  0  -0.53877  0  2.882045  0  0  -0.479979  0  3.156338  0  0  -0.501879  0  3.164332  0  0  -0.400222  -0.464904  0  3.150537  0
N  N30  1  0.71060543  0.68711846  0.34479531  1  0  -0.366202  0  3.205292  0  0  -0.289131  0  3.468005  0  0  -0.312103  0  3.486396  0  0  -0.317444  -0.273867  0  3.455334  0
N  N31  1  0.28939946  0.31288401  0.84479274  1  0  -0.366217  0  3.205376  0  0  -0.289156  0  3.468107  0  0  -0.312122  0  3.486485  0  0  -0.317467  -0.273884  0  3.455422  0
N  N32  1  0.28939682  0.31287758  0.65520709  1  0  -0.366169  0  3.205434  0  0  -0.289121  0  3.468172  0  0  -0.312093  0  3.486559  0  0  -0.317449  -0.273857  0  3.455499  0
N  N33  1  0.71060205  0.68711506  0.15520885  1  0  -0.366261  0  3.205275  0  0  -0.28924  0  3.468034  0  0  -0.31221  0  3.486417  0  0  -0.317494  -0.273977  0  3.455362  0
