# generated using pymatgen
data_Zn4H18C44N8O13
_symmetry_space_group_name_H-M   'P 1'
_cell_length_a   15.11660070
_cell_length_b   26.11404220
_cell_length_c   28.22478350
_cell_angle_alpha   89.94738479
_cell_angle_beta   82.30842063
_cell_angle_gamma   89.32378987
_symmetry_Int_Tables_number   1
_chemical_formula_structural   Zn4H18C44N8O13
_chemical_formula_sum   'Zn8 H36 C88 N16 O26'
_cell_volume   11040.87354008
_cell_formula_units_Z   2
loop_
 _symmetry_equiv_pos_site_id
 _symmetry_equiv_pos_as_xyz
  1  'x, y, z'
loop_
 _atom_site_type_symbol
 _atom_site_label
 _atom_site_symmetry_multiplicity
 _atom_site_fract_x
 _atom_site_fract_y
 _atom_site_fract_z
 _atom_site_occupancy
 _atom_site_pbe_bader_charge
 _atom_site_pbe_bader_spin_density
 _atom_site_pbe_cm5_charge
 _atom_site_pbe_ddec_charge
 _atom_site_pbe_ddec_spin_density
 _atom_site_pbe_ddec_sum_bond_order
 _atom_site_pbe_magmom
Zn  Zn0  1  0.57239429  0.93682112  0.49472249  1  1.317532  0  0.67745  0.965055  0  2.379907  0
Zn  Zn1  1  0.57631931  0.06091658  0.49620509  1  1.319354  0  0.677847  0.97218  0  2.340584  0
Zn  Zn2  1  0.57362523  0.43668796  0.99601868  1  1.317037  0  0.672691  0.965027  0  2.367979  0
Zn  Zn3  1  0.57658185  0.56085491  0.99623132  1  1.319367  0  0.678208  0.971787  0  2.346105  0
Zn  Zn4  1  0.42002062  0.00050858  0.56160705  1  1.31806  0  0.678548  0.976314  0  2.3296  0
Zn  Zn5  1  0.41900038  0.50079470  0.06086913  1  1.323392  0  0.68578  0.981078  0  2.329324  0
Zn  Zn6  1  0.43425672  0.00007947  0.44510575  1  1.317911  0  0.677946  0.966331  0  2.391108  0
Zn  Zn7  1  0.43498902  0.49974277  0.94520086  1  1.318313  0  0.677992  0.966165  0  2.394021  0
H  H8  1  0.57721094  0.80541215  0.41071492  1  0.110545  0  0.113794  0.124039  0  0.986565  0
H  H9  1  0.51015956  0.72991199  0.63906188  1  0.118252  0  0.122838  0.13466  0  0.972534  0
H  H10  1  0.50387188  0.76889535  0.13888305  1  0.13384  0  0.122195  0.133062  0  0.97528  0
H  H11  1  0.33479982  0.29672673  0.20692937  1  0.134154  0  0.123251  0.13457  0  0.97233  0
H  H12  1  0.42479343  0.90425648  0.32950993  1  0.113702  0  0.11215  0.118721  0  0.985922  0
H  H13  1  0.40811608  0.10430880  0.33954202  1  0.088888  0  0.111542  0.118368  0  0.98614  0
H  H14  1  0.42273274  0.40291334  0.83212561  1  0.110448  0  0.113864  0.12088  0  0.983559  0
H  H15  1  0.43349202  0.59470247  0.82956434  1  0.102256  0  0.110511  0.117358  0  0.987388  0
H  H16  1  0.01042035  0.91759309  0.43713943  1  0.125747  0  0.114688  0.12283  0  0.989774  0
H  H17  1  0.01132340  0.41729383  0.93685412  1  0.106818  0  0.11407  0.122126  0  0.991744  0
H  H18  1  0.98820811  0.08346431  0.56275341  1  0.099448  0  0.123545  0.130968  0  0.966581  0
H  H19  1  0.63099500  0.17548718  0.39187451  1  0.101691  0  0.114935  0.122183  0  0.980582  0
H  H20  1  0.98795919  0.58308789  0.06255025  1  0.106152  0  0.123707  0.131482  0  0.964885  0
H  H21  1  0.84673613  0.05802400  0.53361212  1  0.106563  0  0.115822  0.123931  0  0.984578  0
H  H22  1  0.84686421  0.55768959  0.03304365  1  0.114828  0  0.115723  0.124054  0  0.982792  0
H  H23  1  0.46418482  0.15444160  0.74817566  1  0.096819  0  0.114202  0.116995  0  0.997098  0
H  H24  1  0.46203771  0.84515767  0.74849162  1  0.087835  0  0.114739  0.118301  0  0.995494  0
H  H25  1  0.46329202  0.65414299  0.24860969  1  0.134647  0  0.115011  0.118277  0  0.99513  0
H  H26  1  0.62116528  0.28458408  0.18622157  1  0.112541  0  0.114709  0.11911  0  0.994639  0
H  H27  1  0.57652205  0.73656926  0.34803007  1  0.089391  0  0.113375  0.117463  0  0.983024  0
H  H28  1  0.63823751  0.24020289  0.32505345  1  0.060452  0  0.112878  0.11668  0  0.984182  0
H  H29  1  0.58323390  0.23717129  0.84617801  1  0.068457  0  0.111447  0.114716  0  0.987176  0
H  H30  1  0.58490802  0.30565084  0.90920165  1  0.115416  0  0.110986  0.117147  0  0.987629  0
H  H31  1  0.57383627  0.76328974  0.84990352  1  0.106262  0  0.11322  0.117563  0  0.983028  0
H  H32  1  0.84575216  0.92714169  0.44139022  1  0.113984  0  0.117421  0.123838  0  0.976683  0
H  H33  1  0.84679691  0.42705811  0.94036397  1  0.114932  0  0.115329  0.122006  0  0.979434  0
H  H34  1  0.45881072  0.08739704  0.68470595  1  0.111176  0  0.115031  0.121124  0  0.978574  0
H  H35  1  0.45767512  0.91247799  0.68516448  1  0.107335  0  0.114884  0.12052  0  0.977407  0
H  H36  1  0.45856967  0.58659127  0.18553168  1  0.104991  0  0.116719  0.123731  0  0.975773  0
H  H37  1  0.62699916  0.34798703  0.11884555  1  0.110999  0  0.115237  0.122401  0  0.978088  0
H  H38  1  0.57859084  0.69425898  0.91208177  1  0.132372  0  0.11408  0.124098  0  0.983254  0
H  H39  1  0.42588271  0.83607777  0.26645758  1  0.103084  0  0.110176  0.112662  0  1.006377  0
H  H40  1  0.41283381  0.16997645  0.27415111  1  0.074651  0  0.109202  0.111779  0  1.00783  0
H  H41  1  0.42350737  0.33543698  0.76851783  1  0.106654  0  0.111302  0.114523  0  1.003147  0
H  H42  1  0.43201227  0.66265449  0.76661528  1  0.110873  0  0.109614  0.111909  0  1.008497  0
H  H43  1  0.50339259  0.27001933  0.63923138  1  0.119953  0  0.123012  0.134003  0  0.97323  0
C  C44  1  0.48751413  0.09858211  0.59016266  1  1.59188  0  0.231431  0.605311  0  4.1752  0
C  C45  1  0.11822733  0.47673014  0.98389016  1  0.060982  0  0.024173  0.01292  0  4.006308  0
C  C46  1  0.11489829  0.04658145  0.54177991  1  0.077137  0  0.016558  0.052248  0  4.067703  0
C  C47  1  0.11497944  0.54681278  0.04114547  1  0.079496  0  0.01799  0.050316  0  4.066529  0
C  C48  1  0.02371479  0.05312716  0.54122337  1  -0.02778  0  -0.05245  -0.129376  0  3.884666  0
C  C49  1  0.02365666  0.55291093  0.04087204  1  -0.020559  0  -0.05148  -0.12827  0  3.882384  0
C  C50  1  0.50277840  0.85894872  0.37283233  1  -0.041131  0  -0.008875  -0.029171  0  3.953145  0
C  C51  1  0.51947032  0.13620193  0.36920327  1  0.041244  0  -0.009183  -0.027865  0  3.948613  0
C  C52  1  0.50474841  0.35819711  0.87378516  1  -0.068486  0  -0.01064  -0.03174  0  3.951908  0
C  C53  1  0.50810258  0.64026256  0.87359145  1  -0.033757  0  -0.008236  -0.026742  0  3.945909  0
C  C54  1  0.45892027  0.86769526  0.33262216  1  0.017707  0  -0.073505  -0.069807  0  3.96143  0
C  C55  1  0.49139983  0.90176722  0.59063448  1  1.596302  0  0.23028  0.605977  0  4.176764  0
C  C56  1  0.45758423  0.13453384  0.33616406  1  -0.042884  0  -0.075709  -0.075475  0  3.962948  0
C  C57  1  0.45861611  0.36677645  0.83435405  1  -0.003272  0  -0.070975  -0.066085  0  3.950031  0
C  C58  1  0.46526936  0.63147483  0.83308473  1  -0.057116  0  -0.07699  -0.079523  0  3.967376  0
C  C59  1  0.45929098  0.83022592  0.29792757  1  -0.037694  0  -0.079031  -0.139069  0  3.946201  0
C  C60  1  0.46005659  0.17067723  0.30008707  1  0.009691  0  -0.078576  -0.139059  0  3.948626  0
C  C61  1  0.45880641  0.32965261  0.79932939  1  -0.013807  0  -0.077121  -0.13771  0  3.937692  0
C  C62  1  0.46415082  0.66890364  0.79840399  1  -0.019644  0  -0.080391  -0.138111  0  3.951749  0
C  C63  1  0.50302370  0.78317102  0.30359216  1  0.323192  0  0.092542  0.17174  0  4.04134  0
C  C64  1  0.52562517  0.20883959  0.29641554  1  0.35777  0  0.092111  0.173446  0  4.039118  0
C  C65  1  0.50477037  0.28309681  0.80377817  1  0.325166  0  0.092934  0.176056  0  4.043376  0
C  C66  1  0.48869823  0.59717612  0.09091882  1  1.57027  0  0.231768  0.605788  0  4.175445  0
C  C67  1  0.50480506  0.71625774  0.80447377  1  0.351126  0  0.091196  0.169447  0  4.045382  0
C  C68  1  0.54456222  0.77375690  0.34442266  1  0.016494  0  -0.072777  -0.133375  0  3.933287  0
C  C69  1  0.58808431  0.21028974  0.32900202  1  0.016662  0  -0.072069  -0.133714  0  3.934345  0
C  C70  1  0.54914729  0.27390375  0.84365021  1  0.016514  0  -0.076353  -0.138479  0  3.949791  0
C  C71  1  0.54464024  0.72584034  0.84575727  1  -0.06469  0  -0.071748  -0.131979  0  3.932568  0
C  C72  1  0.50389727  0.90010834  0.40915652  1  1.541677  0  0.231005  0.604058  0  4.167974  0
C  C73  1  0.51616059  0.09656423  0.40747122  1  1.507202  0  0.230523  0.602673  0  4.165701  0
C  C74  1  0.50511401  0.39894267  0.91070049  1  1.541078  0  0.229595  0.604273  0  4.164729  0
C  C75  1  0.51010569  0.59868885  0.90969117  1  1.566963  0  0.231139  0.606778  0  4.164618  0
C  C76  1  0.54526326  0.81177214  0.37880910  1  -0.034557  0  -0.072493  -0.072853  0  3.938729  0
C  C77  1  0.49258076  0.40123935  0.08965586  1  1.556328  0  0.230326  0.605001  0  4.174853  0
C  C78  1  0.58426573  0.17447890  0.36569535  1  -0.03532  0  -0.072134  -0.071699  0  3.948318  0
C  C79  1  0.54998112  0.31161804  0.87828795  1  -0.012512  0  -0.077216  -0.079576  0  3.964826  0
C  C80  1  0.54757453  0.68765610  0.87995441  1  -0.011704  0  -0.071044  -0.071342  0  3.93502  0
C  C81  1  0.47321179  0.16429673  0.71033368  1  0.014619  0  -0.070343  -0.127199  0  3.928422  0
C  C82  1  0.47322432  0.83537214  0.71062238  1  0.010841  0  -0.070645  -0.127841  0  3.927011  0
C  C83  1  0.47262949  0.66372457  0.21070356  1  -0.109516  0  -0.067889  -0.124163  0  3.92273  0
C  C84  1  0.56055535  0.30205603  0.17620741  1  -0.041124  0  -0.070269  -0.128846  0  3.927846  0
C  C85  1  0.47071762  0.12740657  0.67520846  1  -0.054564  0  -0.070203  -0.069975  0  3.963207  0
C  C86  1  0.47128783  0.87247818  0.67553086  1  -0.051925  0  -0.072301  -0.074752  0  3.971963  0
C  C87  1  0.47042604  0.62654851  0.17580439  1  0.085431  0  -0.069131  -0.069288  0  3.959605  0
C  C88  1  0.97619529  0.02108375  0.51341310  1  0.00851  0  0.002081  0.076495  0  4.022433  0
C  C89  1  0.56352028  0.33722210  0.13912837  1  -0.00123  0  -0.071539  -0.073017  0  3.969557  0
C  C90  1  0.48671457  0.21575885  0.69693111  1  0.375473  0  0.096922  0.181257  0  4.053481  0
C  C91  1  0.48910107  0.78390260  0.69716884  1  0.376976  0  0.095175  0.179766  0  4.051421  0
C  C92  1  0.48647636  0.71507327  0.19697003  1  0.385601  0  0.096932  0.181143  0  4.053115  0
C  C93  1  0.47752762  0.28829137  0.20125779  1  0.352358  0  0.095715  0.1802  0  4.052934  0
C  C94  1  0.48450709  0.14030029  0.62653582  1  0.036211  0  0.004477  -0.050572  0  3.89631  0
C  C95  1  0.48811199  0.85981083  0.62686513  1  0.03928  0  0.002765  -0.052482  0  3.904474  0
C  C96  1  0.48470905  0.63907646  0.12707033  1  -0.039425  0  0.005099  -0.050096  0  3.898248  0
C  C97  1  0.48545414  0.36061861  0.12725072  1  0.00673  0  0.001526  -0.057416  0  3.904621  0
C  C98  1  0.49724931  0.19219686  0.61309491  1  0.041736  0  0.020257  0.06341  0  4.040037  0
C  C99  1  0.97636967  0.52080281  0.01299892  1  -0.029074  0  0.003211  0.078794  0  4.019706  0
C  C100  1  0.50307376  0.80795116  0.61329662  1  0.053273  0  0.017937  0.062179  0  4.044582  0
C  C101  1  0.49755985  0.69088492  0.11325916  1  0.095728  0  0.018598  0.059494  0  4.043538  0
C  C102  1  0.40181696  0.34609996  0.15198350  1  0.080003  0  0.018927  0.065674  0  4.039811  0
C  C103  1  0.49597563  0.22969840  0.64866618  1  0.031798  0  -0.057778  -0.162229  0  3.869153  0
C  C104  1  0.50116739  0.77020096  0.64875557  1  0.017879  0  -0.057607  -0.162925  0  3.868185  0
C  C105  1  0.49615139  0.72864529  0.14858603  1  -0.021157  0  -0.05871  -0.163187  0  3.874235  0
C  C106  1  0.39862819  0.30910379  0.18813934  1  0.020275  0  -0.057515  -0.162511  0  3.868768  0
C  C107  1  0.26270447  0.00359631  0.51028223  1  1.603347  0  0.233147  0.60876  0  4.181019  0
C  C108  1  0.26303153  0.50454537  0.00934478  1  1.59144  0  0.2356  0.609131  0  4.18078  0
C  C109  1  0.73786473  0.99726474  0.49048245  1  1.582392  0  0.230505  0.605193  0  4.169874  0
C  C110  1  0.02304684  0.98114115  0.48516670  1  -0.008232  0  0.014855  0.057744  0  3.951459  0
C  C111  1  0.73863691  0.49742586  0.98876509  1  1.582783  0  0.230117  0.607435  0  4.167469  0
C  C112  1  0.16314425  0.00839069  0.51241551  1  0.061765  0  0.017011  -0.068299  0  3.871663  0
C  C113  1  0.16354620  0.50890763  0.01153591  1  0.097013  0  0.019246  -0.065427  0  3.866529  0
C  C114  1  0.83717965  0.99333298  0.48794312  1  -0.006746  0  -0.009629  -0.025865  0  3.97412  0
C  C115  1  0.83776413  0.49326398  0.98690660  1  -0.055212  0  -0.009746  -0.026747  0  3.975889  0
C  C116  1  0.97473827  0.94784281  0.45874031  1  -0.007792  0  -0.078359  -0.125176  0  3.96513  0
C  C117  1  0.97542490  0.44760566  0.95826727  1  -0.011113  0  -0.079588  -0.126387  0  3.968462  0
C  C118  1  0.88363575  0.95328054  0.46077299  1  -0.097418  0  -0.067791  -0.068322  0  3.948662  0
C  C119  1  0.88441726  0.45311574  0.95997594  1  -0.003169  0  -0.069507  -0.071138  0  3.953626  0
C  C120  1  0.88293351  0.02710980  0.51317768  1  0.030796  0  -0.065513  -0.123357  0  3.901234  0
C  C121  1  0.02351563  0.48100279  0.98469520  1  0.017647  0  0.01584  0.058181  0  3.946912  0
C  C122  1  0.88316418  0.52682693  0.01256562  1  -0.008685  0  -0.0651  -0.123744  0  3.898151  0
C  C123  1  0.16383024  0.93729502  0.45540972  1  0.864909  0  0.176673  0.236656  0  4.037228  0
C  C124  1  0.16436287  0.43752276  0.95468541  1  0.851432  0  0.178061  0.241797  0  4.032687  0
C  C125  1  0.50846144  0.20900649  0.56441417  1  0.841317  0  0.173895  0.240851  0  4.025155  0
C  C126  1  0.51672288  0.79196234  0.56434368  1  0.838077  0  0.17432  0.236717  0  4.021189  0
C  C127  1  0.50925781  0.70738549  0.06445659  1  0.844738  0  0.174866  0.24521  0  4.023717  0
C  C128  1  0.31863734  0.36596626  0.14056739  1  0.838999  0  0.170535  0.234898  0  4.025436  0
C  C129  1  0.15961783  0.08011533  0.57053318  1  0.857551  0  0.170461  0.227596  0  4.027078  0
C  C130  1  0.15907669  0.58092340  0.06969479  1  0.863945  0  0.172984  0.232651  0  4.028645  0
C  C131  1  0.11767513  0.97650972  0.48457231  1  0.086098  0  0.021626  0.007238  0  4.017277  0
N  N132  1  0.50639914  0.74269854  0.27028262  1  -0.465871  0  -0.139933  -0.1267  0  3.269514  0
N  N133  1  0.19658994  0.40401328  0.93066681  1  -1.099982  0  -0.308025  -0.350584  0  2.662382  0
N  N134  1  0.51683183  0.22641328  0.52595310  1  -1.111589  0  -0.319111  -0.360492  0  2.66742  0
N  N135  1  0.52676356  0.77609842  0.52528208  1  -1.110062  0  -0.311519  -0.354529  0  2.680229  0
N  N136  1  0.51810800  0.72452918  0.02588192  1  -1.116985  0  -0.318411  -0.365659  0  2.677424  0
N  N137  1  0.24764975  0.37895885  0.13301510  1  -1.095765  0  -0.317578  -0.356237  0  2.664585  0
N  N138  1  0.19357151  0.10875641  0.59404866  1  -1.106235  0  -0.308738  -0.346069  0  2.668988  0
N  N139  1  0.19170856  0.61049938  0.09288139  1  -1.100903  0  -0.309431  -0.347184  0  2.668804  0
N  N140  1  0.53465680  0.24666161  0.26035502  1  -0.504537  0  -0.140747  -0.12945  0  3.269515  0
N  N141  1  0.50801945  0.24289350  0.77018110  1  -0.489914  0  -0.142362  -0.133191  0  3.274141  0
N  N142  1  0.50716827  0.75662414  0.77102228  1  -0.491649  0  -0.141174  -0.128196  0  3.268399  0
N  N143  1  0.48879734  0.25642857  0.72964986  1  -0.461832  0  -0.14212  -0.128371  0  3.268432  0
N  N144  1  0.49119984  0.74311521  0.72992163  1  -0.450001  0  -0.145692  -0.134873  0  3.26655  0
N  N145  1  0.48856176  0.75600351  0.22940573  1  -0.479004  0  -0.146015  -0.135187  0  3.271133  0
N  N146  1  0.46658130  0.25252758  0.23908709  1  -0.463814  0  -0.143848  -0.131437  0  3.268412  0
N  N147  1  0.19680042  0.90392553  0.43145631  1  -1.101451  0  -0.303863  -0.342763  0  2.663547  0
O  O148  1  0.49963991  0.00002192  0.50077185  1  -1.235723  0  -0.572092  -1.037415  0  2.529218  0
O  O149  1  0.56533583  0.60302808  0.93991873  1  -1.166197  0  -0.310463  -0.539359  0  2.327584  0
O  O150  1  0.43718305  0.93923340  0.60041676  1  -1.16581  0  -0.309975  -0.539247  0  2.312195  0
O  O151  1  0.44316448  0.05835624  0.60254163  1  -1.163163  0  -0.308751  -0.537946  0  2.321868  0
O  O152  1  0.43147841  0.43547148  0.09421766  1  -1.153279  0  -0.299518  -0.53053  0  2.362708  0
O  O153  1  0.44529448  0.55656148  0.10324048  1  -1.154064  0  -0.308676  -0.537901  0  2.314068  0
O  O154  1  0.45582152  0.06270599  0.40765665  1  -1.163212  0  -0.314551  -0.546817  0  2.353579  0
O  O155  1  0.46012918  0.94127258  0.40301980  1  -1.167843  0  -0.313182  -0.547122  0  2.351001  0
O  O156  1  0.45648555  0.56167855  0.90690814  1  -1.166021  0  -0.314741  -0.548105  0  2.351581  0
O  O157  1  0.46452268  0.44079731  0.90350193  1  -1.160773  0  -0.311194  -0.542323  0  2.353475  0
O  O158  1  0.29357773  0.00255783  0.55001031  1  -1.148096  0  -0.297621  -0.523438  0  2.315992  0
O  O159  1  0.50080552  0.49966106  0.00056939  1  -1.237949  0  -0.572356  -1.037701  0  2.531219  0
O  O160  1  0.29383195  0.50674950  0.04898158  1  -1.142084  0  -0.290754  -0.511456  0  2.333575  0
O  O161  1  0.70106755  0.04052560  0.50194093  1  -1.165411  0  -0.311994  -0.542431  0  2.306924  0
O  O162  1  0.69872505  0.95620630  0.48111797  1  -1.171377  0  -0.310787  -0.541657  0  2.33293  0
O  O163  1  0.70194746  0.54075837  0.00008515  1  -1.163848  0  -0.310715  -0.540554  0  2.307227  0
O  O164  1  0.69932355  0.45655595  0.97892806  1  -1.170626  0  -0.314663  -0.549493  0  2.330003  0
O  O165  1  0.30531697  0.00140343  0.46846704  1  -1.158439  0  -0.296184  -0.520586  0  2.352279  0
O  O166  1  0.30585440  0.49953486  0.96771641  1  -1.153124  0  -0.298424  -0.526209  0  2.355693  0
O  O167  1  0.53560551  0.10659757  0.55034230  1  -1.166743  0  -0.301219  -0.533136  0  2.36439  0
O  O168  1  0.54936211  0.89646139  0.55383442  1  -1.16458  0  -0.302294  -0.53184  0  2.353606  0
O  O169  1  0.53683862  0.60544880  0.05118973  1  -1.164372  0  -0.301851  -0.534225  0  2.371812  0
O  O170  1  0.55967334  0.39854839  0.05696917  1  -1.156499  0  -0.312828  -0.542595  0  2.307369  0
O  O171  1  0.54935252  0.89137272  0.44335554  1  -1.156995  0  -0.30926  -0.535935  0  2.354652  0
O  O172  1  0.57353309  0.09928602  0.43677035  1  -1.151086  0  -0.309838  -0.539474  0  2.326802  0
O  O173  1  0.54646100  0.38912055  0.94640595  1  -1.170779  0  -0.31395  -0.546118  0  2.328488  0
