# generated using pymatgen
data_CuH6C6S2(BrN)2
_symmetry_space_group_name_H-M   'P 1'
_cell_length_a   3.93191234
_cell_length_b   7.43598623
_cell_length_c   17.49562572
_cell_angle_alpha   93.30377139
_cell_angle_beta   89.98281837
_cell_angle_gamma   89.97359890
_symmetry_Int_Tables_number   1
_chemical_formula_structural   CuH6C6S2(BrN)2
_chemical_formula_sum   'Cu2 H12 C12 S4 Br4 N4'
_cell_volume   510.68067902
_cell_formula_units_Z   2
loop_
 _symmetry_equiv_pos_site_id
 _symmetry_equiv_pos_as_xyz
  1  'x, y, z'
loop_
 _atom_site_type_symbol
 _atom_site_label
 _atom_site_symmetry_multiplicity
 _atom_site_fract_x
 _atom_site_fract_y
 _atom_site_fract_z
 _atom_site_occupancy
 _atom_site_hle17_ddec_charge
 _atom_site_hle17_ddec_spin_density
 _atom_site_hle17_ddec_sum_bond_order
 _atom_site_hle17_magmom
 _atom_site_hse06_10hf_ddec_charge
 _atom_site_hse06_10hf_ddec_spin_density
 _atom_site_hse06_10hf_ddec_sum_bond_order
 _atom_site_hse06_10hf_magmom
 _atom_site_hse06_ddec_charge
 _atom_site_hse06_ddec_spin_density
 _atom_site_hse06_ddec_sum_bond_order
 _atom_site_hse06_magmom
 _atom_site_pbe_cm5_charge
 _atom_site_pbe_ddec_charge
 _atom_site_pbe_ddec_spin_density
 _atom_site_pbe_ddec_sum_bond_order
 _atom_site_pbe_magmom
Cu  Cu0  1  0.50000909  0.50000001  0.99999949  1  0.6645  0.553017  1.899926  0.407  0.653097  0.669353  2.2775  0.53  0.7467  0.747806  2.206558  0.62  0.549082  0.604066  0.623066  2.320386  0.48
Cu  Cu1  1  0.00000109  0.49999631  0.50000010  1  0.664749  0.553124  1.899868  0.407  0.653587  0.669455  2.277241  0.53  0.747282  0.747963  2.206254  0.62  0.549186  0.604559  0.623161  2.320149  0.48
H  H2  1  0.70019545  0.89295202  0.96375308  1  0.118512  0.000586  0.969862  0.001  0.123652  0.000574  1.038688  0.001  0.127037  0.000456  1.034122  0.001  0.108162  0.12124  0.000663  1.041733  0.001
H  H3  1  0.20025863  0.10694489  0.53621214  1  0.118696  0.000579  0.969523  0.001  0.123544  0.000575  1.038704  0.001  0.126931  0.000457  1.034123  0.001  0.108199  0.121124  0.000664  1.041736  0.001
H  H4  1  0.29981380  0.10704811  0.03624726  1  0.118504  0.000583  0.969747  0.001  0.12363  0.000574  1.038593  0.001  0.127016  0.000456  1.034024  0.001  0.108137  0.121217  0.000663  1.041636  0.001
H  H5  1  0.79975317  0.89304986  0.46378810  1  0.118694  0.000581  0.96962  0.001  0.123571  0.000575  1.038751  0.001  0.126956  0.000457  1.034169  0.001  0.108188  0.121149  0.000664  1.041781  0.001
H  H6  1  0.33420901  0.70934744  0.72563784  1  0.135113  0.000361  0.995289  0.0  0.140906  0.000519  1.063333  0.0  0.145532  0.0004  1.059794  0.0  0.096161  0.137757  0.000607  1.06561  0.001
H  H7  1  0.83420111  0.29070844  0.77438194  1  0.135219  0.000363  0.99506  0.0  0.140884  0.000518  1.063282  0.0  0.145508  0.000399  1.059748  0.0  0.09608  0.137743  0.000606  1.065541  0.001
H  H8  1  0.66576209  0.29066889  0.27436398  1  0.135109  0.000362  0.995286  0.0  0.140873  0.000519  1.063401  0.0  0.145498  0.0004  1.059863  0.0  0.096161  0.137722  0.000608  1.065684  0.001
H  H9  1  0.16580306  0.70928227  0.22561822  1  0.135231  0.00036  0.994975  0.0  0.14088  0.000518  1.063235  0.0  0.145504  0.000399  1.059701  0.0  0.096075  0.137739  0.000607  1.065508  0.001
H  H10  1  0.30294206  0.45419467  0.82941144  1  0.09733  0.000126  0.975577  0.0  0.106083  0.000346  1.040059  0.0  0.10889  0.000278  1.037949  0.0  0.104166  0.104026  0.000406  1.041634  0.0
H  H11  1  0.80287255  0.54587511  0.67061033  1  0.09725  0.000133  0.975573  0.0  0.106074  0.000347  1.039979  0.0  0.108898  0.000279  1.037846  0.0  0.104084  0.103999  0.000408  1.041604  0.0
H  H12  1  0.69705702  0.54581216  0.17058733  1  0.097324  0.000128  0.975553  0.0  0.106053  0.000346  1.040062  0.0  0.10886  0.000278  1.037953  0.0  0.104166  0.104002  0.000407  1.041641  0.0
H  H13  1  0.19712399  0.45411423  0.32938923  1  0.09716  0.000131  0.97563  0.0  0.106009  0.000348  1.040045  0.0  0.108833  0.000279  1.037912  0.0  0.104078  0.103944  0.000409  1.041634  0.0
C  C14  1  0.59920843  0.82136157  0.91289371  1  0.038824  -0.012989  3.616264  -0.01  0.006229  -0.002787  3.890158  -0.002  0.021407  -0.005056  3.898982  -0.004  0.038919  -0.003092  -0.001059  3.88398  -0.001
C  C15  1  0.09925738  0.17857645  0.58708545  1  0.038456  -0.012967  3.616407  -0.01  0.006093  -0.002794  3.890491  -0.002  0.021301  -0.005061  3.899275  -0.004  0.038839  -0.003248  -0.001065  3.884362  -0.001
C  C16  1  0.40079573  0.17864262  0.08710729  1  0.038742  -0.012985  3.616299  -0.01  0.006157  -0.002786  3.890193  -0.002  0.021334  -0.005056  3.899023  -0.004  0.038896  -0.003144  -0.001059  3.883987  -0.001
C  C17  1  0.90075442  0.82141692  0.41291362  1  0.03844  -0.01299  3.616612  -0.01  0.006085  -0.002793  3.890598  -0.002  0.021293  -0.00506  3.899385  -0.004  0.038865  -0.003245  -0.001065  3.884472  -0.001
C  C18  1  0.40389383  0.72072523  0.78590955  1  -0.226679  0.006627  3.692374  0.007  -0.238135  0.002783  3.963563  0.003  -0.243316  0.002663  3.982289  0.003  -0.108445  -0.234537  0.002873  3.950534  0.003
C  C19  1  0.90388870  0.27929788  0.71409132  1  -0.226937  0.006638  3.692727  0.007  -0.238333  0.002786  3.963983  0.003  -0.243515  0.002664  3.982718  0.003  -0.108605  -0.234743  0.002874  3.950979  0.003
C  C20  1  0.59608490  0.27928706  0.21409218  1  -0.226637  0.006625  3.692247  0.007  -0.238094  0.002783  3.963417  0.003  -0.24327  0.002663  3.98213  0.003  -0.108461  -0.23451  0.002873  3.950441  0.003
C  C21  1  0.09612055  0.72069552  0.28590890  1  -0.227043  0.006638  3.692619  0.007  -0.238435  0.002785  3.963907  0.003  -0.243618  0.002663  3.98264  0.003  -0.10869  -0.234854  0.002874  3.950919  0.003
C  C22  1  0.39206906  0.59182208  0.83845234  1  0.082161  -0.002688  3.716486  -0.002  0.053265  0.000657  3.967614  0.001  0.058076  -0.00055  3.989947  0.0  0.001174  0.050429  0.001479  3.952885  0.001
C  C23  1  0.89202525  0.40819637  0.66155731  1  0.082297  -0.00272  3.716542  -0.002  0.05345  0.000652  3.967641  0.001  0.058269  -0.000553  3.989948  0.0  0.001403  0.050587  0.001476  3.952942  0.001
C  C24  1  0.60792747  0.40818609  0.16154646  1  0.082135  -0.002698  3.716369  -0.002  0.053261  0.000656  3.967499  0.001  0.058076  -0.000551  3.989832  0.0  0.00114  0.050421  0.00148  3.952779  0.001
C  C25  1  0.10797892  0.59179838  0.33844293  1  0.082553  -0.002714  3.716525  -0.002  0.053656  0.000653  3.967588  0.001  0.058476  -0.000552  3.989895  0.0  0.001503  0.050817  0.001477  3.952916  0.001
S  S26  1  0.55698809  0.91905770  0.82768304  1  0.178298  0.007494  2.752  0.007  0.189323  0.006929  3.104687  0.006  0.18935  0.004748  3.107927  0.005  0.10075  0.189149  0.008606  3.102227  0.007
S  S27  1  0.05704805  0.08089054  0.67230227  1  0.178481  0.007481  2.752506  0.007  0.189595  0.006921  3.105026  0.006  0.189627  0.004742  3.108255  0.005  0.100908  0.189404  0.008601  3.102569  0.007
S  S28  1  0.44299572  0.08095326  0.17231924  1  0.178274  0.007491  2.752064  0.007  0.189306  0.006929  3.104736  0.006  0.189334  0.004747  3.107975  0.005  0.100745  0.189131  0.008607  3.102289  0.007
S  S29  1  0.94296120  0.91910421  0.32769797  1  0.178502  0.007483  2.752591  0.007  0.1896  0.006921  3.1051  0.006  0.189631  0.004743  3.10833  0.005  0.100919  0.189415  0.008602  3.102652  0.007
Br  Br30  1  0.89109041  0.27995046  0.93117141  1  -0.47726  0.162424  1.054459  0.165  -0.491593  0.110598  1.382562  0.116  -0.530586  0.083469  1.359869  0.094  -0.246004  -0.469329  0.126734  1.399193  0.126
Br  Br31  1  0.39078877  0.71990779  0.56882596  1  -0.477299  0.162321  1.054881  0.164  -0.491628  0.110599  1.382865  0.116  -0.53072  0.083461  1.360291  0.094  -0.245968  -0.469272  0.12665  1.399341  0.126
Br  Br32  1  0.10892393  0.72004830  0.06882777  1  -0.477282  0.162424  1.054452  0.165  -0.49161  0.11064  1.382554  0.116  -0.530603  0.08347  1.359864  0.094  -0.246015  -0.469335  0.126726  1.399165  0.126
Br  Br33  1  0.60918997  0.28008827  0.43117260  1  -0.477308  0.162307  1.054861  0.164  -0.491612  0.110587  1.382844  0.116  -0.530702  0.083451  1.360265  0.094  -0.245975  -0.469264  0.126628  1.399318  0.126
N  N34  1  0.50265151  0.65085890  0.91038562  1  -0.278546  0.061581  3.413147  0.08  -0.216273  0.045674  3.692424  0.062  -0.249734  0.039661  3.719392  0.057  -0.369395  -0.197676  0.048186  3.676983  0.063
N  N35  1  0.00263601  0.34911900  0.58960540  1  -0.278515  0.061589  3.412975  0.08  -0.216475  0.045682  3.692417  0.062  -0.249943  0.039663  3.719378  0.057  -0.369566  -0.197881  0.048194  3.676988  0.063
N  N36  1  0.49735775  0.34914389  0.08961307  1  -0.278432  0.06159  3.413105  0.08  -0.216132  0.045674  3.692315  0.062  -0.249602  0.039662  3.719297  0.057  -0.369277  -0.197535  0.048182  3.676889  0.063
N  N37  1  0.99737324  0.65087842  0.41039375  1  -0.278615  0.061605  3.413087  0.08  -0.216544  0.045682  3.692503  0.062  -0.250013  0.039663  3.719465  0.057  -0.369586  -0.197973  0.04819  3.67711  0.063
