# generated using pymatgen
data_CoH8(C5N7)2
_symmetry_space_group_name_H-M   'P 1'
_cell_length_a   8.14585907
_cell_length_b   8.08537451
_cell_length_c   11.79494643
_cell_angle_alpha   109.42177323
_cell_angle_beta   91.60878151
_cell_angle_gamma   99.36522672
_symmetry_Int_Tables_number   1
_chemical_formula_structural   CoH8(C5N7)2
_chemical_formula_sum   'Co2 H16 C20 N28'
_cell_volume   720.04721201
_cell_formula_units_Z   2
loop_
 _symmetry_equiv_pos_site_id
 _symmetry_equiv_pos_as_xyz
  1  'x, y, z'
loop_
 _atom_site_type_symbol
 _atom_site_label
 _atom_site_symmetry_multiplicity
 _atom_site_fract_x
 _atom_site_fract_y
 _atom_site_fract_z
 _atom_site_occupancy
 _atom_site_hle17_ddec_charge
 _atom_site_hle17_ddec_spin_density
 _atom_site_hle17_ddec_sum_bond_order
 _atom_site_hle17_magmom
 _atom_site_hse06_10hf_ddec_charge
 _atom_site_hse06_10hf_ddec_spin_density
 _atom_site_hse06_10hf_ddec_sum_bond_order
 _atom_site_hse06_10hf_magmom
 _atom_site_hse06_ddec_charge
 _atom_site_hse06_ddec_spin_density
 _atom_site_hse06_ddec_sum_bond_order
 _atom_site_hse06_magmom
 _atom_site_pbe_cm5_charge
 _atom_site_pbe_ddec_charge
 _atom_site_pbe_ddec_spin_density
 _atom_site_pbe_ddec_sum_bond_order
 _atom_site_pbe_magmom
Co  Co0  1  0.80209973  0.99180809  0.01902051  1  0.5615  1.130042  2.712542  0.994  0.584991  1.005193  3.13173  0.907  0.649558  1.021141  3.064042  0.929  0.683307  0.551805  0.975638  3.171185  0.865
Co  Co1  1  0.19789312  0.00819166  0.98098070  1  0.561839  1.130047  2.712278  0.994  0.585183  1.005189  3.131523  0.907  0.649682  1.021141  3.063864  0.929  0.683291  0.551913  0.97562  3.170975  0.865
H  H2  1  0.72891362  0.82676424  0.75388248  1  0.077412  8.9e-05  0.980737  0.001  0.080745  -2.8e-05  1.054303  0.0  0.082543  9e-06  1.051521  0.0  0.117439  0.078949  1.1e-05  1.056911  0.0
H  H3  1  0.27109073  0.17323828  0.24611956  1  0.077368  8.7e-05  0.980778  0.001  0.080698  -2.8e-05  1.054358  0.0  0.082499  9e-06  1.05157  0.0  0.11744  0.078899  1.1e-05  1.056968  0.0
H  H4  1  0.62384158  0.92269860  0.59065609  1  0.120219  -0.000273  0.965725  0.0  0.120775  -1.6e-05  1.040881  0.0  0.124697  -5.2e-05  1.039336  0.0  0.107971  0.118072  4e-05  1.042034  0.0
H  H5  1  0.37617215  0.07730136  0.40934211  1  0.120178  -0.000276  0.965757  0.0  0.120788  -1.6e-05  1.040801  0.0  0.124718  -5.2e-05  1.039248  0.0  0.107984  0.11809  4.1e-05  1.041957  0.0
H  H6  1  0.68330668  0.45665556  0.85124744  1  0.119491  -8e-05  0.96623  0.0  0.124902  0.000316  1.035259  0.0  0.128273  0.00024  1.034344  0.0  0.108329  0.122214  0.000427  1.036306  0.0
H  H7  1  0.31668079  0.54334151  0.14875052  1  0.119459  -7.9e-05  0.966385  0.0  0.124959  0.000316  1.035324  0.0  0.128331  0.00024  1.034407  0.0  0.108288  0.122267  0.000427  1.036373  0.0
H  H8  1  0.79233332  0.33873866  0.00255548  1  0.077187  -4.8e-05  0.960782  0.001  0.087216  -0.00017  1.023229  0.0  0.089022  -0.00012  1.020911  0.0  0.11915  0.085439  -0.000132  1.025549  0.0
H  H9  1  0.20764377  0.66126227  0.99744746  1  0.07724  -4.8e-05  0.960826  0.001  0.087147  -0.000171  1.023387  0.0  0.08895  -0.00012  1.021072  0.0  0.119172  0.085375  -0.000132  1.0257  0.0
H  H10  1  0.83794301  0.15936504  0.28394753  1  0.079979  -0.000153  0.991949  0.001  0.083361  -0.000233  1.066148  0.0  0.085239  -0.000225  1.062725  0.0  0.116879  0.0815  -0.000213  1.069138  0.0
H  H11  1  0.16205662  0.84063879  0.71605219  1  0.079936  -0.000152  0.992013  0.001  0.083345  -0.000233  1.066166  0.0  0.08521  -0.000225  1.062756  0.0  0.116853  0.081481  -0.000213  1.069153  0.0
H  H12  1  0.85328667  0.05884250  0.45932579  1  0.124952  -0.000266  0.944563  0.0  0.132506  1e-06  1.007424  0.0  0.135762  -2.7e-05  1.006573  0.0  0.111642  0.130224  2.8e-05  1.008162  0.0
H  H13  1  0.14672847  0.94115887  0.54066767  1  0.124968  -0.000271  0.944543  0.0  0.132512  1e-06  1.007397  0.0  0.135769  -2.7e-05  1.006546  0.0  0.111673  0.130222  2.8e-05  1.008153  0.0
H  H14  1  0.80236661  0.51905319  0.20851057  1  0.118127  -0.00044  0.976453  0.0  0.123213  2e-06  1.046712  0.0  0.126129  -0.000124  1.046812  0.0  0.105644  0.120734  0.00014  1.047279  0.0
H  H15  1  0.19762979  0.48095323  0.79149479  1  0.118132  -0.00044  0.976458  0.0  0.123214  2e-06  1.046709  0.0  0.12613  -0.000124  1.046811  0.0  0.105639  0.120728  0.00014  1.04728  0.0
H  H16  1  0.79603047  0.64527408  0.04218938  1  0.081224  -4.8e-05  0.956206  0.001  0.089888  -0.00015  1.021692  0.0  0.092405  -9.4e-05  1.017867  0.0  0.117861  0.087525  -0.000133  1.025109  0.0
H  H17  1  0.20395256  0.35472555  0.95781589  1  0.08115  -4.7e-05  0.956314  0.001  0.089779  -0.00015  1.021854  0.0  0.092285  -9.4e-05  1.01804  0.0  0.117876  0.087418  -0.000133  1.025254  0.0
C  C18  1  0.71908261  0.96539698  0.77199646  1  0.137006  -0.019963  3.673712  -0.013  0.107014  -0.006404  3.928475  -0.004  0.119084  -0.004833  3.944447  -0.003  0.042311  0.098573  -0.007169  3.919403  -0.004
C  C19  1  0.28091559  0.03460547  0.22800632  1  0.137157  -0.019924  3.673885  -0.013  0.107137  -0.006403  3.928676  -0.004  0.119213  -0.004835  3.944635  -0.003  0.042314  0.098681  -0.00717  3.919597  -0.004
C  C20  1  0.65999287  0.01880263  0.68098583  1  -0.184487  0.005765  3.687966  0.008  -0.20392  0.000786  3.940089  0.001  -0.213357  0.000847  3.956659  0.001  -0.08516  -0.197844  0.000601  3.929439  0.001
C  C21  1  0.34000366  0.98119716  0.31901461  1  -0.184528  0.005752  3.687935  0.008  -0.203944  0.000786  3.940074  0.001  -0.213389  0.000847  3.956639  0.001  -0.085155  -0.197876  0.000601  3.929439  0.001
C  C22  1  0.64437752  0.19719693  0.70785506  1  0.247719  -0.0194  3.827991  -0.013  0.246967  -0.006231  4.081988  -0.004  0.261432  -0.003976  4.097765  -0.002  0.114194  0.236922  -0.007971  4.071567  -0.005
C  C23  1  0.35561899  0.80280289  0.29214283  1  0.247832  -0.019374  3.827803  -0.013  0.247015  -0.006232  4.081883  -0.004  0.26148  -0.003973  4.097661  -0.002  0.114181  0.236968  -0.00797  4.071466  -0.005
C  C24  1  0.69310645  0.31629395  0.82559754  1  -0.207338  0.005515  3.719488  0.008  -0.226662  0.000862  3.969766  0.002  -0.236322  0.00095  3.987131  0.001  -0.094821  -0.220949  0.000706  3.959501  0.002
C  C25  1  0.30687734  0.68370308  0.17440121  1  -0.207612  0.005497  3.719554  0.008  -0.227003  0.000861  3.969823  0.002  -0.236664  0.000949  3.987188  0.001  -0.094966  -0.221295  0.000706  3.959573  0.002
C  C26  1  0.75274870  0.25154737  0.91034074  1  0.134284  -0.01822  3.692856  -0.012  0.106484  -0.006066  3.944208  -0.004  0.118504  -0.004559  3.959241  -0.003  0.040156  0.098086  -0.006587  3.93596  -0.004
C  C27  1  0.24723452  0.74845364  0.08965977  1  0.134492  -0.018191  3.692929  -0.012  0.106776  -0.006062  3.944314  -0.004  0.118798  -0.00456  3.959343  -0.003  0.040292  0.098348  -0.006588  3.936071  -0.004
C  C28  1  0.83464810  0.01930909  0.27020316  1  0.134333  -0.018147  3.676724  -0.012  0.104411  -0.005993  3.930037  -0.004  0.116378  -0.004525  3.945437  -0.003  0.04452  0.096319  -0.006757  3.921092  -0.004
C  C29  1  0.16535088  0.98069073  0.72979647  1  0.134382  -0.018152  3.676812  -0.012  0.104483  -0.005992  3.930125  -0.004  0.116465  -0.004527  3.945527  -0.003  0.044566  0.096385  -0.00676  3.921167  -0.004
C  C30  1  0.84141434  0.96228570  0.36840359  1  -0.189128  0.005058  3.696495  0.007  -0.212531  0.000616  3.954002  0.001  -0.221576  0.000738  3.970562  0.001  -0.087881  -0.206673  0.000399  3.943154  0.001
C  C31  1  0.15859427  0.03771287  0.63159590  1  -0.189211  0.005068  3.696613  0.007  -0.212574  0.000616  3.95411  0.001  -0.221619  0.00074  3.970666  0.001  -0.087973  -0.206723  0.000399  3.943263  0.001
C  C32  1  0.83120584  0.78009852  0.34858044  1  0.239424  -0.017908  3.846498  -0.012  0.236549  -0.005767  4.108573  -0.004  0.251187  -0.003657  4.124781  -0.002  0.108196  0.226505  -0.007427  4.097582  -0.005
C  C33  1  0.16880176  0.21990136  0.65142019  1  0.239351  -0.01792  3.846434  -0.012  0.23649  -0.005771  4.108547  -0.004  0.251129  -0.003665  4.124756  -0.002  0.108194  0.226443  -0.007427  4.097557  -0.005
C  C34  1  0.81296186  0.66225135  0.22887720  1  -0.220789  0.005135  3.721844  0.007  -0.241282  0.000822  3.973788  0.001  -0.252228  0.000864  3.99252  0.001  -0.101234  -0.234485  0.000707  3.962292  0.001
C  C35  1  0.18704106  0.33774978  0.77112789  1  -0.220879  0.005133  3.721705  0.007  -0.241347  0.000823  3.973664  0.001  -0.252294  0.000867  3.992394  0.001  -0.101249  -0.234557  0.000707  3.962172  0.001
C  C36  1  0.80917221  0.73140542  0.13611841  1  0.142669  -0.017631  3.677077  -0.011  0.114026  -0.006012  3.930284  -0.004  0.126969  -0.004508  3.943768  -0.003  0.043679  0.105179  -0.006607  3.92281  -0.004
C  C37  1  0.19082312  0.26859432  0.86388623  1  0.142808  -0.017629  3.676938  -0.011  0.114195  -0.006011  3.93017  -0.004  0.127151  -0.004514  3.943652  -0.003  0.043664  0.105342  -0.006609  3.922691  -0.004
N  N38  1  0.00984977  0.17010659  0.07529167  1  -0.457969  -0.005347  2.934648  0.004  -0.495821  -0.00042  3.290644  0.005  -0.531511  -0.009585  3.299236  -0.004  -0.294553  -0.472329  0.00918  3.283137  0.014
N  N39  1  0.99014319  0.82988652  0.92470546  1  -0.457918  -0.005346  2.934615  0.004  -0.495784  -0.000418  3.290624  0.005  -0.531473  -0.009584  3.299221  -0.004  -0.294539  -0.472292  0.00918  3.283115  0.014
N  N40  1  0.04111173  0.29057492  0.17081858  1  0.364842  -0.003211  4.145909  -0.001  0.417139  0.003952  4.45113  0.006  0.435826  0.000237  4.484844  0.002  0.082518  0.404406  0.006416  4.426763  0.009
N  N41  1  0.95889150  0.70942096  0.82917850  1  0.364822  -0.003207  4.146128  -0.001  0.417124  0.003952  4.451348  0.006  0.435811  0.000238  4.485062  0.002  0.082532  0.404391  0.006416  4.426975  0.009
N  N42  1  0.07825706  0.40975537  0.26189095  1  -0.380753  0.026468  2.399207  0.043  -0.407036  0.029331  2.653352  0.042  -0.423605  0.02743  2.669266  0.04  -0.198717  -0.392139  0.035578  2.640337  0.049
N  N43  1  0.92174864  0.59024052  0.73810703  1  -0.380824  0.026458  2.399377  0.043  -0.407107  0.029325  2.653525  0.042  -0.423682  0.027428  2.669444  0.04  -0.198763  -0.39221  0.035573  2.640506  0.049
N  N44  1  0.61312507  0.79548410  0.95119140  1  -0.438581  0.017924  2.77633  0.036  -0.477981  0.021815  3.105048  0.032  -0.507244  0.021747  3.115791  0.033  -0.277889  -0.455826  0.025249  3.094732  0.035
N  N45  1  0.38687426  0.20451040  0.04880615  1  -0.438703  0.017941  2.776432  0.036  -0.478074  0.021818  3.1051  0.032  -0.507327  0.021747  3.115833  0.033  -0.277952  -0.455914  0.025252  3.09478  0.035
N  N46  1  0.48252688  0.81046309  0.91016894  1  0.364629  0.000987  4.155239  0.008  0.416191  0.00682  4.465862  0.013  0.434611  0.004659  4.502034  0.011  0.081569  0.403339  0.008275  4.43859  0.014
N  N47  1  0.51746690  0.18952733  0.08983097  1  0.364717  0.000975  4.155261  0.008  0.416282  0.006818  4.465865  0.013  0.434701  0.004658  4.502037  0.011  0.08166  0.403427  0.008272  4.438595  0.014
N  N48  1  0.35137512  0.81942780  0.86964624  1  -0.389  -0.041955  2.611202  -0.027  -0.423977  -0.009221  2.909978  -0.003  -0.445303  -0.021311  2.921003  -0.012  -0.210847  -0.407819  0.001434  2.900812  0.007
N  N49  1  0.64861809  0.18056661  0.13035543  1  -0.388992  -0.041945  2.611164  -0.027  -0.423977  -0.009218  2.90997  -0.003  -0.44531  -0.021309  2.921004  -0.012  -0.210881  -0.407828  0.001436  2.900823  0.007
N  N50  1  0.76209166  0.07775669  0.88666293  1  -0.256164  -0.005061  3.370976  0.001  -0.206827  -0.008202  3.642117  -0.005  -0.234061  -0.008871  3.661251  -0.006  -0.338865  -0.192578  -0.005131  3.631755  -0.003
N  N51  1  0.23789036  0.92224426  0.11334179  1  -0.256355  -0.00508  3.371343  0.001  -0.206995  -0.008203  3.642457  -0.005  -0.234218  -0.008871  3.661578  -0.006  -0.338856  -0.192695  -0.00513  3.632032  -0.003
N  N52  1  0.58057390  0.24533760  0.61400141  1  -0.247428  0.001746  3.001119  0.004  -0.233101  9.2e-05  3.275955  0.001  -0.252218  0.000125  3.28956  0.0  -0.14566  -0.220031  2.6e-05  3.266728  0.001
N  N53  1  0.41943691  0.75465971  0.38599274  1  -0.247333  0.001755  3.00109  0.004  -0.232936  9.1e-05  3.275902  0.001  -0.252051  0.000124  3.289503  0.0  -0.145581  -0.219866  2.6e-05  3.266678  0.001
N  N54  1  0.56582316  0.40165091  0.63346909  1  0.342325  -0.002693  3.994642  -0.002  0.371263  -0.000717  4.300442  -0.001  0.384838  -0.000152  4.320515  0.0  0.145067  0.361698  -0.001345  4.287608  -0.001
N  N55  1  0.43418910  0.59834775  0.36652455  1  0.342136  -0.002727  3.994672  -0.002  0.371034  -0.000717  4.300495  -0.001  0.38461  -0.000154  4.32057  0.0  0.144929  0.361468  -0.001345  4.287661  -0.001
N  N56  1  0.54323249  0.53963110  0.63717815  1  -0.176605  -0.009227  2.404147  -0.007  -0.182888  -0.002173  2.637086  -0.001  -0.179905  -0.001264  2.644384  -0.001  -0.062737  -0.185841  -0.002952  2.633039  -0.002
N  N57  1  0.45678198  0.46036628  0.36281183  1  -0.176517  -0.009208  2.404075  -0.007  -0.182775  -0.002172  2.637017  -0.001  -0.179807  -0.001259  2.644337  -0.001  -0.062679  -0.185715  -0.002952  2.632952  -0.002
N  N58  1  0.81999442  0.90722460  0.15473074  1  -0.242084  -0.008946  3.363405  -0.003  -0.1909  -0.009825  3.631564  -0.007  -0.217966  -0.009539  3.649653  -0.007  -0.334432  -0.176584  -0.007989  3.621653  -0.005
N  N59  1  0.18000023  0.09277116  0.84527042  1  -0.242075  -0.008954  3.363294  -0.003  -0.190964  -0.009827  3.631529  -0.007  -0.218022  -0.009538  3.649599  -0.007  -0.334427  -0.176636  -0.007989  3.621599  -0.005
N  N60  1  0.83816607  0.72907624  0.45091993  1  -0.258401  0.00148  3.011568  0.003  -0.244313  4e-05  3.291153  0.001  -0.264418  8.6e-05  3.30634  0.0  -0.151784  -0.230677  -3.3e-05  3.280991  0.001
N  N61  1  0.16185390  0.27093175  0.54908193  1  -0.258243  0.001486  3.011549  0.003  -0.244221  3.9e-05  3.291191  0.001  -0.264324  8.4e-05  3.306375  0.0  -0.151789  -0.23059  -3.3e-05  3.281036  0.001
N  N62  1  0.82671841  0.57021472  0.44070005  1  0.340631  -0.002136  3.991717  -0.001  0.367881  -0.000585  4.299136  0.0  0.380734  -0.000138  4.319674  0.0  0.145962  0.358723  -0.001121  4.286083  -0.001
N  N63  1  0.17329934  0.42979455  0.55930462  1  0.340496  -0.002146  3.991798  -0.001  0.367796  -0.000585  4.299222  0.0  0.380648  -0.000141  4.319762  0.0  0.145885  0.358639  -0.001121  4.286172  -0.001
N  N64  1  0.81650818  0.43152297  0.44831799  1  -0.159303  -0.009065  2.417652  -0.006  -0.168303  -0.002431  2.658961  -0.002  -0.163473  -0.001512  2.664227  -0.001  -0.051756  -0.172394  -0.003273  2.656404  -0.002
N  N65  1  0.18350933  0.56848501  0.55168298  1  -0.159199  -0.009072  2.417697  -0.006  -0.168236  -0.00243  2.659015  -0.002  -0.163405  -0.001504  2.664282  -0.001  -0.05168  -0.17233  -0.003274  2.656457  -0.002
