# generated using pymatgen
data_CsH4C14BrN4O
_symmetry_space_group_name_H-M   'P 1'
_cell_length_a   5.43576637
_cell_length_b   15.64187369
_cell_length_c   18.18700330
_cell_angle_alpha   90.00039844
_cell_angle_beta   90.00034751
_cell_angle_gamma   94.05923302
_symmetry_Int_Tables_number   1
_chemical_formula_structural   CsH4C14BrN4O
_chemical_formula_sum   'Cs4 H16 C56 Br4 N16 O4'
_cell_volume   1542.48114424
_cell_formula_units_Z   4
loop_
 _symmetry_equiv_pos_site_id
 _symmetry_equiv_pos_as_xyz
  1  'x, y, z'
loop_
 _atom_site_type_symbol
 _atom_site_label
 _atom_site_symmetry_multiplicity
 _atom_site_fract_x
 _atom_site_fract_y
 _atom_site_fract_z
 _atom_site_occupancy
 _atom_site_hle17_bader_spin_density
 _atom_site_hle17_ddec_charge
 _atom_site_hle17_ddec_spin_density
 _atom_site_hle17_ddec_sum_bond_order
 _atom_site_hle17_magmom
 _atom_site_hse06_10hf_bader_spin_density
 _atom_site_hse06_10hf_ddec_charge
 _atom_site_hse06_10hf_ddec_spin_density
 _atom_site_hse06_10hf_ddec_sum_bond_order
 _atom_site_hse06_10hf_magmom
 _atom_site_hse06_bader_spin_density
 _atom_site_hse06_ddec_charge
 _atom_site_hse06_ddec_spin_density
 _atom_site_hse06_ddec_sum_bond_order
 _atom_site_hse06_magmom
 _atom_site_pbe_bader_spin_density
 _atom_site_pbe_cm5_charge
 _atom_site_pbe_ddec_charge
 _atom_site_pbe_ddec_spin_density
 _atom_site_pbe_ddec_sum_bond_order
 _atom_site_pbe_magmom
Cs  Cs0  1  0.83845658  0.89674460  0.61439548  1  0  0.953395  0  0.473393  0  0  0.901601  0  0.685744  0  0  0.914052  0  0.665888  0  0  0.849426  0.892525  0  0.699849  0
Cs  Cs1  1  0.16154447  0.60325553  0.11439573  1  0  0.9534  0  0.473427  0  0  0.901617  0  0.685776  0  0  0.914057  0  0.665933  0  0  0.849459  0.892541  0  0.69988  0
Cs  Cs2  1  0.16154662  0.10325817  0.38560549  1  0  0.953391  0  0.473428  0  0  0.901596  0  0.685784  0  0  0.914041  0  0.665936  0  0  0.849441  0.892522  0  0.699889  0
Cs  Cs3  1  0.83846122  0.39674148  0.88560524  1  0  0.953392  0  0.473438  0  0  0.901604  0  0.685782  0  0  0.914043  0  0.665947  0  0  0.849449  0.892529  0  0.699887  0
H  H4  1  0.24542566  0.80816947  0.91020537  1  0  0.100383  0  0.965946  0  0  0.106508  0  1.035348  0  0  0.108631  0  1.034838  0  0  0.102481  0.104973  0  1.035791  0
H  H5  1  0.75456495  0.69183130  0.41020283  1  0  0.100319  0  0.966023  0  0  0.106487  0  1.035371  0  0  0.10861  0  1.034861  0  0  0.102483  0.104953  0  1.035815  0
H  H6  1  0.75456387  0.19182947  0.08979780  1  0  0.10033  0  0.966036  0  0  0.106497  0  1.035387  0  0  0.108618  0  1.034875  0  0  0.102497  0.104962  0  1.03583  0
H  H7  1  0.24542089  0.30816764  0.58979485  1  0  0.100409  0  0.966019  0  0  0.10653  0  1.035424  0  0  0.108651  0  1.034918  0  0  0.102498  0.105002  0  1.035855  0
H  H8  1  0.08735033  0.94210811  0.95622036  1  0  0.095658  0  0.989586  0  0  0.099362  0  1.064603  0  0  0.103228  0  1.062632  0  0  0.090418  0.096534  0  1.066157  0
H  H9  1  0.91264905  0.55789497  0.45621894  1  0  0.095635  0  0.989552  0  0  0.099345  0  1.064577  0  0  0.103217  0  1.062589  0  0  0.090408  0.096518  0  1.066131  0
H  H10  1  0.91264735  0.05789467  0.04378227  1  0  0.095665  0  0.989529  0  0  0.099359  0  1.06457  0  0  0.103235  0  1.062576  0  0  0.090417  0.096531  0  1.066124  0
H  H11  1  0.08734640  0.44210589  0.54377653  1  0  0.095682  0  0.9897  0  0  0.099375  0  1.064736  0  0  0.103243  0  1.062742  0  0  0.0904  0.096546  0  1.066291  0
H  H12  1  0.69627060  0.08912953  0.85252178  1  0  0.109544  0  0.945854  0  0  0.116254  0  1.009978  0  0  0.119996  0  1.00821  0  0  0.105325  0.113603  0  1.011325  0
H  H13  1  0.30372888  0.41086856  0.35252082  1  0  0.10949  0  0.945855  0  0  0.116217  0  1.009958  0  0  0.119959  0  1.008189  0  0  0.105305  0.113565  0  1.011302  0
H  H14  1  0.30372970  0.91086812  0.14747975  1  0  0.109513  0  0.945864  0  0  0.116227  0  1.009969  0  0  0.119967  0  1.008202  0  0  0.105315  0.113575  0  1.011315  0
H  H15  1  0.69626222  0.58912910  0.64747905  1  0  0.109516  0  0.945978  0  0  0.116248  0  1.010082  0  0  0.119989  0  1.008314  0  0  0.105316  0.113595  0  1.011424  0
H  H16  1  0.85723301  0.95437346  0.80711131  1  0  0.103422  0  0.968694  0  0  0.108778  0  1.03734  0  0  0.112639  0  1.033859  0  0  0.108236  0.106058  0  1.039738  0
H  H17  1  0.14276032  0.54562385  0.30710898  1  0  0.103491  0  0.968709  0  0  0.108853  0  1.037332  0  0  0.112728  0  1.03384  0  0  0.108233  0.106132  0  1.039731  0
H  H18  1  0.14276334  0.04562291  0.19289076  1  0  0.103492  0  0.968742  0  0  0.108864  0  1.037354  0  0  0.112732  0  1.033864  0  0  0.10824  0.106143  0  1.039751  0
H  H19  1  0.85722868  0.45437253  0.69289034  1  0  0.103399  0  0.968681  0  0  0.108788  0  1.0373  0  0  0.112645  0  1.033825  0  0  0.108216  0.106069  0  1.039695  0
C  C20  1  0.65684327  0.79461569  0.82354437  1  0  0.377826  0  3.74887  0  0  0.366571  0  4.007389  0  0  0.386325  0  4.010807  0  0  0.165219  0.352878  0  4.004955  0
C  C21  1  0.34315503  0.70538624  0.32354226  1  0  0.377763  0  3.748796  0  0  0.366507  0  4.007385  0  0  0.386252  0  4.01081  0  0  0.165153  0.352815  0  4.00495  0
C  C22  1  0.34314862  0.20538581  0.17645715  1  0  0.377541  0  3.74877  0  0  0.366399  0  4.007242  0  0  0.386153  0  4.010662  0  0  0.165068  0.352704  0  4.004807  0
C  C23  1  0.65684449  0.29461653  0.67645542  1  0  0.37785  0  3.748961  0  0  0.366498  0  4.007538  0  0  0.386248  0  4.010968  0  0  0.165149  0.352805  0  4.005107  0
C  C24  1  0.56231441  0.87241811  0.85498180  1  0  -0.06459  0  3.794148  0  0  -0.053036  0  4.033094  0  0  -0.062484  0  4.059971  0  0  -0.025844  -0.046732  0  4.014881  0
C  C25  1  0.43767301  0.62758154  0.35497774  1  0  -0.064455  0  3.793596  0  0  -0.053062  0  4.03282  0  0  -0.062514  0  4.059715  0  0  -0.025825  -0.046758  0  4.01461  0
C  C26  1  0.43766960  0.12758083  0.14502192  1  0  -0.064329  0  3.79349  0  0  -0.05301  0  4.032777  0  0  -0.062466  0  4.059667  0  0  -0.025812  -0.046706  0  4.014563  0
C  C27  1  0.56231284  0.37241740  0.64501828  1  0  -0.064564  0  3.794104  0  0  -0.052989  0  4.033069  0  0  -0.06244  0  4.059955  0  0  -0.02576  -0.046682  0  4.014854  0
C  C28  1  0.34505911  0.86925956  0.89719690  1  0  -0.039063  0  3.699223  0  0  -0.062933  0  3.951889  0  0  -0.061235  0  3.972337  0  0  -0.072706  -0.063883  0  3.937886  0
C  C29  1  0.65493857  0.63074109  0.39719546  1  0  -0.038922  0  3.699104  0  0  -0.062771  0  3.951803  0  0  -0.061074  0  3.972251  0  0  -0.072652  -0.063722  0  3.937802  0
C  C30  1  0.65493607  0.13074002  0.10280352  1  0  -0.03896  0  3.699121  0  0  -0.062784  0  3.951802  0  0  -0.061096  0  3.97228  0  0  -0.072671  -0.063731  0  3.937794  0
C  C31  1  0.34505476  0.36925848  0.60280331  1  0  -0.03908  0  3.699346  0  0  -0.062953  0  3.952013  0  0  -0.061249  0  3.972449  0  0  -0.072747  -0.063903  0  3.93801  0
C  C32  1  0.25476144  0.94454456  0.92326731  1  0  -0.122094  0  3.751567  0  0  -0.140771  0  4.001946  0  0  -0.146108  0  4.022648  0  0  -0.098146  -0.137186  0  3.988035  0
C  C33  1  0.74523524  0.55545760  0.42326613  1  0  -0.122157  0  3.75164  0  0  -0.140829  0  4.002007  0  0  -0.146168  0  4.022727  0  0  -0.098182  -0.137245  0  3.988098  0
C  C34  1  0.74523230  0.05545694  0.07673366  1  0  -0.122174  0  3.75165  0  0  -0.140816  0  4.002008  0  0  -0.146158  0  4.022724  0  0  -0.098164  -0.137232  0  3.988098  0
C  C35  1  0.25475823  0.44454262  0.57672934  1  0  -0.122129  0  3.751578  0  0  -0.140786  0  4.001901  0  0  -0.146104  0  4.0226  0  0  -0.098092  -0.137217  0  3.988037  0
C  C36  1  0.38193095  0.02286728  0.90649665  1  0  0.11532  0  3.697588  0  0  0.128954  0  3.961295  0  0  0.134172  0  3.983775  0  0  -0.004032  0.125371  0  3.946094  0
C  C37  1  0.61806303  0.47713448  0.40649447  1  0  0.115305  0  3.697555  0  0  0.128929  0  3.961283  0  0  0.134144  0  3.983768  0  0  -0.004013  0.125347  0  3.94608  0
C  C38  1  0.61806265  0.97713358  0.09350542  1  0  0.115339  0  3.697489  0  0  0.128943  0  3.961234  0  0  0.13416  0  3.983713  0  0  -0.004019  0.12536  0  3.946033  0
C  C39  1  0.38192703  0.52286702  0.59350266  1  0  0.115207  0  3.697471  0  0  0.128839  0  3.961196  0  0  0.134056  0  3.98368  0  0  -0.004118  0.125253  0  3.945991  0
C  C40  1  0.59959836  0.02751145  0.86512226  1  0  -0.125721  0  3.750108  0  0  -0.147017  0  4.003372  0  0  -0.152662  0  4.024752  0  0  -0.092976  -0.143271  0  3.988927  0
C  C41  1  0.40040351  0.47248803  0.36511965  1  0  -0.125656  0  3.750091  0  0  -0.146951  0  4.003374  0  0  -0.152594  0  4.02476  0  0  -0.092982  -0.1432  0  3.988921  0
C  C42  1  0.40040050  0.97248813  0.13487981  1  0  -0.12572  0  3.750176  0  0  -0.146987  0  4.003458  0  0  -0.152629  0  4.024835  0  0  -0.092999  -0.14324  0  3.98901  0
C  C43  1  0.59959521  0.52751090  0.63487802  1  0  -0.125641  0  3.750198  0  0  -0.146963  0  4.003498  0  0  -0.152609  0  4.02488  0  0  -0.092933  -0.143208  0  3.98904  0
C  C44  1  0.68930211  0.95201220  0.83985487  1  0  -0.034555  0  3.695502  0  0  -0.055394  0  3.942605  0  0  -0.053317  0  3.961707  0  0  -0.068642  -0.056494  0  3.929422  0
C  C45  1  0.31069391  0.54798603  0.33985340  1  0  -0.034638  0  3.695384  0  0  -0.055446  0  3.942573  0  0  -0.053387  0  3.961675  0  0  -0.068628  -0.056546  0  3.92939  0
C  C46  1  0.31069464  0.04798609  0.16014665  1  0  -0.034681  0  3.695466  0  0  -0.055497  0  3.942685  0  0  -0.053424  0  3.961782  0  0  -0.068654  -0.056599  0  3.929502  0
C  C47  1  0.68929745  0.45201291  0.66014592  1  0  -0.034491  0  3.695448  0  0  -0.055372  0  3.942575  0  0  -0.053293  0  3.961683  0  0  -0.068643  -0.056468  0  3.929384  0
C  C48  1  0.50168653  0.71052045  0.83410481  1  0  0.038564  0  3.725599  0  0  0.023767  0  3.973898  0  0  0.034664  0  3.989218  0  0  0.030176  0.017085  0  3.963083  0
C  C49  1  0.49832395  0.78947709  0.33410294  1  0  0.038319  0  3.726014  0  0  0.023538  0  3.974136  0  0  0.034459  0  3.989425  0  0  0.030042  0.016857  0  3.96332  0
C  C50  1  0.49831377  0.28947720  0.16589671  1  0  0.038532  0  3.725753  0  0  0.023719  0  3.973926  0  0  0.034621  0  3.989244  0  0  0.03012  0.017044  0  3.963108  0
C  C51  1  0.50168464  0.21052505  0.66589638  1  0  0.038571  0  3.725843  0  0  0.023886  0  3.973881  0  0  0.034782  0  3.989204  0  0  0.030152  0.017202  0  3.963071  0
C  C52  1  0.32117538  0.69398986  0.77991150  1  0  -0.143818  0  3.913255  0  0  -0.125459  0  4.152541  0  0  -0.137829  0  4.171315  0  0  -0.017806  -0.117412  0  4.139976  0
C  C53  1  0.67884310  0.80600721  0.27991171  1  0  -0.143644  0  3.913493  0  0  -0.125132  0  4.152468  0  0  -0.137514  0  4.171242  0  0  -0.017643  -0.117081  0  4.13989  0
C  C54  1  0.67883583  0.30600715  0.22008837  1  0  -0.143657  0  3.913446  0  0  -0.125115  0  4.152417  0  0  -0.137489  0  4.171185  0  0  -0.017663  -0.117079  0  4.139855  0
C  C55  1  0.32117179  0.19399877  0.72008707  1  0  -0.143797  0  3.913282  0  0  -0.12531  0  4.152253  0  0  -0.137674  0  4.171015  0  0  -0.017643  -0.117252  0  4.139669  0
C  C56  1  0.14928381  0.62195170  0.78011787  1  0  0.31528  0  3.796798  0  0  0.29774  0  4.067769  0  0  0.311584  0  4.084676  0  0  0.188285  0.288334  0  4.056513  0
C  C57  1  0.85073415  0.87804280  0.28012157  1  0  0.31533  0  3.797017  0  0  0.297722  0  4.067956  0  0  0.311569  0  4.084864  0  0  0.188234  0.288313  0  4.056697  0
C  C58  1  0.85072673  0.37804210  0.21987925  1  0  0.315391  0  3.796885  0  0  0.297781  0  4.067804  0  0  0.311629  0  4.084712  0  0  0.188354  0.28838  0  4.056546  0
C  C59  1  0.14926063  0.12195485  0.71987556  1  0  0.315401  0  3.797308  0  0  0.297784  0  4.068258  0  0  0.311624  0  4.085164  0  0  0.18832  0.288378  0  4.056997  0
C  C60  1  0.30770776  0.75407638  0.72214130  1  0  0.316769  0  3.848843  0  0  0.295606  0  4.127913  0  0  0.309379  0  4.144658  0  0  0.18341  0.286202  0  4.116784  0
C  C61  1  0.69230025  0.74592020  0.22213951  1  0  0.316553  0  3.84905  0  0  0.295321  0  4.128113  0  0  0.309097  0  4.144857  0  0  0.183315  0.285917  0  4.116984  0
C  C62  1  0.69229635  0.24592191  0.27785858  1  0  0.316517  0  3.848812  0  0  0.295269  0  4.127894  0  0  0.309047  0  4.144638  0  0  0.183257  0.285872  0  4.116761  0
C  C63  1  0.30771148  0.25407937  0.77785761  1  0  0.316526  0  3.84888  0  0  0.295299  0  4.127938  0  0  0.309077  0  4.144684  0  0  0.183175  0.285893  0  4.116799  0
C  C64  1  0.55717400  0.66048575  0.89529126  1  0  -0.157373  0  3.94395  0  0  -0.139989  0  4.184362  0  0  -0.152959  0  4.204012  0  0  -0.020712  -0.131516  0  4.171081  0
C  C65  1  0.44283217  0.83951167  0.39528959  1  0  -0.157467  0  3.944276  0  0  -0.140002  0  4.184524  0  0  -0.152972  0  4.204146  0  0  -0.020733  -0.131531  0  4.171246  0
C  C66  1  0.44283589  0.33951382  0.10471026  1  0  -0.157567  0  3.944318  0  0  -0.140208  0  4.18474  0  0  -0.153188  0  4.204386  0  0  -0.020838  -0.131739  0  4.171461  0
C  C67  1  0.55717220  0.16048790  0.60471028  1  0  -0.15761  0  3.944346  0  0  -0.140223  0  4.184663  0  0  -0.153195  0  4.204302  0  0  -0.02078  -0.131753  0  4.171386  0
C  C68  1  0.76079648  0.68580358  0.94064754  1  0  0.297155  0  3.818255  0  0  0.281608  0  4.089234  0  0  0.293934  0  4.108418  0  0  0.188124  0.273348  0  4.07628  0
C  C69  1  0.23921517  0.81419808  0.44064534  1  0  0.297261  0  3.818087  0  0  0.281671  0  4.089058  0  0  0.293997  0  4.108243  0  0  0.188131  0.273411  0  4.076107  0
C  C70  1  0.23919515  0.31419664  0.05934958  1  0  0.297336  0  3.818175  0  0  0.281776  0  4.08916  0  0  0.294103  0  4.108333  0  0  0.188216  0.273519  0  4.076211  0
C  C71  1  0.76079683  0.18580277  0.55935288  1  0  0.297308  0  3.818165  0  0  0.281737  0  4.089141  0  0  0.294062  0  4.108324  0  0  0.188189  0.273482  0  4.07619  0
C  C72  1  0.42537437  0.58284268  0.91498520  1  0  0.29153  0  3.856172  0  0  0.27884  0  4.121777  0  0  0.292309  0  4.140051  0  0  0.183385  0.269746  0  4.10942  0
C  C73  1  0.57463224  0.91715491  0.41498477  1  0  0.291546  0  3.856067  0  0  0.278817  0  4.121653  0  0  0.292283  0  4.139931  0  0  0.183386  0.269725  0  4.109296  0
C  C74  1  0.57462644  0.41714856  0.08501743  1  0  0.29142  0  3.856109  0  0  0.278725  0  4.121716  0  0  0.292202  0  4.139993  0  0  0.183271  0.269631  0  4.109354  0
C  C75  1  0.42537648  0.08284786  0.58501675  1  0  0.291546  0  3.855987  0  0  0.27884  0  4.12157  0  0  0.292311  0  4.139847  0  0  0.183307  0.269748  0  4.109209  0
Br  Br76  1  0.25665476  0.12593734  0.94036883  1  0  -0.030668  0  1.342084  0  0  -0.015583  0  1.595344  0  0  -0.023793  0  1.591497  0  0  0.090913  -0.009188  0  1.597871  0
Br  Br77  1  0.74334718  0.37406407  0.44036956  1  0  -0.030676  0  1.342015  0  0  -0.015585  0  1.595288  0  0  -0.023803  0  1.59144  0  0  0.090903  -0.009186  0  1.597815  0
Br  Br78  1  0.74334607  0.87406288  0.05963159  1  0  -0.030685  0  1.341996  0  0  -0.015591  0  1.595273  0  0  -0.023803  0  1.591427  0  0  0.0909  -0.009198  0  1.5978  0
Br  Br79  1  0.25665378  0.62593679  0.55963086  1  0  -0.030639  0  1.342084  0  0  -0.015549  0  1.595354  0  0  -0.023765  0  1.591507  0  0  0.090921  -0.009152  0  1.597883  0
N  N80  1  0.00560359  0.56255432  0.78175335  1  0  -0.455571  0  2.606947  0  0  -0.430237  0  2.839742  0  0  -0.442687  0  2.851144  0  0  -0.368139  -0.421867  0  2.832194  0
N  N81  1  0.99440402  0.93744341  0.28175711  1  0  -0.455586  0  2.607023  0  0  -0.430248  0  2.839838  0  0  -0.442701  0  2.851239  0  0  -0.3681  -0.421877  0  2.832291  0
N  N82  1  0.99440012  0.43744205  0.21824542  1  0  -0.455665  0  2.606971  0  0  -0.430331  0  2.839794  0  0  -0.442785  0  2.851197  0  0  -0.36821  -0.421962  0  2.832246  0
N  N83  1  0.00561732  0.06256705  0.71824001  1  0  -0.455547  0  2.607745  0  0  -0.430197  0  2.840566  0  0  -0.442646  0  2.851968  0  0  -0.368152  -0.421828  0  2.833018  0
N  N84  1  0.30905251  0.80530816  0.67508422  1  0  -0.521578  0  2.659731  0  0  -0.499213  0  2.905416  0  0  -0.511064  0  2.914847  0  0  -0.454136  -0.491167  0  2.899214  0
N  N85  1  0.69094961  0.69469121  0.17508158  1  0  -0.521395  0  2.659859  0  0  -0.499027  0  2.905583  0  0  -0.510871  0  2.915003  0  0  -0.45407  -0.490985  0  2.89939  0
N  N86  1  0.69095173  0.19469077  0.32491840  1  0  -0.521392  0  2.659528  0  0  -0.499018  0  2.905262  0  0  -0.510867  0  2.914688  0  0  -0.454033  -0.490974  0  2.899057  0
N  N87  1  0.30905700  0.30531028  0.82492214  1  0  -0.521408  0  2.659457  0  0  -0.499029  0  2.90515  0  0  -0.510885  0  2.914591  0  0  -0.453991  -0.490978  0  2.898944  0
N  N88  1  0.93153208  0.70540610  0.97802389  1  0  -0.466394  0  2.618443  0  0  -0.443094  0  2.856328  0  0  -0.454116  0  2.866775  0  0  -0.385775  -0.435705  0  2.849402  0
N  N89  1  0.06847658  0.79459525  0.47802237  1  0  -0.466472  0  2.618145  0  0  -0.443165  0  2.856042  0  0  -0.454187  0  2.866489  0  0  -0.385803  -0.435776  0  2.849118  0
N  N90  1  0.06848189  0.29459540  0.02197928  1  0  -0.466392  0  2.618605  0  0  -0.443095  0  2.856508  0  0  -0.454105  0  2.866942  0  0  -0.385796  -0.435711  0  2.849588  0
N  N91  1  0.93152635  0.20540625  0.52197915  1  0  -0.46645  0  2.61842  0  0  -0.443142  0  2.856302  0  0  -0.454162  0  2.866748  0  0  -0.385816  -0.435752  0  2.849376  0
N  N92  1  0.32041331  0.51852351  0.93397594  1  0  -0.500162  0  2.65444  0  0  -0.477508  0  2.888926  0  0  -0.490217  0  2.901329  0  0  -0.416958  -0.46885  0  2.880579  0
N  N93  1  0.67959425  0.98147681  0.43397665  1  0  -0.500105  0  2.654261  0  0  -0.477445  0  2.888761  0  0  -0.490157  0  2.901169  0  0  -0.416922  -0.468789  0  2.880415  0
N  N94  1  0.67960093  0.48147926  0.06602393  1  0  -0.500072  0  2.653791  0  0  -0.477405  0  2.888254  0  0  -0.49012  0  2.90066  0  0  -0.416821  -0.468744  0  2.879904  0
N  N95  1  0.32040802  0.01852148  0.56602323  1  0  -0.500172  0  2.653996  0  0  -0.477513  0  2.88848  0  0  -0.490229  0  2.900887  0  0  -0.416892  -0.468851  0  2.880132  0
O  O96  1  0.84673758  0.79444003  0.78635919  1  0  -0.453261  0  1.962683  0  0  -0.415377  0  2.172622  0  0  -0.432456  0  2.172144  0  0  -0.259529  -0.403418  0  2.172748  0
O  O97  1  0.15325977  0.70556094  0.28635729  1  0  -0.453218  0  1.962622  0  0  -0.415331  0  2.172576  0  0  -0.43241  0  2.172105  0  0  -0.259474  -0.403359  0  2.172678  0
O  O98  1  0.15325616  0.20556147  0.21364343  1  0  -0.453181  0  1.962618  0  0  -0.415305  0  2.172494  0  0  -0.432384  0  2.172015  0  0  -0.259435  -0.40335  0  2.172627  0
O  O99  1  0.84674015  0.29444376  0.71364148  1  0  -0.453292  0  1.962675  0  0  -0.415404  0  2.172674  0  0  -0.432482  0  2.172196  0  0  -0.259524  -0.403447  0  2.172809  0
