# generated using pymatgen
data_GdH9(CO2)4
_symmetry_space_group_name_H-M   'P 1'
_cell_length_a   6.81361216
_cell_length_b   10.77405222
_cell_length_c   11.15269144
_cell_angle_alpha   96.16576441
_cell_angle_beta   90.00014695
_cell_angle_gamma   89.99988412
_symmetry_Int_Tables_number   1
_chemical_formula_structural   GdH9(CO2)4
_chemical_formula_sum   'Gd4 H36 C16 O32'
_cell_volume   813.98541359
_cell_formula_units_Z   4
loop_
 _symmetry_equiv_pos_site_id
 _symmetry_equiv_pos_as_xyz
  1  'x, y, z'
loop_
 _atom_site_type_symbol
 _atom_site_label
 _atom_site_symmetry_multiplicity
 _atom_site_fract_x
 _atom_site_fract_y
 _atom_site_fract_z
 _atom_site_occupancy
 _atom_site_hle17_bader_spin_density
 _atom_site_hle17_ddec_charge
 _atom_site_hle17_ddec_spin_density
 _atom_site_hle17_ddec_sum_bond_order
 _atom_site_hle17_magmom
 _atom_site_hse06_10hf_bader_spin_density
 _atom_site_hse06_10hf_ddec_charge
 _atom_site_hse06_10hf_ddec_spin_density
 _atom_site_hse06_10hf_ddec_sum_bond_order
 _atom_site_hse06_10hf_magmom
 _atom_site_hse06_bader_spin_density
 _atom_site_hse06_ddec_charge
 _atom_site_hse06_ddec_spin_density
 _atom_site_hse06_ddec_sum_bond_order
 _atom_site_hse06_magmom
 _atom_site_pbe_bader_spin_density
 _atom_site_pbe_cm5_charge
 _atom_site_pbe_ddec_charge
 _atom_site_pbe_ddec_spin_density
 _atom_site_pbe_ddec_sum_bond_order
 _atom_site_pbe_magmom
Gd  Gd0  1  0.02419711  0.15332813  0.09621179  1  0  2.219818  0  1.836988  0  0  2.131263  0  2.205011  0  0  2.184057  0  2.145107  0  0  1.435155  2.089098  0  2.253779  0
Gd  Gd1  1  0.52419870  0.84667113  0.40378825  1  0  2.219748  0  1.837003  0  0  2.131267  0  2.204929  0  0  2.184053  0  2.145044  0  0  1.435147  2.0891  0  2.253691  0
Gd  Gd2  1  0.97580015  0.84667076  0.90378800  1  0  2.219857  0  1.836953  0  0  2.131302  0  2.204949  0  0  2.184085  0  2.145064  0  0  1.435168  2.089141  0  2.253717  0
Gd  Gd3  1  0.47580150  0.15332963  0.59621352  1  0  2.219787  0  1.837035  0  0  2.131273  0  2.204979  0  0  2.184043  0  2.145119  0  0  1.43515  2.089102  0  2.253754  0
H  H4  1  0.17403539  0.37867485  0.26210401  1  0  0.425951  0  0.882697  0  0  0.393288  0  0.949441  0  0  0.405058  0  0.932333  0  0  0.288701  0.384953  0  0.961522  0
H  H5  1  0.67404140  0.62132237  0.23789516  1  0  0.425965  0  0.882656  0  0  0.393295  0  0.949419  0  0  0.405065  0  0.932311  0  0  0.288725  0.38496  0  0.961507  0
H  H6  1  0.82596334  0.62132311  0.73789479  1  0  0.425943  0  0.8827  0  0  0.393268  0  0.949466  0  0  0.405039  0  0.932357  0  0  0.288691  0.384933  0  0.961551  0
H  H7  1  0.32596320  0.37867652  0.76210553  1  0  0.425903  0  0.882756  0  0  0.393239  0  0.949504  0  0  0.405009  0  0.932396  0  0  0.288693  0.384904  0  0.961587  0
H  H8  1  0.98413999  0.43089872  0.20192224  1  0  0.426398  0  0.879909  0  0  0.393701  0  0.947275  0  0  0.404616  0  0.931354  0  0  0.291197  0.385947  0  0.95857  0
H  H9  1  0.48414380  0.56910188  0.29807685  1  0  0.426422  0  0.879885  0  0  0.39372  0  0.947252  0  0  0.404633  0  0.931334  0  0  0.291234  0.385971  0  0.95854  0
H  H10  1  0.01585874  0.56910110  0.79807764  1  0  0.426392  0  0.879917  0  0  0.3937  0  0.947276  0  0  0.404615  0  0.931355  0  0  0.291196  0.385948  0  0.958568  0
H  H11  1  0.51585786  0.43089888  0.70192312  1  0  0.426449  0  0.879843  0  0  0.393741  0  0.947222  0  0  0.404655  0  0.931302  0  0  0.291237  0.38599  0  0.958513  0
H  H12  1  0.10158405  0.02377406  0.32032173  1  0  0.435874  0  0.857471  0  0  0.406881  0  0.918031  0  0  0.418289  0  0.90117  0  0  0.31026  0.398692  0  0.930135  0
H  H13  1  0.60158282  0.97622510  0.17967483  1  0  0.435943  0  0.857396  0  0  0.406932  0  0.917976  0  0  0.418338  0  0.901118  0  0  0.310292  0.398744  0  0.93008  0
H  H14  1  0.89841761  0.97622669  0.67967734  1  0  0.435909  0  0.857424  0  0  0.406896  0  0.918013  0  0  0.418303  0  0.901154  0  0  0.310269  0.398707  0  0.930119  0
H  H15  1  0.39841591  0.02377473  0.82032505  1  0  0.435969  0  0.857358  0  0  0.406945  0  0.917965  0  0  0.418352  0  0.901104  0  0  0.310283  0.398756  0  0.93007  0
H  H16  1  0.17562685  0.16226008  0.34791222  1  0  0.429504  0  0.857368  0  0  0.40151  0  0.923153  0  0  0.411405  0  0.908559  0  0  0.310891  0.394442  0  0.933565  0
H  H17  1  0.67563181  0.83773994  0.15208723  1  0  0.429528  0  0.857291  0  0  0.401489  0  0.92317  0  0  0.411384  0  0.908577  0  0  0.310875  0.394422  0  0.933583  0
H  H18  1  0.82437188  0.83773974  0.65208676  1  0  0.42948  0  0.857399  0  0  0.401476  0  0.923201  0  0  0.411371  0  0.908608  0  0  0.31087  0.39441  0  0.933612  0
H  H19  1  0.32436839  0.16225989  0.84791445  1  0  0.429472  0  0.857368  0  0  0.401436  0  0.923243  0  0  0.41133  0  0.908649  0  0  0.310839  0.394368  0  0.933655  0
H  H20  1  0.79957273  0.47677799  0.94925306  1  0  0.092259  0  0.929109  0  0  0.103116  0  0.992225  0  0  0.105249  0  0.990647  0  0  0.113397  0.10153  0  0.993566  0
H  H21  1  0.29957417  0.52322354  0.55074830  1  0  0.092238  0  0.929109  0  0  0.103068  0  0.992215  0  0  0.105201  0  0.990634  0  0  0.113366  0.101479  0  0.993553  0
H  H22  1  0.20042747  0.52322371  0.05074970  1  0  0.092259  0  0.929128  0  0  0.103108  0  0.992234  0  0  0.105241  0  0.990655  0  0  0.113392  0.10152  0  0.993572  0
H  H23  1  0.70042309  0.47677722  0.44925347  1  0  0.092173  0  0.929031  0  0  0.103019  0  0.992153  0  0  0.105156  0  0.990571  0  0  0.113352  0.101428  0  0.993499  0
H  H24  1  0.74167539  0.34358658  0.84696112  1  0  0.109066  0  0.927977  0  0  0.120193  0  0.989808  0  0  0.122824  0  0.987821  0  0  0.120624  0.118192  0  0.991536  0
H  H25  1  0.24167831  0.65641780  0.65303864  1  0  0.109099  0  0.92796  0  0  0.120203  0  0.989774  0  0  0.122831  0  0.98779  0  0  0.120625  0.118203  0  0.9915  0
H  H26  1  0.25832334  0.65641697  0.15303914  1  0  0.109043  0  0.92802  0  0  0.120163  0  0.989842  0  0  0.122794  0  0.987854  0  0  0.12061  0.118159  0  0.99157  0
H  H27  1  0.75832336  0.34358296  0.34696223  1  0  0.109098  0  0.927994  0  0  0.120214  0  0.989822  0  0  0.122846  0  0.987832  0  0  0.120626  0.118242  0  0.991515  0
H  H28  1  0.49553315  0.29231907  0.96703676  1  0  0.108173  0  0.956213  0  0  0.115553  0  1.023243  0  0  0.118431  0  1.02065  0  0  0.119214  0.113476  0  1.025213  0
H  H29  1  0.99553509  0.70768222  0.53296040  1  0  0.108135  0  0.95631  0  0  0.115526  0  1.023294  0  0  0.118402  0  1.020713  0  0  0.119209  0.113458  0  1.025264  0
H  H30  1  0.50446558  0.70768261  0.03296242  1  0  0.108228  0  0.95622  0  0  0.115577  0  1.023245  0  0  0.118455  0  1.020655  0  0  0.119228  0.113507  0  1.025212  0
H  H31  1  0.00446364  0.29231667  0.46703849  1  0  0.108158  0  0.95627  0  0  0.115551  0  1.023239  0  0  0.118423  0  1.020662  0  0  0.119214  0.113482  0  1.025206  0
H  H32  1  0.53383392  0.38811097  0.10615153  1  0  0.10213  0  0.913358  0  0  0.111061  0  0.975946  0  0  0.113759  0  0.973636  0  0  0.113159  0.109051  0  0.977835  0
H  H33  1  0.03383800  0.61189013  0.39384602  1  0  0.102121  0  0.913373  0  0  0.111028  0  0.975953  0  0  0.113729  0  0.97364  0  0  0.113161  0.109024  0  0.977846  0
H  H34  1  0.46616334  0.61189072  0.89384944  1  0  0.102136  0  0.913466  0  0  0.111076  0  0.97598  0  0  0.113781  0  0.973656  0  0  0.113159  0.109064  0  0.977874  0
H  H35  1  0.96616220  0.38810969  0.60615296  1  0  0.102122  0  0.913409  0  0  0.111028  0  0.975984  0  0  0.113728  0  0.97367  0  0  0.113154  0.109023  0  0.977877  0
H  H36  1  0.15735885  0.90946850  0.14351070  1  0  0.44084  0  0.845304  0  0  0.417614  0  0.89694  0  0  0.426255  0  0.884384  0  0  0.299405  0.411357  0  0.906001  0
H  H37  1  0.65735971  0.09053341  0.35648981  1  0  0.440845  0  0.845305  0  0  0.417609  0  0.896957  0  0  0.42625  0  0.884401  0  0  0.299401  0.411352  0  0.906017  0
H  H38  1  0.84264428  0.09053225  0.85648658  1  0  0.440821  0  0.845332  0  0  0.417585  0  0.896988  0  0  0.426229  0  0.884424  0  0  0.299391  0.411327  0  0.906054  0
H  H39  1  0.34264342  0.90946735  0.64351017  1  0  0.440852  0  0.845292  0  0  0.417616  0  0.896946  0  0  0.426258  0  0.884385  0  0  0.299416  0.41136  0  0.906006  0
C  C40  1  0.54129874  0.19141780  0.11987144  1  0  0.743637  0  3.811242  0  0  0.695784  0  4.110577  0  0  0.729893  0  4.100398  0  0  0.241638  0.672314  0  4.116923  0
C  C41  1  0.04131240  0.80857860  0.38012026  1  0  0.74355  0  3.811523  0  0  0.695671  0  4.110895  0  0  0.729783  0  4.100715  0  0  0.241525  0.672209  0  4.117243  0
C  C42  1  0.45870000  0.80858107  0.88012476  1  0  0.743758  0  3.811061  0  0  0.695805  0  4.110476  0  0  0.729915  0  4.100297  0  0  0.241632  0.672342  0  4.11682  0
C  C43  1  0.95869660  0.19141842  0.61987934  1  0  0.743841  0  3.811093  0  0  0.695914  0  4.110489  0  0  0.730023  0  4.100305  0  0  0.241675  0.672453  0  4.116835  0
C  C44  1  0.04696319  0.35910685  0.89396074  1  0  0.694107  0  3.848693  0  0  0.636366  0  4.164171  0  0  0.669354  0  4.156414  0  0  0.223032  0.613909  0  4.168824  0
C  C45  1  0.54696564  0.64089402  0.60604016  1  0  0.694178  0  3.848774  0  0  0.636417  0  4.164219  0  0  0.669403  0  4.156463  0  0  0.223035  0.613961  0  4.168873  0
C  C46  1  0.95303701  0.64089297  0.10604003  1  0  0.694128  0  3.84872  0  0  0.636423  0  4.164118  0  0  0.669409  0  4.15636  0  0  0.223054  0.613964  0  4.168768  0
C  C47  1  0.45303309  0.35910487  0.39396143  1  0  0.694279  0  3.848457  0  0  0.636533  0  4.163895  0  0  0.669521  0  4.156133  0  0  0.223125  0.61407  0  4.168553  0
C  C48  1  0.83164687  0.37671766  0.92644339  1  0  -0.078531  0  3.628098  0  0  -0.131271  0  3.887746  0  0  -0.129455  0  3.888905  0  0  -0.064602  -0.132737  0  3.887271  0
C  C49  1  0.33164809  0.62328568  0.57355551  1  0  -0.078631  0  3.628054  0  0  -0.131211  0  3.887538  0  0  -0.129394  0  3.888692  0  0  -0.064571  -0.132674  0  3.887057  0
C  C50  1  0.16835186  0.62328403  0.07355847  1  0  -0.078517  0  3.628099  0  0  -0.131208  0  3.887699  0  0  -0.129393  0  3.888858  0  0  -0.064573  -0.13267  0  3.887219  0
C  C51  1  0.66834624  0.37671320  0.42644248  1  0  -0.078506  0  3.627862  0  0  -0.131155  0  3.887445  0  0  -0.129338  0  3.8886  0  0  -0.064522  -0.132631  0  3.886942  0
C  C52  1  0.58163238  0.30249525  0.05063861  1  0  -0.08644  0  3.617184  0  0  -0.138703  0  3.874487  0  0  -0.136998  0  3.874741  0  0  -0.061961  -0.140008  0  3.874419  0
C  C53  1  0.08163935  0.69750487  0.44935981  1  0  -0.086462  0  3.617332  0  0  -0.138585  0  3.874499  0  0  -0.136877  0  3.874735  0  0  -0.061954  -0.139924  0  3.874476  0
C  C54  1  0.41836195  0.69750364  0.94936207  1  0  -0.086687  0  3.617455  0  0  -0.138788  0  3.874566  0  0  -0.137083  0  3.874817  0  0  -0.062007  -0.140109  0  3.874522  0
C  C55  1  0.91836378  0.30249402  0.55064088  1  0  -0.086508  0  3.617208  0  0  -0.138611  0  3.87434  0  0  -0.136915  0  3.874606  0  0  -0.061918  -0.139946  0  3.874315  0
O  O56  1  0.04690895  0.35208809  0.22145830  1  0  -0.93999  0  1.891748  0  0  -0.90472  0  2.09926  0  0  -0.924672  0  2.065299  0  0  -0.654674  -0.889797  0  2.123087  0
O  O57  1  0.54691504  0.64791022  0.27854437  1  0  -0.940035  0  1.89176  0  0  -0.904754  0  2.099252  0  0  -0.924707  0  2.065306  0  0  -0.654743  -0.889798  0  2.122994  0
O  O58  1  0.95309272  0.64791080  0.77854149  1  0  -0.939994  0  1.891752  0  0  -0.904719  0  2.099257  0  0  -0.92467  0  2.065298  0  0  -0.654665  -0.889788  0  2.123072  0
O  O59  1  0.45308956  0.35208961  0.72145820  1  0  -0.940015  0  1.891794  0  0  -0.904742  0  2.099318  0  0  -0.924691  0  2.065362  0  0  -0.654721  -0.889793  0  2.123085  0
O  O60  1  0.14588158  0.27761897  0.94203709  1  0  -0.707207  0  2.067873  0  0  -0.657358  0  2.319483  0  0  -0.68233  0  2.307908  0  0  -0.360263  -0.639474  0  2.327248  0
O  O61  1  0.64588651  0.72237993  0.55796556  1  0  -0.707232  0  2.067915  0  0  -0.657393  0  2.319528  0  0  -0.682362  0  2.307954  0  0  -0.36026  -0.639517  0  2.327306  0
O  O62  1  0.85411422  0.72237712  0.05796421  1  0  -0.707252  0  2.06785  0  0  -0.657421  0  2.31946  0  0  -0.682389  0  2.307878  0  0  -0.360278  -0.639557  0  2.32727  0
O  O63  1  0.35411075  0.27761617  0.44203843  1  0  -0.707276  0  2.067741  0  0  -0.657478  0  2.319385  0  0  -0.682442  0  2.307806  0  0  -0.360328  -0.639607  0  2.327181  0
O  O64  1  0.78653685  0.30768026  0.02473912  1  0  -0.334276  0  2.484874  0  0  -0.2641  0  2.730328  0  0  -0.280246  0  2.734421  0  0  -0.264165  -0.252223  0  2.727231  0
O  O65  1  0.28654101  0.69232242  0.47525809  1  0  -0.334105  0  2.484913  0  0  -0.264093  0  2.730332  0  0  -0.280236  0  2.734426  0  0  -0.264144  -0.252212  0  2.72724  0
O  O66  1  0.21346188  0.69232050  0.97526176  1  0  -0.334121  0  2.485012  0  0  -0.264062  0  2.730453  0  0  -0.280206  0  2.734548  0  0  -0.264121  -0.252177  0  2.727357  0
O  O67  1  0.71346066  0.30767740  0.52474179  1  0  -0.334202  0  2.484801  0  0  -0.264171  0  2.730238  0  0  -0.280316  0  2.734331  0  0  -0.264213  -0.252292  0  2.727154  0
O  O68  1  0.36554182  0.16192707  0.13480160  1  0  -0.69952  0  2.029081  0  0  -0.656262  0  2.280016  0  0  -0.681991  0  2.268229  0  0  -0.378812  -0.63753  0  2.288165  0
O  O69  1  0.86554767  0.83807364  0.36519015  1  0  -0.699521  0  2.029094  0  0  -0.656239  0  2.28003  0  0  -0.681969  0  2.268246  0  0  -0.378729  -0.637509  0  2.288169  0
O  O70  1  0.63445691  0.83807180  0.86519371  1  0  -0.699565  0  2.029053  0  0  -0.65628  0  2.280031  0  0  -0.68201  0  2.268244  0  0  -0.378826  -0.637544  0  2.288177  0
O  O71  1  0.13445546  0.16192804  0.63480723  1  0  -0.699595  0  2.029096  0  0  -0.656314  0  2.280057  0  0  -0.68204  0  2.268271  0  0  -0.378804  -0.637583  0  2.288202  0
O  O72  1  0.11454968  0.42751405  0.81770908  1  0  -0.625549  0  2.003325  0  0  -0.554109  0  2.214914  0  0  -0.581304  0  2.206201  0  0  -0.296997  -0.535293  0  2.220617  0
O  O73  1  0.61454974  0.57248581  0.68229003  1  0  -0.625621  0  2.003371  0  0  -0.554171  0  2.21496  0  0  -0.581367  0  2.206248  0  0  -0.297012  -0.535352  0  2.220662  0
O  O74  1  0.88545052  0.57248671  0.18229179  1  0  -0.625572  0  2.003369  0  0  -0.554143  0  2.214942  0  0  -0.581338  0  2.20623  0  0  -0.297008  -0.535325  0  2.220646  0
O  O75  1  0.38545046  0.42751213  0.31770518  1  0  -0.625659  0  2.003215  0  0  -0.554208  0  2.214788  0  0  -0.581402  0  2.206074  0  0  -0.297069  -0.535396  0  2.220494  0
O  O76  1  0.06718804  0.11153873  0.31045627  1  0  -0.869576  0  1.833894  0  0  -0.829046  0  2.016967  0  0  -0.847706  0  1.98431  0  0  -0.61568  -0.81545  0  2.040324  0
O  O77  1  0.56719006  0.88846235  0.18954312  1  0  -0.869664  0  1.833814  0  0  -0.829075  0  2.016974  0  0  -0.847735  0  1.984319  0  0  -0.615682  -0.815481  0  2.04033  0
O  O78  1  0.93281069  0.88846016  0.68954352  1  0  -0.869575  0  1.833864  0  0  -0.82904  0  2.016974  0  0  -0.847702  0  1.984319  0  0  -0.615668  -0.815442  0  2.040332  0
O  O79  1  0.43280720  0.11154122  0.81045893  1  0  -0.869614  0  1.833818  0  0  -0.829026  0  2.016998  0  0  -0.847686  0  1.984343  0  0  -0.615627  -0.815431  0  2.040357  0
O  O80  1  0.08370757  0.94681172  0.08198325  1  0  -1.163394  0  1.749341  0  0  -1.123734  0  1.97664  0  0  -1.151061  0  1.950058  0  0  -0.808507  -1.102758  0  1.995617  0
O  O81  1  0.58371027  0.05318840  0.41801697  1  0  -1.163372  0  1.749308  0  0  -1.123726  0  1.97661  0  0  -1.151049  0  1.950028  0  0  -0.808505  -1.102754  0  1.995588  0
O  O82  1  0.91628969  0.05318716  0.91801565  1  0  -1.163357  0  1.749334  0  0  -1.123709  0  1.97665  0  0  -1.151033  0  1.950075  0  0  -0.8085  -1.102726  0  1.995607  0
O  O83  1  0.41629139  0.94681236  0.58198390  1  0  -1.16337  0  1.7493  0  0  -1.123725  0  1.976599  0  0  -1.151045  0  1.950023  0  0  -0.808524  -1.102747  0  1.995565  0
O  O84  1  0.68831051  0.13443512  0.16074771  1  0  -0.723279  0  2.002483  0  0  -0.667002  0  2.234713  0  0  -0.693399  0  2.222117  0  0  -0.361014  -0.647684  0  2.243289  0
O  O85  1  0.18830474  0.86556673  0.33924567  1  0  -0.723097  0  2.002537  0  0  -0.666979  0  2.234995  0  0  -0.693383  0  2.222409  0  0  -0.360985  -0.647634  0  2.243498  0
O  O86  1  0.31169116  0.86556657  0.83925146  1  0  -0.723339  0  2.002462  0  0  -0.667019  0  2.234711  0  0  -0.693418  0  2.222114  0  0  -0.361002  -0.647699  0  2.243284  0
O  O87  1  0.81169399  0.13443496  0.66075440  1  0  -0.723358  0  2.002416  0  0  -0.667092  0  2.234725  0  0  -0.693485  0  2.222127  0  0  -0.361065  -0.647765  0  2.243273  0
