# generated using pymatgen
data_NiH36C24(N3O2)2
_symmetry_space_group_name_H-M   'P 1'
_cell_length_a   10.92140011
_cell_length_b   14.36914571
_cell_length_c   17.91113848
_cell_angle_alpha   90.31611034
_cell_angle_beta   107.76585747
_cell_angle_gamma   89.98272257
_symmetry_Int_Tables_number   1
_chemical_formula_structural   NiH36C24(N3O2)2
_chemical_formula_sum   'Ni4 H144 C96 N24 O16'
_cell_volume   2676.72878127
_cell_formula_units_Z   4
loop_
 _symmetry_equiv_pos_site_id
 _symmetry_equiv_pos_as_xyz
  1  'x, y, z'
loop_
 _atom_site_type_symbol
 _atom_site_label
 _atom_site_symmetry_multiplicity
 _atom_site_fract_x
 _atom_site_fract_y
 _atom_site_fract_z
 _atom_site_occupancy
 _atom_site_pbe_bader_charge
 _atom_site_pbe_bader_spin_density
 _atom_site_pbe_cm5_charge
 _atom_site_pbe_ddec_charge
 _atom_site_pbe_ddec_spin_density
 _atom_site_pbe_ddec_sum_bond_order
 _atom_site_pbe_magmom
Ni  Ni0  1  0.05933398  0.26576125  0.75062731  1  1.050051  -1.492995  0.648534  0.60114  -1.76323  2.500767  -1.48
Ni  Ni1  1  0.69116223  0.76574821  0.75075911  1  1.051249  1.493058  0.648629  0.601481  1.762916  2.499127  1.48
Ni  Ni2  1  0.94066964  0.73424048  0.24937198  1  1.050407  1.492995  0.648501  0.601072  1.763234  2.500711  1.48
Ni  Ni3  1  0.30883480  0.23425351  0.24924033  1  1.05122  -1.49306  0.648661  0.601663  -1.762921  2.498831  -1.48
H  H4  1  0.24513969  0.37109373  0.80406593  1  0.459131  0.000316  0.28389  0.242642  -0.000171  1.017169  0.0
H  H5  1  0.55873005  0.87117168  0.80412704  1  0.493726  -0.000351  0.284167  0.243182  0.000169  1.016223  0.0
H  H6  1  0.75486159  0.62890868  0.19593391  1  0.459172  -0.000316  0.283918  0.242671  0.000171  1.017056  0.0
H  H7  1  0.44126529  0.12882867  0.19587072  1  0.493743  0.000351  0.284201  0.243248  -0.000169  1.016201  0.0
H  H8  1  0.96545305  0.32728415  0.61681758  1  0.482115  0.000445  0.285074  0.242577  -0.000143  1.030847  0.001
H  H9  1  0.65106097  0.82716977  0.61694922  1  0.485159  -0.000445  0.28533  0.24278  0.00014  1.030425  -0.001
H  H10  1  0.03455190  0.67271618  0.38318207  1  0.482161  -0.000446  0.285058  0.242563  0.000143  1.030899  -0.001
H  H11  1  0.34893112  0.17283059  0.38304723  1  0.485215  0.000445  0.285364  0.242848  -0.00014  1.030416  0.001
H  H12  1  0.19335143  0.34451897  0.63401909  1  0.057413  -0.000259  0.111822  0.070529  2e-06  0.96  0.0
H  H13  1  0.44050403  0.84436311  0.63406053  1  0.057831  0.000261  0.111998  0.070167  -2e-06  0.960944  0.0
H  H14  1  0.80664426  0.65548067  0.36597996  1  0.057405  0.000259  0.111809  0.070524  -2e-06  0.960031  0.0
H  H15  1  0.55948678  0.15564139  0.36594039  1  0.057526  -0.000261  0.112003  0.07022  2e-06  0.960863  0.0
H  H16  1  0.31970091  0.50398342  0.74567485  1  0.023983  8.5e-05  0.092785  0.095958  5e-05  0.989729  0.0
H  H17  1  0.42529059  0.00397375  0.74548235  1  0.027692  -8.5e-05  0.092406  0.095436  -5.1e-05  0.990312  0.0
H  H18  1  0.68030279  0.49601833  0.25432167  1  0.024013  -8.5e-05  0.092777  0.095962  -5e-05  0.989754  0.0
H  H19  1  0.57471116  0.99602864  0.25452082  1  0.027764  8.5e-05  0.092403  0.095434  5.1e-05  0.990308  0.0
H  H20  1  0.39975749  0.42851534  0.69711851  1  0.013614  -0.00018  0.08858  0.084783  -7.1e-05  1.000068  0.0
H  H21  1  0.29689326  0.92838253  0.69689250  1  0.011104  0.00018  0.088825  0.085241  7e-05  0.999012  0.0
H  H22  1  0.60024162  0.57148503  0.30287630  1  0.013445  0.00018  0.088578  0.084774  7.1e-05  1.00019  0.0
H  H23  1  0.70310293  0.07162334  0.30310995  1  0.01126  -0.00018  0.08884  0.085271  -7e-05  0.998971  0.0
H  H24  1  0.27079083  0.48769240  0.56766682  1  0.020623  5.3e-05  0.086519  0.084199  4.4e-05  0.984761  0.0
H  H25  1  0.29655462  0.98735067  0.56745931  1  0.014241  -5.3e-05  0.086181  0.083548  -4.4e-05  0.984549  0.0
H  H26  1  0.72920248  0.51230727  0.43232797  1  0.020536  -5.3e-05  0.086501  0.084199  -4.4e-05  0.9848  0.0
H  H27  1  0.70344235  0.01265660  0.43254296  1  0.014596  5.3e-05  0.08616  0.083569  4.4e-05  0.984556  0.0
H  H28  1  0.34813672  0.58087775  0.62752707  1  0.034712  -0.000415  0.086889  0.083311  -0.000194  1.018282  0.0
H  H29  1  0.27863975  0.08062914  0.62714628  1  0.038166  0.000414  0.086418  0.082566  0.000193  1.019545  0.0
H  H30  1  0.65186331  0.41912470  0.37246962  1  0.03485  0.000415  0.086898  0.083218  0.000194  1.01827  0.0
H  H31  1  0.72136194  0.91937949  0.37285974  1  0.038303  -0.000414  0.086407  0.082579  -0.000193  1.019718  0.0
H  H32  1  0.14737026  0.61914276  0.65959983  1  -0.002264  0.000452  0.083628  0.073244  0.000248  1.000151  0.0
H  H33  1  0.51150924  0.11911027  0.65937303  1  0.005775  -0.000452  0.083579  0.07282  -0.000247  0.999965  0.0
H  H34  1  0.85262798  0.38085759  0.34039794  1  -0.002269  -0.000452  0.083604  0.073229  -0.000248  1.000118  0.0
H  H35  1  0.48849331  0.88089491  0.34062999  1  0.005829  0.000451  0.08355  0.072765  0.000247  0.999909  0.0
H  H36  1  0.11693671  0.61896504  0.55698989  1  0.028515  -0.000432  0.091328  0.098968  -0.000202  1.003003  0.0
H  H37  1  0.43940583  0.11872585  0.55674258  1  0.031983  0.000434  0.090742  0.09795  0.000203  1.002378  0.0
H  H38  1  0.88305828  0.38103532  0.44300657  1  0.028575  0.000431  0.091358  0.099034  0.000202  1.002976  0.0
H  H39  1  0.56059262  0.88128209  0.44326211  1  0.031858  -0.000434  0.090767  0.098004  -0.000203  1.002344  0.0
H  H40  1  0.03292021  0.45409438  0.55050997  1  0.044217  -2.5e-05  0.097171  0.100003  -2.6e-05  1.003627  0.0
H  H41  1  0.51728877  0.95389860  0.55052061  1  0.024537  2.7e-05  0.097203  0.099238  2.6e-05  1.00527  0.0
H  H42  1  0.96707984  0.54590454  0.44949150  1  0.044092  2.5e-05  0.097173  0.099998  2.5e-05  1.003613  0.0
H  H43  1  0.48270302  0.04611081  0.44947464  1  0.024842  -2.7e-05  0.097191  0.099273  -2.6e-05  1.005218  0.0
H  H44  1  0.94396252  0.53096602  0.59082864  1  0.008129  -2.3e-05  0.090752  0.089739  -1.7e-05  1.007395  0.0
H  H45  1  0.64645560  0.03084352  0.59080196  1  0.019804  2.3e-05  0.090739  0.089474  1.7e-05  1.006813  0.0
H  H46  1  0.05603316  0.46903431  0.40917041  1  0.008175  2.3e-05  0.090761  0.089771  1.7e-05  1.007432  0.0
H  H47  1  0.35354224  0.96916307  0.40919735  1  0.019801  -2.3e-05  0.090737  0.089481  -1.7e-05  1.006838  0.0
H  H48  1  0.07839233  0.47950330  0.72674550  1  0.037565  5.2e-05  0.103921  0.055161  0.000186  0.981997  0.0
H  H49  1  0.64796508  0.97955758  0.72673920  1  0.041907  -4.8e-05  0.104198  0.055648  -0.000185  0.98145  0.0
H  H50  1  0.92160548  0.52049773  0.27325376  1  0.03757  -5.2e-05  0.10391  0.05508  -0.000186  0.982026  0.0
H  H51  1  0.35203337  0.02044068  0.27325781  1  0.041903  4.8e-05  0.104171  0.055631  0.000185  0.981478  0.0
H  H52  1  0.85979606  0.44911908  0.71603973  1  0.024844  -0.000337  0.113614  0.070104  -3.3e-05  0.994263  0.0
H  H53  1  0.85596987  0.94902033  0.71615939  1  0.024249  0.000341  0.113697  0.070278  3.6e-05  0.99468  0.0
H  H54  1  0.14020352  0.55087918  0.28395840  1  0.024802  0.000337  0.11361  0.070075  3.3e-05  0.994284  0.0
H  H55  1  0.14401712  0.05098070  0.28383963  1  0.024314  -0.000341  0.113699  0.070272  -3.6e-05  0.994586  0.0
H  H56  1  0.79579167  0.43202976  0.61282338  1  0.036303  -0.006343  0.107221  0.064081  -0.002935  0.995231  -0.004
H  H57  1  0.81654240  0.93203768  0.61291943  1  0.042368  0.006337  0.106981  0.063019  0.002949  0.995113  0.004
H  H58  1  0.20420925  0.56796988  0.38717513  1  0.036365  0.006343  0.10721  0.064043  0.002936  0.995325  0.004
H  H59  1  0.18345461  0.06796057  0.38707998  1  0.042381  -0.006339  0.106981  0.063027  -0.002949  0.995065  -0.004
H  H60  1  0.70828599  0.25796389  0.77051952  1  0.039174  -0.006779  0.102028  0.059376  -0.003243  0.965944  -0.002
H  H61  1  0.06208351  0.75792332  0.77057010  1  0.019466  0.006783  0.102305  0.060478  0.003231  0.965686  0.002
H  H62  1  0.29171605  0.74203435  0.22948009  1  0.039154  0.006779  0.102012  0.05935  0.003243  0.965925  0.002
H  H63  1  0.93790885  0.24207840  0.22943044  1  0.019358  -0.006784  0.102276  0.060421  -0.003232  0.965705  -0.002
H  H64  1  0.84453157  0.33606768  0.80360682  1  0.10851  -0.000567  0.118455  0.09096  -0.000133  1.03607  -0.001
H  H65  1  0.95880325  0.83604694  0.80360689  1  0.111234  0.000564  0.118364  0.091082  0.000132  1.037362  0.001
H  H66  1  0.15547090  0.66393058  0.19639131  1  0.108477  0.000567  0.118432  0.090907  0.000133  1.036131  0.001
H  H67  1  0.04119257  0.16395477  0.19639422  1  0.111228  -0.000564  0.118388  0.091143  -0.000132  1.037326  -0.001
H  H68  1  0.78432436  0.25697935  0.58043882  1  0.068919  8.4e-05  0.111007  0.103162  8.3e-05  0.986174  0.0
H  H69  1  0.79557226  0.75679824  0.58054862  1  0.057447  -8.6e-05  0.110818  0.102812  -8.3e-05  0.987994  0.0
H  H70  1  0.21567329  0.74301682  0.41955835  1  0.068601  -8.4e-05  0.111014  0.103175  -8.3e-05  0.98623  0.0
H  H71  1  0.20442479  0.24320558  0.41945085  1  0.05754  8.6e-05  0.110813  0.102816  8.3e-05  0.987946  0.0
H  H72  1  0.63797395  0.23005687  0.59837371  1  0.053146  2.3e-05  0.100812  0.085732  2e-06  1.007628  0.0
H  H73  1  0.95992121  0.72993600  0.59837214  1  0.05793  -2.4e-05  0.101147  0.086576  -2e-06  1.008395  0.0
H  H74  1  0.36202968  0.76993995  0.40163034  1  0.053242  -2.3e-05  0.10084  0.085777  -2e-06  1.007573  0.0
H  H75  1  0.04007505  0.27006642  0.40162750  1  0.057865  2.4e-05  0.101131  0.086579  2e-06  1.008381  0.0
H  H76  1  0.73093935  0.11841590  0.69325043  1  0.011514  -0.004053  0.09473  0.059862  -0.001856  1.042049  -0.002
H  H77  1  0.96228633  0.61836427  0.69336421  1  0.025262  0.004034  0.094739  0.059745  0.001856  1.042628  0.002
H  H78  1  0.26906549  0.88158023  0.30675195  1  0.011446  0.004053  0.094735  0.059849  0.001856  1.041993  0.002
H  H79  1  0.03771072  0.38163955  0.30663526  1  0.025161  -0.004035  0.094724  0.059675  -0.001856  1.042689  -0.002
H  H80  1  0.86458334  0.11852369  0.65524217  1  0.09177  -0.000967  0.105123  0.08926  -0.000272  1.033136  -0.001
H  H81  1  0.79061494  0.61833929  0.65540694  1  0.085731  0.000965  0.105179  0.089362  0.000272  1.032875  0.001
H  H82  1  0.13541927  0.88147525  0.34475801  1  0.091824  0.000967  0.105131  0.089239  0.000272  1.033176  0.001
H  H83  1  0.20938040  0.38166106  0.34459082  1  0.085812  -0.000965  0.105183  0.089393  -0.000273  1.032791  -0.001
H  H84  1  0.84010830  0.09725372  0.82122550  1  0.051061  -0.002874  0.099328  0.077334  -0.001347  0.999489  -0.001
H  H85  1  0.98119816  0.59717054  0.82134466  1  0.050538  0.002865  0.099417  0.077525  0.001343  0.999446  0.001
H  H86  1  0.15989925  0.90274588  0.17877767  1  0.05099  0.002873  0.099381  0.077344  0.001347  0.999559  0.001
H  H87  1  0.01880043  0.40283049  0.17865442  1  0.050511  -0.002864  0.099459  0.077572  -0.001342  0.9994  -0.001
H  H88  1  0.93948393  0.18832222  0.87481067  1  0.057331  7.7e-05  0.109742  0.094029  0.000124  0.988145  0.0
H  H89  1  0.93550408  0.68831895  0.87491695  1  0.060906  -7.4e-05  0.11009  0.094555  -0.000124  0.988501  0.0
H  H90  1  0.06052528  0.81168019  0.12518940  1  0.057072  -7.7e-05  0.109746  0.094103  -0.000124  0.988075  0.0
H  H91  1  0.06449081  0.31168000  0.12508227  1  0.060868  7.4e-05  0.110109  0.094573  0.000124  0.988516  0.0
H  H92  1  0.06437586  0.04082826  0.87108033  1  0.054713  -0.002675  0.097623  0.078543  -0.001246  1.020345  -0.001
H  H93  1  0.80696682  0.54089884  0.87137086  1  0.058428  0.002676  0.097789  0.078623  0.001245  1.020548  0.001
H  H94  1  0.93563144  0.95917277  0.12891878  1  0.054865  0.002674  0.097614  0.078555  0.001246  1.020317  0.001
H  H95  1  0.19302928  0.45909942  0.12862670  1  0.058385  -0.002676  0.097798  0.07861  -0.001245  1.02049  -0.001
H  H96  1  0.02197542  0.05157089  0.76719439  1  0.045996  5.9e-05  0.110026  0.091768  0.000103  0.992506  0.0
H  H97  1  0.74534831  0.55150325  0.76746069  1  0.04722  -5.9e-05  0.109925  0.091681  -0.000103  0.992771  0.0
H  H98  1  0.97803096  0.94842876  0.23280286  1  0.046289  -5.9e-05  0.110081  0.091797  -0.000103  0.992585  0.0
H  H99  1  0.25464914  0.44849570  0.23253725  1  0.047286  5.9e-05  0.109945  0.091752  0.000103  0.992708  0.0
H  H100  1  0.28980010  0.05322326  0.83110516  1  0.030305  -0.004832  0.105026  0.065042  -0.002257  0.957699  -0.002
H  H101  1  0.54134756  0.55322504  0.83121520  1  0.027636  0.004836  0.105506  0.065789  0.002254  0.95909  0.002
H  H102  1  0.71020063  0.94678195  0.16889415  1  0.030166  0.004831  0.105058  0.065097  0.002257  0.957682  0.002
H  H103  1  0.45865003  0.44677529  0.16878479  1  0.02759  -0.004838  0.105483  0.065749  -0.002255  0.959141  -0.002
H  H104  1  0.21833725  0.10631364  0.73642421  1  0.157059  -0.000625  0.121129  0.093976  -0.000156  1.044459  -0.001
H  H105  1  0.51810562  0.60631390  0.73656330  1  0.160903  0.000624  0.121007  0.093637  0.000156  1.044596  0.001
H  H106  1  0.78166326  0.89369086  0.26357583  1  0.157076  0.000625  0.12114  0.094004  0.000156  1.04444  0.001
H  H107  1  0.48189295  0.39368435  0.26343575  1  0.160848  -0.000624  0.121008  0.093637  -0.000156  1.04453  -0.001
H  H108  1  0.23449333  0.12460457  0.94804367  1  0.038744  -0.004036  0.095272  0.07252  -0.001871  1.004841  -0.002
H  H109  1  0.71367426  0.62462970  0.94818221  1  0.037537  0.004031  0.095622  0.072918  0.001866  1.005263  0.002
H  H110  1  0.76551218  0.87539575  0.05195654  1  0.038721  0.004036  0.095282  0.072518  0.001871  1.004849  0.002
H  H111  1  0.28632489  0.37536994  0.05181740  1  0.037543  -0.004032  0.095627  0.072935  -0.001866  1.005244  -0.002
H  H112  1  0.16598169  0.23849875  0.92946978  1  0.068409  -0.001259  0.103854  0.090799  -0.000421  1.024066  -0.001
H  H113  1  0.76351373  0.73852273  0.92963813  1  0.071538  0.001256  0.1037  0.091461  0.000421  1.023062  0.001
H  H114  1  0.83402574  0.76150296  0.07053138  1  0.06858  0.001259  0.103821  0.090727  0.000421  1.02409  0.001
H  H115  1  0.23648329  0.26147761  0.07036130  1  0.071526  -0.001255  0.10368  0.091416  -0.000421  1.023111  -0.001
H  H116  1  0.35833558  0.29609663  0.90694130  1  0.076523  1.4e-05  0.108427  0.094136  4.8e-05  0.993645  0.0
H  H117  1  0.54852873  0.79608691  0.90709977  1  0.076947  -1.4e-05  0.108515  0.094379  -4.8e-05  0.993527  0.0
H  H118  1  0.64166918  0.70390717  0.09305912  1  0.076624  -1.4e-05  0.10842  0.094103  -4.8e-05  0.993662  0.0
H  H119  1  0.45147042  0.20391343  0.09289986  1  0.076911  1.4e-05  0.108528  0.094359  4.8e-05  0.993502  0.0
H  H120  1  0.42953979  0.18837071  0.94607795  1  0.043878  -6.2e-05  0.099863  0.07949  -3.5e-05  0.978532  0.0
H  H121  1  0.51656073  0.68830022  0.94615950  1  0.044749  6.2e-05  0.099717  0.078993  3.5e-05  0.979482  0.0
H  H122  1  0.57046384  0.81163241  0.05392135  1  0.044007  6.2e-05  0.099849  0.079433  3.5e-05  0.978569  0.0
H  H123  1  0.48343338  0.31169663  0.05383988  1  0.044774  -6.2e-05  0.099677  0.078911  -3.5e-05  0.979539  0.0
H  H124  1  0.33190530  0.23192480  0.70807889  1  0.06781  -0.00041  0.120313  0.083215  -7.5e-05  0.971882  0.0
H  H125  1  0.37607543  0.73199598  0.70820063  1  0.068207  0.000407  0.12069  0.083574  7.4e-05  0.971894  0.0
H  H126  1  0.66809656  0.76808039  0.29192154  1  0.06783  0.00041  0.120292  0.083171  7.5e-05  0.971816  0.0
H  H127  1  0.62392429  0.26800644  0.29179957  1  0.068206  -0.000407  0.120699  0.083619  -7.4e-05  0.971806  0.0
H  H128  1  0.43217177  0.30326011  0.78404389  1  0.035393  -0.00835  0.104889  0.057004  -0.003997  0.979211  -0.003
H  H129  1  0.35182153  0.80333833  0.78418202  1  0.02792  0.00835  0.104952  0.056631  0.003995  0.978933  0.003
H  H130  1  0.56783008  0.69674369  0.21595652  1  0.035485  0.008349  0.10489  0.05702  0.003996  0.979264  0.003
H  H131  1  0.64817818  0.19666130  0.21581816  1  0.027934  -0.008352  0.104976  0.05666  -0.003996  0.978948  -0.003
H  H132  1  0.06198767  0.00366331  0.64525483  1  0.059932  5.2e-05  0.097878  0.090976  1.1e-05  1.035609  0.0
H  H133  1  0.58302689  0.50346337  0.64526519  1  0.062073  -5.2e-05  0.098417  0.091959  -1.1e-05  1.036488  0.0
H  H134  1  0.93802280  0.99633348  0.35475314  1  0.060358  -5.2e-05  0.09791  0.091062  -1.1e-05  1.035717  0.0
H  H135  1  0.41697665  0.49652235  0.35473393  1  0.06214  5.2e-05  0.098413  0.091839  1.1e-05  1.036458  0.0
H  H136  1  0.95146109  0.14744735  0.42535918  1  0.081806  -1.4e-05  0.100918  0.100201  9e-06  1.042559  0.0
H  H137  1  0.47454441  0.64748654  0.42547878  1  0.088914  1.4e-05  0.101491  0.101096  -9e-06  1.042117  0.0
H  H138  1  0.04853864  0.85255576  0.57464104  1  0.081932  1.4e-05  0.100938  0.100271  -9e-06  1.042739  0.0
H  H139  1  0.52546441  0.35249915  0.57452462  1  0.08867  -1.4e-05  0.101536  0.101071  9e-06  1.042216  0.0
H  H140  1  0.17710734  0.57798691  0.96398805  1  0.092791  5.7e-05  0.103842  0.109322  4.6e-05  0.998474  0.0
H  H141  1  0.78678171  0.07794354  0.96451760  1  0.094333  -5.5e-05  0.103667  0.109011  -4.5e-05  0.997931  0.0
H  H142  1  0.82290741  0.42199875  0.03601741  1  0.092804  -5.7e-05  0.103849  0.109376  -4.6e-05  0.998539  0.0
H  H143  1  0.21321370  0.92206373  0.03548504  1  0.09445  5.6e-05  0.103682  0.109034  4.6e-05  0.998156  0.0
H  H144  1  0.92150818  0.34605659  0.94104611  1  0.086262  -3e-06  0.099656  0.100155  -1.7e-05  1.018133  0.0
H  H145  1  0.01930518  0.84628532  0.94063972  1  0.046936  -0.0  0.099716  0.100435  1.6e-05  1.018732  0.0
H  H146  1  0.07850802  0.65395065  0.05895995  1  0.086107  4e-06  0.099617  0.099956  1.7e-05  1.01751  0.0
H  H147  1  0.98069937  0.15372126  0.05936148  1  0.046801  0.0  0.099749  0.100529  -1.6e-05  1.018756  0.0
C  C148  1  0.20290354  0.38975444  0.68555221  1  0.278837  -0.000466  0.003007  0.091366  -0.000575  3.791424  0.001
C  C149  1  0.48235654  0.88969126  0.68555438  1  0.282971  0.00045  0.003303  0.09216  0.000578  3.791464  -0.001
C  C150  1  0.79709484  0.61024798  0.31444762  1  0.278869  0.000467  0.003042  0.091342  0.000576  3.79147  -0.001
C  C151  1  0.51763513  0.11031256  0.31444359  1  0.283357  -0.00045  0.003281  0.092058  -0.000578  3.791593  0.001
C  C152  1  0.30742786  0.46314206  0.69149077  1  -0.01754  -0.003456  -0.165926  -0.203327  -0.002271  3.916032  -0.003
C  C153  1  0.38359101  0.96304053  0.69134156  1  -0.024321  0.003462  -0.165972  -0.203727  0.00227  3.915443  0.003
C  C154  1  0.69257026  0.53685969  0.30850498  1  -0.017275  0.003456  -0.165899  -0.203285  0.002271  3.916221  0.003
C  C155  1  0.61640616  0.03696188  0.30865993  1  -0.024085  -0.003462  -0.165998  -0.203732  -0.00227  3.915356  -0.003
C  C156  1  0.27281953  0.52799760  0.62061719  1  -0.013263  -0.000988  -0.169603  -0.140964  -0.000551  3.94385  -0.001
C  C157  1  0.34725589  0.02778435  0.62038913  1  -0.008329  0.000991  -0.1685  -0.139829  0.000551  3.94324  0.001
C  C158  1  0.72717938  0.47200693  0.37937841  1  -0.01338  0.000988  -0.169591  -0.140881  0.000551  3.943882  0.001
C  C159  1  0.65274199  0.97222221  0.37961499  1  -0.009171  -0.000991  -0.168546  -0.14001  -0.000551  3.94346  -0.001
C  C160  1  0.14228448  0.57370504  0.60876157  1  -0.011725  -0.000748  -0.1708  -0.15294  -0.000388  3.957646  -0.001
C  C161  1  0.46588941  0.07355845  0.60858208  1  -0.038454  0.00076  -0.170344  -0.150799  0.000389  3.955967  0.001
C  C162  1  0.85771221  0.42629740  0.39123658  1  -0.011743  0.000748  -0.170818  -0.152986  0.000388  3.957584  0.001
C  C163  1  0.53410712  0.92644881  0.39142167  1  -0.038171  -0.00076  -0.170202  -0.150614  -0.000389  3.95586  -0.001
C  C164  1  0.03930984  0.49926701  0.60140789  1  -0.052879  -0.003463  -0.169369  -0.213555  -0.002259  3.927499  -0.003
C  C165  1  0.56169258  0.99914935  0.60137977  1  -0.019809  0.003438  -0.169156  -0.212397  0.002263  3.92908  0.003
C  C166  1  0.96068874  0.50073333  0.39859118  1  -0.052925  0.003463  -0.169403  -0.213629  0.002259  3.927637  0.003
C  C167  1  0.43830402  0.00085237  0.39862115  1  -0.020122  -0.003439  -0.169196  -0.2125  -0.002263  3.929219  -0.003
C  C168  1  0.07139559  0.43711122  0.67390572  1  0.310148  -0.000229  0.002831  0.094546  -0.000452  3.804461  0.001
C  C169  1  0.60217799  0.93707086  0.67392659  1  0.284119  0.000265  0.002002  0.09258  0.00046  3.80628  -0.001
C  C170  1  0.92860524  0.56288771  0.32609557  1  0.310223  0.000229  0.002862  0.094675  0.000452  3.80443  -0.001
C  C171  1  0.39781634  0.06292739  0.32607207  1  0.284067  -0.000265  0.002019  0.092559  -0.000461  3.806244  0.001
C  C172  1  0.84519188  0.39740311  0.66865693  1  0.63743  -0.000484  0.023079  0.06111  -0.000958  3.915011  0.002
C  C173  1  0.82310251  0.89735201  0.66873397  1  0.632682  0.000522  0.023842  0.0631  0.000957  3.916152  -0.002
C  C174  1  0.15481252  0.60259792  0.33134217  1  0.637455  0.000484  0.023057  0.061131  0.000958  3.915217  -0.002
C  C175  1  0.17689283  0.10264903  0.33126380  1  0.632539  -0.000522  0.023819  0.063144  -0.000957  3.915996  0.002
C  C176  1  0.79461063  0.28625553  0.75819603  1  0.548396  0.0012  0.017596  0.004531  0.000316  3.904781  0.002
C  C177  1  0.96337107  0.78620610  0.75822598  1  0.561882  -0.001239  0.017469  0.002989  -0.00032  3.90783  -0.002
C  C178  1  0.20539063  0.71374271  0.24180376  1  0.548462  -0.0012  0.017626  0.00466  -0.000316  3.904691  -0.002
C  C179  1  0.03662496  0.21379492  0.24177438  1  0.562139  0.00124  0.017498  0.002971  0.00032  3.907944  0.002
C  C180  1  0.74049712  0.24439500  0.62698404  1  0.259526  1.3e-05  -0.066377  -0.078581  0.0001  3.815355  0.0
C  C181  1  0.88606741  0.74424649  0.62702537  1  0.266255  -1.5e-05  -0.065973  -0.078249  -0.000101  3.814788  0.0
C  C182  1  0.25950504  0.75560184  0.37301760  1  0.259803  -1.3e-05  -0.066417  -0.078638  -0.0001  3.815362  0.0
C  C183  1  0.11392739  0.25575734  0.37297187  1  0.266511  1.5e-05  -0.065946  -0.078246  0.000101  3.814985  0.0
C  C184  1  0.80465579  0.16220666  0.68011976  1  0.224257  0.000436  -0.074265  -0.099573  -0.000119  3.856812  0.001
C  C185  1  0.87534618  0.66209603  0.68023168  1  0.211742  -0.000411  -0.074736  -0.10018  0.000127  3.857214  -0.001
C  C186  1  0.19534659  0.83779018  0.31988114  1  0.224212  -0.000437  -0.074281  -0.099495  0.000118  3.856672  -0.001
C  C187  1  0.12464561  0.33790430  0.31976828  1  0.211527  0.000411  -0.074809  -0.100292  -0.000127  3.857432  0.001
C  C188  1  0.91906887  0.14536462  0.82150523  1  0.266868  -0.000261  -0.068426  -0.087616  -0.000449  3.900289  0.001
C  C189  1  0.90252242  0.64532987  0.82163600  1  0.262453  0.000274  -0.06795  -0.087068  0.000451  3.900065  -0.001
C  C190  1  0.08093622  0.85463708  0.17849647  1  0.267276  0.000261  -0.068402  -0.08766  0.000449  3.900299  -0.001
C  C191  1  0.09747347  0.35466908  0.17836230  1  0.262482  -0.000273  -0.068025  -0.087115  -0.000451  3.900007  0.001
C  C192  1  0.03979496  0.09088120  0.82234069  1  0.257651  -0.000341  -0.067678  -0.084341  -0.000542  3.880633  0.001
C  C193  1  0.78270027  0.59087564  0.82257299  1  0.25992  0.000353  -0.068416  -0.085121  0.000548  3.881453  -0.001
C  C194  1  0.96020687  0.90911982  0.17765970  1  0.257464  0.000342  -0.067772  -0.084459  0.000542  3.880632  -0.001
C  C195  1  0.21729584  0.40912192  0.17742456  1  0.259935  -0.000352  -0.068451  -0.085211  -0.000547  3.881439  0.001
C  C196  1  0.25267723  0.11855119  0.79965201  1  0.539434  0.001172  0.017957  0.000135  0.000392  3.905602  0.002
C  C197  1  0.54703853  0.61856038  0.79979484  1  0.520915  -0.00119  0.018045  -0.000638  -0.000392  3.907742  -0.002
C  C198  1  0.74732875  0.88145541  0.20034678  1  0.539405  -0.001172  0.018006  0.000182  -0.000392  3.905671  -0.002
C  C199  1  0.45295658  0.38143648  0.20020363  1  0.521123  0.001191  0.018058  -0.000618  0.000392  3.907959  0.002
C  C200  1  0.21908341  0.18509658  0.90853680  1  0.239521  0.000199  -0.073019  -0.091702  -0.000316  3.824814  0.001
C  C201  1  0.68952200  0.68512390  0.90869948  1  0.23869  -0.000201  -0.073304  -0.092094  0.000314  3.824627  -0.001
C  C202  1  0.78092043  0.81490585  0.09146176  1  0.239262  -0.000199  -0.072983  -0.091651  0.000316  3.824812  -0.001
C  C203  1  0.31047692  0.31487504  0.09130087  1  0.238673  0.000201  -0.07331  -0.092089  -0.000314  3.82463  0.001
C  C204  1  0.34918085  0.22017687  0.90070488  1  0.234508  -0.000103  -0.06499  -0.074829  1e-05  3.849189  0.0
C  C205  1  0.55151154  0.72016746  0.90082477  1  0.230436  0.000104  -0.065104  -0.075597  -1e-05  3.849209  0.0
C  C206  1  0.65082300  0.77982764  0.09929370  1  0.234354  0.000103  -0.064934  -0.074605  -1e-05  3.849255  0.0
C  C207  1  0.44848604  0.27983148  0.09917520  1  0.230488  -0.000104  -0.06501  -0.075363  1e-05  3.849274  0.0
C  C208  1  0.34097335  0.26398632  0.76539013  1  0.610824  -0.000253  0.024923  0.060398  -0.000882  3.93369  0.002
C  C209  1  0.42436102  0.76403835  0.76552095  1  0.617227  0.000245  0.025432  0.061506  0.000878  3.930854  -0.002
C  C210  1  0.65902972  0.73601820  0.23460863  1  0.610786  0.000253  0.024904  0.06042  0.000882  3.933563  -0.002
C  C211  1  0.57563600  0.23595920  0.23447845  1  0.617222  -0.000245  0.025372  0.061405  -0.000879  3.931038  0.002
C  C212  1  0.01920627  0.17789076  0.58190973  1  1.545781  -0.000748  0.20273  0.556763  -0.001531  4.219024  -0.001
C  C213  1  0.56271170  0.67780290  0.58203400  1  1.527328  0.000869  0.201102  0.55451  0.001533  4.220275  0.001
C  C214  1  0.98079376  0.82210469  0.41809170  1  1.545777  0.000749  0.20267  0.556696  0.001532  4.219337  0.001
C  C215  1  0.43729299  0.32218699  0.41796629  1  1.527345  -0.000869  0.200998  0.554236  -0.001533  4.220349  -0.001
C  C216  1  0.00824064  0.08568396  0.53980496  1  0.03609  -0.006081  -0.022845  -0.046273  -0.003775  3.98083  -0.005
C  C217  1  0.53178729  0.58560797  0.53985887  1  -0.062508  0.006118  -0.021969  -0.043799  0.003754  3.977212  0.005
C  C218  1  0.99175529  0.91431356  0.46019814  1  0.036134  0.006081  -0.022858  -0.046363  0.003775  3.980338  0.005
C  C219  1  0.46822375  0.41437912  0.46014197  1  -0.063176  -0.006119  -0.021873  -0.043558  -0.003754  3.97739  -0.005
C  C220  1  0.03455157  0.00192574  0.58144920  1  -0.030046  0.000537  -0.087855  -0.102194  0.000331  4.01478  0.0
C  C221  1  0.54680643  0.50182624  0.58147121  1  -0.015043  -0.000514  -0.088269  -0.103854  -0.00032  4.016227  0.0
C  C222  1  0.96544458  0.99808087  0.41854845  1  -0.030399  -0.000538  -0.087821  -0.102222  -0.000331  4.014604  0.0
C  C223  1  0.45321317  0.49816147  0.41854003  1  -0.014366  0.000514  -0.088407  -0.103856  0.00032  4.016787  0.0
C  C224  1  0.97269186  0.08265070  0.45780533  1  -0.129631  -0.001069  -0.087  -0.09763  -0.000632  3.982658  -0.001
C  C225  1  0.48544390  0.58266168  0.45785528  1  -0.054515  0.001009  -0.087889  -0.099502  0.000637  3.984314  0.001
C  C226  1  0.02730636  0.91734816  0.54220482  1  -0.129442  0.00107  -0.086985  -0.097695  0.000632  3.982558  0.001
C  C227  1  0.51457246  0.41731566  0.54214696  1  -0.053799  -0.001008  -0.087951  -0.099405  -0.000636  3.98397  -0.001
C  C228  1  0.11223997  0.41450957  0.88760817  1  1.560349  0.000394  0.195267  0.543843  -0.000751  4.248499  0.0
C  C229  1  0.77510140  0.91461145  0.88772468  1  1.572548  -0.000445  0.196513  0.54354  0.00077  4.2508  0.0
C  C230  1  0.88776594  0.58548172  0.11239047  1  1.560524  -0.000394  0.195246  0.543792  0.000752  4.24824  0.0
C  C231  1  0.22490136  0.08539234  0.11227759  1  1.572447  0.000445  0.196558  0.54379  -0.00077  4.250411  0.0
C  C232  1  0.05527264  0.45772712  0.94674944  1  -0.013853  -0.007764  -0.021155  -0.037545  -0.004761  3.973906  -0.006
C  C233  1  0.89132502  0.95784972  0.94677567  1  0.030387  0.007836  -0.02071  -0.036095  0.004772  3.976138  0.006
C  C234  1  0.94474489  0.54227395  0.05324454  1  -0.071963  0.007769  -0.021008  -0.037382  0.004761  3.97415  0.006
C  C235  1  0.10868043  0.04216385  0.05322264  1  0.030466  -0.007835  -0.020716  -0.036415  -0.004772  3.975995  -0.006
C  C236  1  0.09952501  0.54449370  0.98038981  1  -0.084241  -0.000638  -0.088718  -0.109994  -0.000421  4.006089  0.0
C  C237  1  0.88081345  0.04445216  0.98068717  1  -0.084754  0.000634  -0.088835  -0.110019  0.000418  4.005054  0.0
C  C238  1  0.90047373  0.45551149  0.01961135  1  -0.084187  0.000637  -0.08877  -0.1101  0.000421  4.005799  0.0
C  C239  1  0.11919204  0.95554329  0.01931299  1  -0.08519  -0.000635  -0.088825  -0.109977  -0.000418  4.004882  0.0
C  C240  1  0.95551271  0.41356940  0.96723493  1  -0.068103  0.001368  -0.091041  -0.107969  0.000794  3.991343  0.001
C  C241  1  0.01160880  0.91374451  0.96699189  1  -0.103415  -0.00136  -0.091421  -0.108722  -0.000794  3.993617  -0.001
C  C242  1  0.04448783  0.58640383  0.03275924  1  -0.009962  -0.00137  -0.091145  -0.107767  -0.000793  3.991763  -0.001
C  C243  1  0.98838393  0.08626276  0.03301000  1  -0.103026  0.001361  -0.091459  -0.108768  0.000795  3.993597  0.001
N  N244  1  0.23036291  0.32841664  0.75491309  1  -1.061018  -0.0835  -0.495075  -0.379996  -0.050644  3.506674  -0.072
N  N245  1  0.52440004  0.82844444  0.75499527  1  -1.098098  0.083572  -0.496164  -0.381131  0.050715  3.50493  0.072
N  N246  1  0.76964340  0.67158717  0.24508698  1  -1.061408  0.083499  -0.495061  -0.379886  0.05064  3.506573  0.072
N  N247  1  0.47559531  0.17155799  0.24500251  1  -1.098226  -0.083568  -0.496154  -0.38116  -0.050713  3.505031  -0.072
N  N248  1  0.97386186  0.36392448  0.66867955  1  -1.086981  -0.084754  -0.499701  -0.38554  -0.051396  3.509032  -0.073
N  N249  1  0.69453793  0.86388498  0.66878351  1  -1.076862  0.084752  -0.500267  -0.385966  0.051409  3.511313  0.073
N  N250  1  0.02613985  0.63607517  0.33131878  1  -1.087083  0.08476  -0.499691  -0.385528  0.0514  3.508743  0.073
N  N251  1  0.30545585  0.13611467  0.33121461  1  -1.076847  -0.084755  -0.500228  -0.385974  -0.051411  3.511209  -0.073
N  N252  1  0.88170460  0.20782650  0.75360311  1  -0.987623  -0.064935  -0.345878  -0.115424  -0.040283  3.501967  -0.058
N  N253  1  0.87180718  0.70774537  0.75369534  1  -0.981012  0.064853  -0.346543  -0.11647  0.040191  3.501136  0.058
N  N254  1  0.11829900  0.79217174  0.24639615  1  -0.987751  0.064931  -0.345894  -0.11547  0.04028  3.50192  0.058
N  N255  1  0.12818841  0.29225425  0.24630649  1  -0.9812  -0.064855  -0.34648  -0.11635  -0.040192  3.501044  -0.058
N  N256  1  0.14676026  0.15555912  0.82763891  1  -0.968252  -0.067522  -0.343525  -0.117221  -0.041731  3.492529  -0.061
N  N257  1  0.68094609  0.65556113  0.82779878  1  -0.982447  0.067449  -0.342896  -0.116819  0.041703  3.492293  0.061
N  N258  1  0.85324167  0.84444262  0.17235871  1  -0.968533  0.067514  -0.343563  -0.117201  0.041727  3.492547  0.061
N  N259  1  0.31905228  0.34443850  0.17220102  1  -0.982503  -0.067449  -0.342898  -0.116895  -0.041702  3.492511  -0.061
N  N260  1  0.35073172  0.18986476  0.82183442  1  -1.046598  -0.001517  -0.344447  -0.18912  -0.000627  3.471673  -0.001
N  N261  1  0.47112045  0.68987663  0.82193719  1  -1.01989  0.001523  -0.344981  -0.188304  0.00063  3.470179  0.001
N  N262  1  0.64927271  0.81014183  0.17816474  1  -1.046428  0.001517  -0.344506  -0.189357  0.000627  3.471804  0.001
N  N263  1  0.52887488  0.31012163  0.17806054  1  -1.019922  -0.001524  -0.345063  -0.188415  -0.000631  3.470382  -0.001
N  N264  1  0.75847261  0.32609708  0.68056829  1  -1.011251  -0.001493  -0.340739  -0.182809  -0.000617  3.456535  -0.001
N  N265  1  0.92173132  0.82600798  0.68058902  1  -1.013092  0.001486  -0.34138  -0.183443  0.000615  3.45618  0.001
N  N266  1  0.24153134  0.67390185  0.31943227  1  -1.011287  0.001493  -0.340687  -0.182823  0.000617  3.456751  0.001
N  N267  1  0.07826224  0.17399236  0.31940984  1  -1.013147  -0.001486  -0.341401  -0.183482  -0.000615  3.456153  -0.001
O  O268  1  0.06525398  0.17414447  0.65711552  1  -1.152265  -0.06468  -0.322191  -0.563501  -0.038933  2.385771  -0.059
O  O269  1  0.59170658  0.67401485  0.65722141  1  -1.13572  0.064479  -0.32156  -0.562971  0.038883  2.386229  0.059
O  O270  1  0.93473969  0.82585167  0.34288534  1  -1.152224  0.064679  -0.322167  -0.563493  0.038933  2.385737  0.059
O  O271  1  0.40828280  0.32597295  0.34277896  1  -1.135875  -0.064469  -0.321513  -0.562856  -0.038878  2.386272  -0.059
O  O272  1  0.98242083  0.25078711  0.54211231  1  -1.193874  -0.000283  -0.330961  -0.559051  0.000138  2.153612  0.0
O  O273  1  0.55964762  0.75075076  0.54229343  1  -1.190236  0.000315  -0.330577  -0.558136  -0.000121  2.153825  0.0
O  O274  1  0.01758029  0.74920767  0.45788542  1  -1.193982  0.000284  -0.330938  -0.558988  -0.000138  2.153884  0.0
O  O275  1  0.44035921  0.24923560  0.45771182  1  -1.189674  -0.000313  -0.330538  -0.558113  0.000122  2.153585  0.0
O  O276  1  0.04451763  0.34844838  0.84631069  1  -1.175561  -0.065787  -0.318745  -0.555444  -0.039711  2.398391  -0.061
O  O277  1  0.80145820  0.84863308  0.84630860  1  -1.170669  0.065868  -0.320227  -0.556747  0.039752  2.397783  0.061
O  O278  1  0.95548653  0.65154986  0.15368912  1  -1.175484  0.06579  -0.318703  -0.555365  0.039712  2.398097  0.061
O  O279  1  0.19854230  0.15137634  0.15368668  1  -1.170839  -0.065872  -0.320227  -0.556803  -0.039753  2.39762  -0.061
O  O280  1  0.21749701  0.44536446  0.88261242  1  -1.183953  0.001491  -0.338552  -0.558674  0.001142  2.111299  0.001
O  O281  1  0.66481367  0.94524330  0.88296072  1  -1.173813  -0.0015  -0.338594  -0.558077  -0.001149  2.112583  -0.001
O  O282  1  0.78250874  0.55462198  0.11738413  1  -1.183914  -0.001492  -0.338623  -0.558742  -0.001142  2.111377  -0.001
O  O283  1  0.33518793  0.05474784  0.11705751  1  -1.173703  0.001501  -0.338622  -0.558158  0.001149  2.11233  0.001
