# generated using pymatgen
data_La2H18C22O17
_symmetry_space_group_name_H-M   'P 1'
_cell_length_a   6.11996526
_cell_length_b   8.92774973
_cell_length_c   12.41572125
_cell_angle_alpha   104.74120043
_cell_angle_beta   92.60688379
_cell_angle_gamma   103.72294718
_symmetry_Int_Tables_number   1
_chemical_formula_structural   La2H18C22O17
_chemical_formula_sum   'La2 H18 C22 O17'
_cell_volume   633.25106227
_cell_formula_units_Z   1
loop_
 _symmetry_equiv_pos_site_id
 _symmetry_equiv_pos_as_xyz
  1  'x, y, z'
loop_
 _atom_site_type_symbol
 _atom_site_label
 _atom_site_symmetry_multiplicity
 _atom_site_fract_x
 _atom_site_fract_y
 _atom_site_fract_z
 _atom_site_occupancy
 _atom_site_hle17_bader_spin_density
 _atom_site_hle17_ddec_charge
 _atom_site_hle17_ddec_spin_density
 _atom_site_hle17_ddec_sum_bond_order
 _atom_site_hle17_magmom
 _atom_site_hse06_10hf_bader_spin_density
 _atom_site_hse06_10hf_ddec_charge
 _atom_site_hse06_10hf_ddec_spin_density
 _atom_site_hse06_10hf_ddec_sum_bond_order
 _atom_site_hse06_10hf_magmom
 _atom_site_hse06_bader_spin_density
 _atom_site_hse06_ddec_charge
 _atom_site_hse06_ddec_spin_density
 _atom_site_hse06_ddec_sum_bond_order
 _atom_site_hse06_magmom
 _atom_site_pbe_bader_spin_density
 _atom_site_pbe_cm5_charge
 _atom_site_pbe_ddec_charge
 _atom_site_pbe_ddec_spin_density
 _atom_site_pbe_ddec_sum_bond_order
 _atom_site_pbe_magmom
La  La0  1  0.26068225  0.71139700  0.10705278  1  0  2.063914  0  1.801858  0  0  1.931923  0  2.329448  0  0  2.033972  0  2.232682  0  0  1.405522  1.855751  0  2.396317  0
La  La1  1  0.74745939  0.29744954  0.90701837  1  0  2.074288  0  1.78268  0  0  1.942797  0  2.303345  0  0  2.044707  0  2.207133  0  0  1.405008  1.866604  0  2.370026  0
H  H2  1  0.97914648  0.02701899  0.35986962  1  0  0.101725  0  0.941751  0  0  0.107457  0  1.010754  0  0  0.11001  0  1.008633  0  0  0.113266  0.105616  0  1.012377  0
H  H3  1  0.02310618  0.97024896  0.65215521  1  0  0.104996  0  0.941672  0  0  0.111235  0  1.008314  0  0  0.113982  0  1.006332  0  0  0.115116  0.109291  0  1.009857  0
H  H4  1  0.89761801  0.84412135  0.39939852  1  0  0.093064  0  0.92572  0  0  0.103258  0  0.991871  0  0  0.104379  0  0.991718  0  0  0.111591  0.102461  0  0.992105  0
H  H5  1  0.09800009  0.14591524  0.60378562  1  0  0.096329  0  0.923794  0  0  0.10564  0  0.990358  0  0  0.106731  0  0.990661  0  0  0.114201  0.104903  0  0.990265  0
H  H6  1  0.29123343  0.71112900  0.45110964  1  0  0.112874  0  0.977814  0  0  0.119551  0  1.045072  0  0  0.12156  0  1.045888  0  0  0.104959  0.118087  0  1.044657  0
H  H7  1  0.71089052  0.28807298  0.55822790  1  0  0.112412  0  0.977517  0  0  0.118844  0  1.045319  0  0  0.12085  0  1.046147  0  0  0.104611  0.117382  0  1.044887  0
H  H8  1  0.42509643  0.17221448  0.38550913  1  0  0.123761  0  0.950312  0  0  0.130618  0  1.013802  0  0  0.134592  0  1.010907  0  0  0.111758  0.127712  0  1.016086  0
H  H9  1  0.57745247  0.82688426  0.62362019  1  0  0.122737  0  0.95077  0  0  0.129555  0  1.014449  0  0  0.133519  0  1.011608  0  0  0.110233  0.126646  0  1.016682  0
H  H10  1  0.16789526  0.77981628  0.79535728  1  0  0.09273  0  0.921622  0  0  0.100606  0  0.986628  0  0  0.102683  0  0.984779  0  0  0.113453  0.099147  0  0.988059  0
H  H11  1  0.84368470  0.21983818  0.20402168  1  0  0.091831  0  0.922975  0  0  0.09967  0  0.988768  0  0  0.10164  0  0.98707  0  0  0.114988  0.098242  0  0.990084  0
H  H12  1  0.92063044  0.84089756  0.83965701  1  0  0.128231  0  0.924834  0  0  0.137503  0  0.98489  0  0  0.141293  0  0.981317  0  0  0.124816  0.134682  0  0.987761  0
H  H13  1  0.09397374  0.16047961  0.16317393  1  0  0.129815  0  0.929138  0  0  0.139648  0  0.988528  0  0  0.143588  0  0.984864  0  0  0.126403  0.136697  0  0.99143  0
H  H14  1  0.68386213  0.61892457  0.47581093  1  0  0.114832  0  0.950135  0  0  0.127185  0  1.008118  0  0  0.130167  0  1.006919  0  0  0.108498  0.124873  0  1.009464  0
H  H15  1  0.31642544  0.37533608  0.52739510  1  0  0.111618  0  0.954313  0  0  0.123811  0  1.013085  0  0  0.126751  0  1.01194  0  0  0.106574  0.121541  0  1.014377  0
H  H16  1  0.22153939  0.56370472  0.68847289  1  0  0.112985  0  0.944717  0  0  0.126497  0  0.99729  0  0  0.129941  0  0.99517  0  0  0.109667  0.124015  0  0.998945  0
H  H17  1  0.77890830  0.43068232  0.31476594  1  0  0.11738  0  0.940415  0  0  0.131861  0  0.990881  0  0  0.135392  0  0.988736  0  0  0.113569  0.12931  0  0.992546  0
H  H18  1  0.33731269  0.41695284  0.93326922  1  0  0.417582  0  0.900372  0  0  0.384749  0  0.968097  0  0  0.396618  0  0.95138  0  0  0.304037  0.376303  0  0.979934  0
H  H19  1  0.52395534  0.58035016  0.93853438  1  0  0.432676  0  0.852677  0  0  0.404944  0  0.91989  0  0  0.415406  0  0.904653  0  0  0.316348  0.39738  0  0.930879  0
C  C20  1  0.81141277  0.82055663  0.22549056  1  0  0.721028  0  3.843729  0  0  0.679412  0  4.139812  0  0  0.714487  0  4.131984  0  0  0.238211  0.655111  0  4.144531  0
C  C21  1  0.19772509  0.18649759  0.77726746  1  0  0.725337  0  3.819229  0  0  0.679599  0  4.112529  0  0  0.714949  0  4.103899  0  0  0.244559  0.655172  0  4.117869  0
C  C22  1  0.96770223  0.89777230  0.33353165  1  0  -0.072309  0  3.613066  0  0  -0.127415  0  3.870631  0  0  -0.124394  0  3.869985  0  0  -0.061106  -0.129574  0  3.871128  0
C  C23  1  0.03339230  0.09937534  0.67367175  1  0  -0.072003  0  3.618877  0  0  -0.12378  0  3.872393  0  0  -0.121954  0  3.873086  0  0  -0.057437  -0.125306  0  3.872268  0
C  C24  1  0.34406161  0.93675333  0.41141009  1  0  0.253905  0  3.79489  0  0  0.249626  0  4.052136  0  0  0.257162  0  4.06969  0  0  0.079048  0.24423  0  4.040359  0
C  C25  1  0.65766005  0.06243620  0.59796090  1  0  0.253528  0  3.793356  0  0  0.249856  0  4.050767  0  0  0.257342  0  4.068133  0  0  0.07686  0.244509  0  4.039071  0
C  C26  1  0.38320806  0.83717833  0.47609708  1  0  -0.153034  0  3.75038  0  0  -0.175198  0  4.002386  0  0  -0.178599  0  4.023503  0  0  -0.095085  -0.172809  0  3.98819  0
C  C27  1  0.61839062  0.16211595  0.53336055  1  0  -0.15222  0  3.747397  0  0  -0.174402  0  3.999274  0  0  -0.1779  0  4.020369  0  0  -0.095365  -0.171955  0  3.98509  0
C  C28  1  0.45961863  0.09838556  0.43852966  1  0  -0.15631  0  3.743644  0  0  -0.180137  0  4.000555  0  0  -0.183091  0  4.018508  0  0  -0.095535  -0.178059  0  3.988592  0
C  C29  1  0.54207845  0.90089621  0.57091908  1  0  -0.158851  0  3.745723  0  0  -0.182763  0  4.00242  0  0  -0.185971  0  4.020677  0  0  -0.096859  -0.18052  0  3.99025  0
C  C30  1  0.90420382  0.59728871  0.83185734  1  0  0.679688  0  3.860862  0  0  0.632036  0  4.169741  0  0  0.666592  0  4.163508  0  0  0.212364  0.608202  0  4.173277  0
C  C31  1  0.11169397  0.40521587  0.17421055  1  0  0.696068  0  3.844534  0  0  0.650275  0  4.149822  0  0  0.684932  0  4.143873  0  0  0.220906  0.626299  0  4.153093  0
C  C32  1  0.98155891  0.74267104  0.78751157  1  0  -0.07915  0  3.619736  0  0  -0.133595  0  3.881933  0  0  -0.130956  0  3.880656  0  0  -0.061027  -0.135738  0  3.883355  0
C  C33  1  0.03019402  0.25726868  0.21518151  1  0  -0.081964  0  3.62823  0  0  -0.139002  0  3.890339  0  0  -0.136495  0  3.88927  0  0  -0.059682  -0.140726  0  3.891289  0
C  C34  1  0.94575133  0.60614757  0.59269260  1  0  0.242927  0  3.823901  0  0  0.230975  0  4.092546  0  0  0.24022  0  4.108762  0  0  0.071575  0.224456  0  4.081542  0
C  C35  1  0.05530632  0.38864960  0.41058087  1  0  0.245637  0  3.826165  0  0  0.234456  0  4.093194  0  0  0.243981  0  4.109105  0  0  0.072869  0.227817  0  4.082458  0
C  C36  1  0.82365559  0.56609957  0.48686194  1  0  -0.161374  0  3.75925  0  0  -0.182706  0  4.016199  0  0  -0.184882  0  4.033448  0  0  -0.101451  -0.181164  0  4.004946  0
C  C37  1  0.17652980  0.42805587  0.51652921  1  0  -0.161508  0  3.762795  0  0  -0.183801  0  4.019872  0  0  -0.186052  0  4.037219  0  0  -0.101899  -0.182199  0  4.008522  0
C  C38  1  0.12239457  0.53568240  0.60752104  1  0  -0.178437  0  3.775099  0  0  -0.196708  0  4.027541  0  0  -0.19996  0  4.046254  0  0  -0.106981  -0.194407  0  4.014876  0
C  C39  1  0.87781384  0.45845530  0.39580211  1  0  -0.176291  0  3.768433  0  0  -0.195728  0  4.019445  0  0  -0.198822  0  4.037751  0  0  -0.10242  -0.193529  0  4.00705  0
C  C40  1  0.43597534  0.05447066  0.03687396  1  0  0.540459  0  3.948614  0  0  0.500984  0  4.249344  0  0  0.531141  0  4.244829  0  0  0.218326  0.480233  0  4.251632  0
C  C41  1  0.57210253  0.94617754  0.96473431  1  0  0.551942  0  3.934421  0  0  0.511391  0  4.233899  0  0  0.541694  0  4.228653  0  0  0.221339  0.490557  0  4.236727  0
O  O42  1  0.88312665  0.73762947  0.14274207  1  0  -0.668857  0  2.004667  0  0  -0.627214  0  2.258261  0  0  -0.660699  0  2.25087  0  0  -0.377258  -0.603136  0  2.262479  0
O  O43  1  0.13047252  0.28187817  0.85658871  1  0  -0.693892  0  2.094465  0  0  -0.634347  0  2.337094  0  0  -0.667914  0  2.327984  0  0  -0.364013  -0.610305  0  2.342559  0
O  O44  1  0.61542065  0.84436752  0.22586823  1  0  -0.675295  0  2.003323  0  0  -0.63121  0  2.255544  0  0  -0.666159  0  2.249023  0  0  -0.389413  -0.60606  0  2.259139  0
O  O45  1  0.39274297  0.16383228  0.77937348  1  0  -0.658664  0  2.013563  0  0  -0.613716  0  2.262614  0  0  -0.647228  0  2.25634  0  0  -0.367846  -0.589722  0  2.266124  0
O  O46  1  0.18739602  0.87062432  0.31505731  1  0  -0.353294  0  2.380267  0  0  -0.282118  0  2.625252  0  0  -0.301691  0  2.628122  0  0  -0.221436  -0.267901  0  2.622722  0
O  O47  1  0.81586499  0.12849123  0.69383796  1  0  -0.345105  0  2.364681  0  0  -0.278948  0  2.611148  0  0  -0.297396  0  2.614122  0  0  -0.21532  -0.265434  0  2.608607  0
O  O48  1  0.01420169  0.59448863  0.92186172  1  0  -0.751575  0  2.045751  0  0  -0.699525  0  2.315621  0  0  -0.737804  0  2.308412  0  0  -0.407502  -0.67168  0  2.319326  0
O  O49  1  0.00745196  0.40775819  0.08197707  1  0  -0.766112  0  2.037981  0  0  -0.712899  0  2.306195  0  0  -0.752893  0  2.298991  0  0  -0.424734  -0.683691  0  2.309772  0
O  O50  1  0.73390895  0.48546431  0.78240215  1  0  -0.638497  0  1.939034  0  0  -0.599254  0  2.178554  0  0  -0.628178  0  2.170027  0  0  -0.357365  -0.578573  0  2.183687  0
O  O51  1  0.27422207  0.51925393  0.22760975  1  0  -0.618643  0  1.922244  0  0  -0.580237  0  2.155478  0  0  -0.609656  0  2.147643  0  0  -0.346383  -0.559231  0  2.160167  0
O  O52  1  0.88354724  0.71756649  0.67621036  1  0  -0.260416  0  2.353047  0  0  -0.194605  0  2.58955  0  0  -0.210377  0  2.590654  0  0  -0.180831  -0.183196  0  2.588501  0
O  O53  1  0.12010257  0.27863195  0.32724946  1  0  -0.262137  0  2.355962  0  0  -0.19459  0  2.590904  0  0  -0.210502  0  2.592055  0  0  -0.180713  -0.183414  0  2.589942  0
O  O54  1  0.28831483  0.98808263  0.09014132  1  0  -0.617383  0  2.018394  0  0  -0.577921  0  2.261135  0  0  -0.608404  0  2.252849  0  0  -0.359677  -0.555901  0  2.266079  0
O  O55  1  0.72243149  0.01372974  0.91318413  1  0  -0.620249  0  1.997889  0  0  -0.580954  0  2.239156  0  0  -0.611051  0  2.230646  0  0  -0.357288  -0.55922  0  2.24425  0
O  O56  1  0.48374540  0.20007541  0.03638684  1  0  -0.612112  0  2.011341  0  0  -0.572608  0  2.254226  0  0  -0.602368  0  2.246246  0  0  -0.361103  -0.551202  0  2.258969  0
O  O57  1  0.51972809  0.79976055  0.96352214  1  0  -0.641756  0  2.05644  0  0  -0.594643  0  2.299877  0  0  -0.623745  0  2.290365  0  0  -0.345066  -0.57385  0  2.305837  0
O  O58  1  0.47601098  0.49877406  0.97918294  1  0  -0.87886  0  1.847426  0  0  -0.825938  0  2.045108  0  0  -0.855139  0  2.013676  0  0  -0.59988  -0.804727  0  2.066884  0
