# generated using pymatgen
data_ZnH8C12N4Cl2O
_symmetry_space_group_name_H-M   'P 1'
_cell_length_a   5.27829534
_cell_length_b   12.37205066
_cell_length_c   20.48000000
_cell_angle_alpha   90.00000000
_cell_angle_beta   90.00000000
_cell_angle_gamma   94.72500317
_symmetry_Int_Tables_number   1
_chemical_formula_structural   ZnH8C12N4Cl2O
_chemical_formula_sum   'Zn4 H32 C48 N16 Cl8 O4'
_cell_volume   1332.86719910
_cell_formula_units_Z   4
loop_
 _symmetry_equiv_pos_site_id
 _symmetry_equiv_pos_as_xyz
  1  'x, y, z'
loop_
 _atom_site_type_symbol
 _atom_site_label
 _atom_site_symmetry_multiplicity
 _atom_site_fract_x
 _atom_site_fract_y
 _atom_site_fract_z
 _atom_site_occupancy
 _atom_site_hle17_bader_spin_density
 _atom_site_hle17_ddec_charge
 _atom_site_hle17_ddec_spin_density
 _atom_site_hle17_ddec_sum_bond_order
 _atom_site_hle17_magmom
 _atom_site_hse06_10hf_bader_spin_density
 _atom_site_hse06_10hf_ddec_charge
 _atom_site_hse06_10hf_ddec_spin_density
 _atom_site_hse06_10hf_ddec_sum_bond_order
 _atom_site_hse06_10hf_magmom
 _atom_site_hse06_bader_spin_density
 _atom_site_hse06_ddec_charge
 _atom_site_hse06_ddec_spin_density
 _atom_site_hse06_ddec_sum_bond_order
 _atom_site_hse06_magmom
 _atom_site_pbe_bader_charge
 _atom_site_pbe_bader_spin_density
 _atom_site_pbe_cm5_charge
 _atom_site_pbe_ddec_charge
 _atom_site_pbe_ddec_spin_density
 _atom_site_pbe_ddec_sum_bond_order
 _atom_site_pbe_magmom
Zn  Zn0  1  0.89739141  0.40687414  0.66516162  1  0  0.82955  0  2.135679  0  0  0.651566  0  2.629061  0  0  0.69083  0  2.584918  0  1.126855  0  0.552795  0.624583  0  2.659155  0
Zn  Zn1  1  0.10260673  0.09312730  0.16516260  1  0  0.829508  0  2.135691  0  0  0.65149  0  2.629087  0  0  0.690753  0  2.584952  0  1.126839  0  0.552784  0.624511  0  2.65918  0
Zn  Zn2  1  0.10260858  0.59312305  0.33483643  1  0  0.82952  0  2.135722  0  0  0.651485  0  2.629119  0  0  0.690753  0  2.584981  0  1.126828  0  0.552788  0.624499  0  2.65921  0
Zn  Zn3  1  0.89739040  0.90687476  0.83483740  1  0  0.829565  0  2.135696  0  0  0.65157  0  2.629035  0  0  0.690835  0  2.584892  0  1.126835  0  0.552791  0.624582  0  2.659125  0
H  H4  1  0.81846897  0.19318565  0.61243604  1  0  0.082292  0  0.989534  0  0  0.082544  0  1.066854  0  0  0.085945  0  1.063737  0  0.15248  0  0.102427  0.08006  0  1.06913  0
H  H5  1  0.18153470  0.30681497  0.11243604  1  0  0.082291  0  0.989478  0  0  0.08254  0  1.0668  0  0  0.085939  0  1.063691  0  0.152484  0  0.102444  0.080056  0  1.069076  0
H  H6  1  0.18152723  0.80681154  0.38756396  1  0  0.082302  0  0.989385  0  0  0.082498  0  1.066774  0  0  0.085891  0  1.063682  0  0.152499  0  0.102412  0.080014  0  1.06905  0
H  H7  1  0.81846986  0.69318627  0.88756641  1  0  0.082363  0  0.989413  0  0  0.082608  0  1.066753  0  0  0.086001  0  1.063665  0  0.152175  0  0.102457  0.080122  0  1.06903  0
H  H8  1  0.53184877  0.08252633  0.53815381  1  0  0.113703  0  0.99615  0  0  0.1107  0  1.077729  0  0  0.115511  0  1.074186  0  0.154573  0  0.107601  0.107251  0  1.080383  0
H  H9  1  0.46815206  0.41746943  0.03815137  1  0  0.113799  0  0.996171  0  0  0.110777  0  1.077727  0  0  0.115589  0  1.074182  0  0.154625  0  0.107609  0.107328  0  1.080382  0
H  H10  1  0.46815344  0.91746275  0.46184717  1  0  0.113841  0  0.996156  0  0  0.110815  0  1.077734  0  0  0.115626  0  1.074189  0  0.154698  0  0.107652  0.107365  0  1.08039  0
H  H11  1  0.53183844  0.58253749  0.96185107  1  0  0.113825  0  0.996075  0  0  0.110791  0  1.077666  0  0  0.115604  0  1.074118  0  0.154783  0  0.107674  0.107338  0  1.080325  0
H  H12  1  0.16223373  0.37374844  0.49243213  1  0  0.121522  0  0.949082  0  0  0.127936  0  1.01382  0  0  0.131637  0  1.012244  0  0.128091  0  0.104212  0.12526  0  1.01508  0
H  H13  1  0.83774911  0.12624245  0.99242920  1  0  0.121567  0  0.948975  0  0  0.127954  0  1.013721  0  0  0.131652  0  1.012153  0  0.128085  0  0.104213  0.125279  0  1.01498  0
H  H14  1  0.83776311  0.62624226  0.50756641  1  0  0.121547  0  0.949031  0  0  0.127952  0  1.013765  0  0  0.131651  0  1.012194  0  0.12837  0  0.104183  0.125277  0  1.015025  0
H  H15  1  0.16226080  0.87376690  0.00757373  1  0  0.121666  0  0.949073  0  0  0.128019  0  1.013836  0  0  0.131715  0  1.012272  0  0.12859  0  0.104242  0.125344  0  1.015095  0
H  H16  1  0.46153527  0.47196170  0.57102832  1  0  0.078764  0  0.950837  0  0  0.085079  0  1.018377  0  0  0.087271  0  1.016951  0  0.093697  0  0.109302  0.083355  0  1.019563  0
H  H17  1  0.53845908  0.02803973  0.07103027  1  0  0.078774  0  0.950915  0  0  0.085079  0  1.018479  0  0  0.08724  0  1.017084  0  0.093899  0  0.109287  0.083359  0  1.019663  0
H  H18  1  0.53846220  0.52803224  0.42896777  1  0  0.078766  0  0.950822  0  0  0.085074  0  1.018367  0  0  0.087276  0  1.016932  0  0.093825  0  0.109294  0.083351  0  1.019552  0
H  H19  1  0.46155841  0.97196962  0.92897070  1  0  0.078738  0  0.950851  0  0  0.085048  0  1.018405  0  0  0.087231  0  1.016988  0  0.093814  0  0.109253  0.083327  0  1.019592  0
H  H20  1  0.43298517  0.93261441  0.22270166  1  0  0.083121  0  0.937356  0  0  0.091596  0  1.000234  0  0  0.093813  0  0.998515  0  0.111513  0  0.115194  0.089963  0  1.001524  0
H  H21  1  0.56701302  0.56738908  0.72270117  1  0  0.083119  0  0.93728  0  0  0.091574  0  1.00019  0  0  0.09379  0  0.998472  0  0.111622  0  0.115185  0.089946  0  1.001473  0
H  H22  1  0.56700297  0.06739008  0.77729492  1  0  0.08314  0  0.937276  0  0  0.091616  0  1.000165  0  0  0.093832  0  0.998446  0  0.111521  0  0.115169  0.089981  0  1.001457  0
H  H23  1  0.43298396  0.43261216  0.27729346  1  0  0.083096  0  0.937381  0  0  0.091596  0  1.000237  0  0  0.093811  0  0.998519  0  0.111804  0  0.115178  0.089959  0  1.001531  0
H  H24  1  0.76489070  0.93087313  0.30963037  1  0  0.125023  0  0.965267  0  0  0.130901  0  1.031098  0  0  0.134719  0  1.029388  0  0.186928  0  0.104585  0.128153  0  1.032494  0
H  H25  1  0.23510087  0.56912549  0.80963135  1  0  0.125068  0  0.965146  0  0  0.130923  0  1.03104  0  0  0.13474  0  1.02933  0  0.186852  0  0.104599  0.128176  0  1.032436  0
H  H26  1  0.23509777  0.06912325  0.69036572  1  0  0.125053  0  0.965272  0  0  0.130888  0  1.031159  0  0  0.134696  0  1.029448  0  0.186857  0  0.1046  0.128141  0  1.032554  0
H  H27  1  0.76489659  0.43087818  0.19036572  1  0  0.125036  0  0.965299  0  0  0.130867  0  1.031172  0  0  0.134672  0  1.029461  0  0.186911  0  0.104598  0.12812  0  1.032568  0
H  H28  1  0.56461392  0.25035027  0.36723584  1  0  0.121005  0  0.938094  0  0  0.129193  0  1.000369  0  0  0.132415  0  0.999221  0  0.127848  0  0.107132  0.126827  0  1.001422  0
H  H29  1  0.43538913  0.24964711  0.86723389  1  0  0.121025  0  0.938059  0  0  0.129213  0  1.00034  0  0  0.132435  0  0.999192  0  0.127817  0  0.107145  0.126846  0  1.001389  0
H  H30  1  0.43539191  0.74964773  0.63276465  1  0  0.120991  0  0.938049  0  0  0.129191  0  1.00032  0  0  0.132413  0  0.999172  0  0.127823  0  0.107134  0.12682  0  1.001378  0
H  H31  1  0.56461575  0.75035576  0.13276709  1  0  0.120963  0  0.938066  0  0  0.129161  0  1.000348  0  0  0.132381  0  0.999205  0  0.127775  0  0.107098  0.126788  0  1.001404  0
H  H32  1  0.23012742  0.23494638  0.27967920  1  0  0.08174  0  0.957927  0  0  0.086196  0  1.029368  0  0  0.0891  0  1.026616  0  0.151587  0  0.106975  0.084064  0  1.031386  0
H  H33  1  0.76986647  0.26505262  0.77967529  1  0  0.081674  0  0.958006  0  0  0.086142  0  1.029455  0  0  0.089042  0  1.02671  0  0.151577  0  0.106957  0.084011  0  1.031474  0
H  H34  1  0.76987146  0.76505486  0.72032324  1  0  0.081764  0  0.957932  0  0  0.086216  0  1.02939  0  0  0.089122  0  1.026632  0  0.151594  0  0.106982  0.084084  0  1.031409  0
H  H35  1  0.23012862  0.73494863  0.22032324  1  0  0.08171  0  0.957931  0  0  0.08617  0  1.029388  0  0  0.089074  0  1.026634  0  0.151574  0  0.106953  0.084038  0  1.031407  0
C  C36  1  0.66970573  0.22967145  0.58518018  1  0  0.130793  0  3.679145  0  0  0.101836  0  3.925761  0  0  0.108006  0  3.942904  0  0.450607  0  0.042092  0.097852  0  3.914119  0
C  C37  1  0.33029858  0.27032269  0.08517969  1  0  0.130882  0  3.67925  0  0  0.101871  0  3.925819  0  0  0.108039  0  3.942966  0  0.450738  0  0.042037  0.097887  0  3.914175  0
C  C38  1  0.33029174  0.77032250  0.41482178  1  0  0.130911  0  3.678993  0  0  0.101944  0  3.925595  0  0  0.108115  0  3.942727  0  0.450326  0  0.042103  0.097959  0  3.913953  0
C  C39  1  0.66970203  0.72967774  0.91482666  1  0  0.130793  0  3.679571  0  0  0.101774  0  3.926169  0  0  0.107941  0  3.943303  0  0.45104  0  0.042024  0.097794  0  3.914521  0
C  C40  1  0.50852794  0.16853684  0.54390430  1  0  -0.110981  0  3.669313  0  0  -0.135615  0  3.924489  0  0  -0.14129  0  3.9433  0  0.013899  0  -0.076508  -0.131951  0  3.911951  0
C  C41  1  0.49147163  0.33146216  0.04390186  1  0  -0.111403  0  3.669183  0  0  -0.135932  0  3.924268  0  0  -0.141608  0  3.943073  0  0.01382  0  -0.076612  -0.132266  0  3.911733  0
C  C42  1  0.49146984  0.83145873  0.45609863  1  0  -0.11133  0  3.669265  0  0  -0.135922  0  3.924397  0  0  -0.141595  0  3.943196  0  0.013792  0  -0.07663  -0.132256  0  3.91186  0
C  C43  1  0.50853465  0.66854800  0.95610205  1  0  -0.111224  0  3.669688  0  0  -0.135765  0  3.924791  0  0  -0.141438  0  3.943591  0  0.013574  0  -0.076586  -0.132099  0  3.912255  0
C  C44  1  0.32152106  0.21900397  0.50926367  1  0  0.039416  0  3.779651  0  0  0.049621  0  4.020046  0  0  0.051582  0  4.039842  0  -0.019408  0  0.013961  0.048414  0  4.006617  0
C  C45  1  0.67847473  0.28098529  0.00926221  1  0  0.039751  0  3.779491  0  0  0.049897  0  4.019865  0  0  0.051861  0  4.039656  0  -0.01926  0  0.014172  0.048683  0  4.006439  0
C  C46  1  0.67847451  0.78098997  0.49073877  1  0  0.039571  0  3.779742  0  0  0.049757  0  4.02009  0  0  0.051719  0  4.039881  0  -0.019157  0  0.014081  0.048547  0  4.006657  0
C  C47  1  0.32154340  0.71901757  0.99074316  1  0  0.039632  0  3.779741  0  0  0.049786  0  4.020166  0  0  0.051754  0  4.039945  0  -0.018968  0  0.014067  0.048576  0  4.006742  0
C  C48  1  0.30327426  0.33042080  0.51835400  1  0  -0.12692  0  3.663123  0  0  -0.149524  0  3.914626  0  0  -0.155809  0  3.934489  0  0.032334  0  -0.075109  -0.145467  0  3.901337  0
C  C49  1  0.69671347  0.16957577  0.01835498  1  0  -0.127145  0  3.663465  0  0  -0.149705  0  3.914973  0  0  -0.155989  0  3.934828  0  0.032301  0  -0.075189  -0.145647  0  3.901683  0
C  C50  1  0.69671453  0.66956747  0.48164355  1  0  -0.127048  0  3.663099  0  0  -0.14964  0  3.914615  0  0  -0.155926  0  3.934482  0  0.032023  0  -0.075132  -0.145584  0  3.901326  0
C  C51  1  0.30330307  0.83043845  0.98164990  1  0  -0.127214  0  3.663161  0  0  -0.149754  0  3.914711  0  0  -0.156037  0  3.934563  0  0.031518  0  -0.075195  -0.145698  0  3.901424  0
C  C52  1  0.47276111  0.38576384  0.56148633  1  0  0.132891  0  3.692165  0  0  0.102633  0  3.943203  0  0  0.109072  0  3.961447  0  0.494274  0  0.050225  0.098502  0  3.930855  0
C  C53  1  0.52723909  0.11422867  0.06148730  1  0  0.132995  0  3.692001  0  0  0.102714  0  3.942973  0  0  0.109178  0  3.96122  0  0.493911  0  0.050304  0.098576  0  3.930623  0
C  C54  1  0.52723288  0.61423172  0.43851270  1  0  0.132868  0  3.692311  0  0  0.102583  0  3.943309  0  0  0.109012  0  3.961554  0  0.494035  0  0.050211  0.098452  0  3.930961  0
C  C55  1  0.47278361  0.88577825  0.93851660  1  0  0.132957  0  3.691917  0  0  0.10268  0  3.942876  0  0  0.109128  0  3.961117  0  0.494161  0  0.050292  0.098544  0  3.930523  0
C  C56  1  0.16721305  0.14942168  0.46498291  1  0  0.343342  0  3.688129  0  0  0.31091  0  3.968136  0  0  0.326686  0  3.97574  0  1.041827  0  0.228841  0.300343  0  3.962796  0
C  C57  1  0.83278574  0.35057327  0.96498096  1  0  0.343406  0  3.687967  0  0  0.31098  0  3.967988  0  0  0.326757  0  3.97559  0  1.041824  0  0.228835  0.300424  0  3.962638  0
C  C58  1  0.83277827  0.85056983  0.53501709  1  0  0.343394  0  3.68817  0  0  0.311038  0  3.968108  0  0  0.326815  0  3.97571  0  1.04295  0  0.228887  0.300478  0  3.962761  0
C  C59  1  0.16722781  0.64943528  0.03502100  1  0  0.343441  0  3.687824  0  0  0.31092  0  3.967916  0  0  0.326723  0  3.975512  0  1.042935  0  0.228834  0.300351  0  3.962584  0
C  C60  1  0.89281992  0.09160499  0.39318652  1  0  0.34126  0  3.680669  0  0  0.309958  0  3.961026  0  0  0.325185  0  3.969206  0  1.041429  0  0.228904  0.299655  0  3.955483  0
C  C61  1  0.10717523  0.40839076  0.89318555  1  0  0.341386  0  3.680646  0  0  0.310036  0  3.961075  0  0  0.32528  0  3.969226  0  1.041463  0  0.228978  0.299732  0  3.955536  0
C  C62  1  0.10718671  0.90838733  0.60681348  1  0  0.34122  0  3.680673  0  0  0.310013  0  3.960965  0  0  0.32524  0  3.969145  0  1.041299  0  0.228909  0.299735  0  3.955386  0
C  C63  1  0.89280990  0.59161778  0.10681543  1  0  0.341403  0  3.680422  0  0  0.310057  0  3.960767  0  0  0.325311  0  3.968943  0  1.041285  0  0.228966  0.299775  0  3.955196  0
C  C64  1  0.46561080  0.00013869  0.25668555  1  0  0.138844  0  3.686611  0  0  0.107716  0  3.935947  0  0  0.114412  0  3.953583  0  0.518415  0  0.0538  0.103326  0  3.924079  0
C  C65  1  0.53438118  0.49986031  0.75668652  1  0  0.13887  0  3.686721  0  0  0.107762  0  3.936048  0  0  0.114459  0  3.953683  0  0.518324  0  0.053838  0.103366  0  3.924177  0
C  C66  1  0.53438633  0.99986337  0.74331201  1  0  0.138854  0  3.686692  0  0  0.107722  0  3.936031  0  0  0.114419  0  3.953664  0  0.5186  0  0.053842  0.103323  0  3.924163  0
C  C67  1  0.46560539  0.50013606  0.24331348  1  0  0.138984  0  3.686534  0  0  0.107825  0  3.935863  0  0  0.114523  0  3.953492  0  0.518067  0  0.053887  0.103431  0  3.923998  0
C  C68  1  0.65002519  0.99974171  0.30483105  1  0  -0.112431  0  3.647678  0  0  -0.131949  0  3.891523  0  0  -0.138451  0  3.911931  0  -0.008237  0  -0.067227  -0.12775  0  3.877976  0
C  C69  1  0.34997522  0.50025366  0.80483057  1  0  -0.112439  0  3.647763  0  0  -0.131944  0  3.891612  0  0  -0.138444  0  3.912019  0  -0.008116  0  -0.067212  -0.127744  0  3.878068  0
C  C70  1  0.34996801  0.00025953  0.69516699  1  0  -0.112334  0  3.647366  0  0  -0.131808  0  3.891289  0  0  -0.138292  0  3.911679  0  -0.008331  0  -0.067222  -0.127609  0  3.877746  0
C  C71  1  0.65002855  0.49974353  0.19516699  1  0  -0.112384  0  3.647521  0  0  -0.131831  0  3.891382  0  0  -0.13831  0  3.911772  0  -0.008125  0  -0.067192  -0.127634  0  3.877839  0
C  C72  1  0.68959803  0.09082478  0.34560986  1  0  0.042679  0  3.781088  0  0  0.052716  0  4.021058  0  0  0.054786  0  4.040717  0  -0.050316  0  0.015789  0.051457  0  4.007769  0
C  C73  1  0.31039553  0.40917259  0.84560840  1  0  0.042665  0  3.781245  0  0  0.052696  0  4.02127  0  0  0.054763  0  4.040921  0  -0.049861  0  0.015769  0.051437  0  4.00798  0
C  C74  1  0.31040180  0.90917159  0.65439014  1  0  0.042696  0  3.781124  0  0  0.052671  0  4.021169  0  0  0.054739  0  4.040828  0  -0.050148  0  0.015842  0.051407  0  4.007869  0
C  C75  1  0.68959924  0.59082703  0.15439062  1  0  0.042567  0  3.781242  0  0  0.052579  0  4.021258  0  0  0.05465  0  4.040905  0  -0.050036  0  0.015734  0.051316  0  4.007964  0
C  C76  1  0.53717544  0.17739734  0.33744482  1  0  -0.116878  0  3.669176  0  0  -0.144547  0  3.928061  0  0  -0.149733  0  3.946898  0  0.063709  0  -0.077747  -0.141241  0  3.915539  0
C  C77  1  0.46282192  0.32260004  0.83744287  1  0  -0.116903  0  3.669276  0  0  -0.144571  0  3.928168  0  0  -0.149755  0  3.947003  0  0.063346  0  -0.077805  -0.141254  0  3.915642  0
C  C78  1  0.46282865  0.82260147  0.66255615  1  0  -0.116805  0  3.66927  0  0  -0.144477  0  3.928195  0  0  -0.149662  0  3.947033  0  0.063683  0  -0.077763  -0.141174  0  3.915694  0
C  C79  1  0.53717317  0.67740120  0.16255566  1  0  -0.116744  0  3.669099  0  0  -0.144436  0  3.928018  0  0  -0.149623  0  3.946859  0  0.063262  0  -0.07772  -0.141115  0  3.915495  0
C  C80  1  0.35456764  0.17017755  0.28844873  1  0  0.135421  0  3.678511  0  0  0.102526  0  3.933297  0  0  0.109352  0  3.950345  0  0.410213  0  0.045523  0.098095  0  3.921764  0
C  C81  1  0.64543177  0.32982064  0.78844531  1  0  0.135467  0  3.678483  0  0  0.102549  0  3.933287  0  0  0.109379  0  3.950328  0  0.410258  0  0.045587  0.098114  0  3.921753  0
C  C82  1  0.64542744  0.82982369  0.71155176  1  0  0.135363  0  3.678669  0  0  0.102467  0  3.933452  0  0  0.109295  0  3.950501  0  0.410219  0  0.045487  0.098026  0  3.921916  0
C  C83  1  0.35456853  0.67017817  0.21155273  1  0  0.135378  0  3.678641  0  0  0.102474  0  3.933462  0  0  0.109303  0  3.950507  0  0.410395  0  0.045527  0.098038  0  3.921925  0
N  N84  1  0.65344765  0.33686605  0.59403369  1  0  -0.307923  0  3.310818  0  0  -0.222282  0  3.574622  0  0  -0.240472  0  3.591382  0  -1.240874  0  -0.326448  -0.21001  0  3.563086  0
N  N85  1  0.34655413  0.16313457  0.09403516  1  0  -0.307905  0  3.310935  0  0  -0.222174  0  3.574636  0  0  -0.240363  0  3.59139  0  -1.240964  0  -0.32643  -0.209903  0  3.5631  0
N  N86  1  0.34655187  0.66312870  0.40596826  1  0  -0.3079  0  3.311065  0  0  -0.222141  0  3.574709  0  0  -0.240331  0  3.591477  0  -1.240784  0  -0.326415  -0.209869  0  3.563173  0
N  N87  1  0.65345864  0.83686992  0.90597021  1  0  -0.307951  0  3.310891  0  0  -0.222208  0  3.574552  0  0  -0.240396  0  3.59131  0  -1.241091  0  -0.326439  -0.209936  0  3.563013  0
N  N88  1  0.20855672  0.04839820  0.45161572  1  0  -0.253699  0  2.976763  0  0  -0.230837  0  3.262696  0  0  -0.240409  0  3.277017  0  -0.693425  0  -0.205056  -0.22427  0  3.252999  0
N  N89  1  0.79144396  0.45159675  0.95161475  1  0  -0.253795  0  2.976838  0  0  -0.230941  0  3.262784  0  0  -0.240516  0  3.277106  0  -0.693247  0  -0.205073  -0.224376  0  3.253087  0
N  N90  1  0.79143727  0.95159737  0.54838330  1  0  -0.253724  0  2.976799  0  0  -0.230885  0  3.262738  0  0  -0.240457  0  3.277062  0  -0.694503  0  -0.20508  -0.224322  0  3.253045  0
N  N91  1  0.20856138  0.54840855  0.04838477  1  0  -0.253703  0  2.976901  0  0  -0.230858  0  3.262913  0  0  -0.240425  0  3.277229  0  -0.694024  0  -0.205027  -0.224292  0  3.253221  0
N  N92  1  0.03344923  0.01125953  0.40572217  1  0  -0.240135  0  2.913373  0  0  -0.225323  0  3.199824  0  0  -0.233732  0  3.213927  0  -0.676688  0  -0.205284  -0.21958  0  3.190321  0
N  N93  1  0.96655382  0.48873785  0.90572070  1  0  -0.240174  0  2.913411  0  0  -0.225334  0  3.199869  0  0  -0.233745  0  3.213963  0  -0.676665  0  -0.205318  -0.21959  0  3.190364  0
N  N94  1  0.96655330  0.98873117  0.59427637  1  0  -0.240146  0  2.913263  0  0  -0.225365  0  3.199747  0  0  -0.233771  0  3.213836  0  -0.676451  0  -0.20529  -0.219627  0  3.190231  0
N  N95  1  0.03344252  0.51126988  0.09427637  1  0  -0.240113  0  2.913193  0  0  -0.225316  0  3.199679  0  0  -0.233725  0  3.213776  0  -0.676712  0  -0.205242  -0.219578  0  3.190167  0
N  N96  1  0.32152823  0.08389616  0.24823193  1  0  -0.309211  0  3.324931  0  0  -0.224286  0  3.59455  0  0  -0.242792  0  3.611541  0  -1.250151  0  -0.328909  -0.21183  0  3.582979  0
N  N97  1  0.67846786  0.41610447  0.74822998  1  0  -0.309256  0  3.325039  0  0  -0.224309  0  3.59464  0  0  -0.242817  0  3.61163  0  -1.250295  0  -0.328958  -0.211847  0  3.583067  0
N  N98  1  0.67846339  0.91610671  0.75176660  1  0  -0.309371  0  3.325412  0  0  -0.224422  0  3.595016  0  0  -0.242931  0  3.612006  0  -1.250228  0  -0.328924  -0.211944  0  3.583425  0
N  N99  1  0.32153259  0.58389516  0.25176562  1  0  -0.309331  0  3.325388  0  0  -0.224391  0  3.595009  0  0  -0.2429  0  3.612002  0  -1.250082  0  -0.328958  -0.211921  0  3.583422  0
Cl  Cl100  1  0.14186197  0.27339973  0.69094189  1  0  -0.553272  0  1.019331  0  0  -0.492225  0  1.303795  0  0  -0.508713  0  1.286407  0  -0.664059  0  -0.303426  -0.480353  0  1.315668  0
Cl  Cl101  1  0.85813617  0.22660170  0.19094141  1  0  -0.553268  0  1.019312  0  0  -0.492224  0  1.303798  0  0  -0.508695  0  1.286379  0  -0.664057  0  -0.303442  -0.480353  0  1.315674  0
Cl  Cl102  1  0.85813454  0.72659908  0.30905859  1  0  -0.553274  0  1.019349  0  0  -0.492199  0  1.303805  0  0  -0.508683  0  1.28641  0  -0.664053  0  -0.303425  -0.480328  0  1.315682  0
Cl  Cl103  1  0.14186081  0.77339954  0.80905908  1  0  -0.55329  0  1.019317  0  0  -0.492247  0  1.303805  0  0  -0.508731  0  1.286408  0  -0.66405  0  -0.303436  -0.480375  0  1.315683  0
Cl  Cl104  1  0.03427983  0.57253750  0.63166602  1  0  -0.571344  0  0.888589  0  0  -0.512925  0  1.152132  0  0  -0.526994  0  1.129177  0  -0.667047  0  -0.336307  -0.502665  0  1.167841  0
Cl  Cl105  1  0.96571615  0.92746437  0.13166699  1  0  -0.571315  0  0.888589  0  0  -0.512902  0  1.152162  0  0  -0.526964  0  1.1292  0  -0.667046  0  -0.336294  -0.502644  0  1.167868  0
Cl  Cl106  1  0.96572932  0.42745807  0.36833057  1  0  -0.571299  0  0.888587  0  0  -0.512897  0  1.152175  0  0  -0.52697  0  1.129226  0  -0.66703  0  -0.336295  -0.502637  0  1.167883  0
Cl  Cl107  1  0.03427373  0.07253931  0.86833105  1  0  -0.57132  0  0.888592  0  0  -0.512911  0  1.152165  0  0  -0.52698  0  1.12921  0  -0.667045  0  -0.336301  -0.502652  0  1.167872  0
O  O108  1  0.96684180  0.18206400  0.42973828  1  0  -0.238576  0  2.293002  0  0  -0.164089  0  2.505371  0  0  -0.181905  0  2.509052  0  -1.030108  0  -0.087334  -0.152019  0  2.50266  0
O  O109  1  0.03315335  0.31793175  0.92973730  1  0  -0.238678  0  2.293031  0  0  -0.164189  0  2.505438  0  0  -0.182011  0  2.509112  0  -1.030248  0  -0.08741  -0.152125  0  2.502726  0
O  O110  1  0.03316024  0.81793400  0.57026367  1  0  -0.238563  0  2.292915  0  0  -0.164194  0  2.505343  0  0  -0.182014  0  2.509029  0  -1.030255  0  -0.087395  -0.152134  0  2.502622  0
O  O111  1  0.96685199  0.68207355  0.07026807  1  0  -0.238807  0  2.29283  0  0  -0.164186  0  2.505141  0  0  -0.182085  0  2.50889  0  -1.030359  0  -0.08749  -0.152124  0  2.502427  0
