# generated using pymatgen
data_CdH16C14(N5O3)2
_symmetry_space_group_name_H-M   'P 1'
_cell_length_a   8.54287499
_cell_length_b   8.54287939
_cell_length_c   8.70976436
_cell_angle_alpha   62.54926369
_cell_angle_beta   62.54944368
_cell_angle_gamma   67.30020564
_symmetry_Int_Tables_number   1
_chemical_formula_structural   CdH16C14(N5O3)2
_chemical_formula_sum   'Cd1 H16 C14 N10 O6'
_cell_volume   488.28124588
_cell_formula_units_Z   1
loop_
 _symmetry_equiv_pos_site_id
 _symmetry_equiv_pos_as_xyz
  1  'x, y, z'
loop_
 _atom_site_type_symbol
 _atom_site_label
 _atom_site_symmetry_multiplicity
 _atom_site_fract_x
 _atom_site_fract_y
 _atom_site_fract_z
 _atom_site_occupancy
 _atom_site_pbe_bader_charge
 _atom_site_pbe_bader_spin_density
 _atom_site_pbe_cm5_charge
 _atom_site_pbe_ddec_charge
 _atom_site_pbe_ddec_spin_density
 _atom_site_pbe_ddec_sum_bond_order
 _atom_site_pbe_magmom
Cd  Cd0  1  0.49999931  0.50000100  0.00000009  1  1.260504  0  0.78497  0.800373  0  2.254233  0
H  H1  1  0.74454527  0.02065200  0.58333108  1  0.145049  0  0.123368  0.125048  0  1.033688  0
H  H2  1  0.97934503  0.25544947  0.41667042  1  0.145005  0  0.123357  0.125073  0  1.033662  0
H  H3  1  0.25545612  0.97934718  0.41666638  1  0.145029  0  0.12336  0.125042  0  1.033673  0
H  H4  1  0.02065365  0.74454635  0.58333208  1  0.145032  0  0.123363  0.125085  0  1.033643  0
H  H5  1  0.73400982  0.73400947  0.35794286  1  0.174123  0  0.128928  0.097832  0  1.027199  0
H  H6  1  0.26598750  0.26598930  0.64205779  1  0.167739  0  0.128937  0.097855  0  1.027184  0
H  H7  1  0.72191847  0.72191808  0.57503740  1  0.149977  0  0.128823  0.10269  0  1.006942  0
H  H8  1  0.27808021  0.27808302  0.42496272  1  0.149843  0  0.128828  0.102708  0  1.006928  0
H  H9  1  0.63418705  0.38192342  0.37217719  1  0.119669  0  0.113871  0.109042  0  1.049096  0
H  H10  1  0.61807484  0.36581280  0.62782106  1  0.11963  0  0.113901  0.109076  0  1.049081  0
H  H11  1  0.36581298  0.61807606  0.62782190  1  0.121431  0  0.113896  0.109068  0  1.049076  0
H  H12  1  0.38192249  0.63418596  0.37217958  1  0.12136  0  0.113886  0.109055  0  1.049115  0
H  H13  1  0.66983124  0.03924003  0.12625994  1  0.146868  0  0.136312  0.108804  0  1.011517  0
H  H14  1  0.96076123  0.33016049  0.87373957  1  0.146837  0  0.136345  0.108835  0  1.011508  0
H  H15  1  0.33016203  0.96075963  0.87374214  1  0.146806  0  0.13635  0.108845  0  1.011476  0
H  H16  1  0.03923745  0.66984061  0.12625825  1  0.146789  0  0.136368  0.108856  0  1.01148  0
C  C17  1  0.71181940  0.08077205  0.45860972  1  0.299558  0  0.001356  -0.09994  0  3.903955  0
C  C18  1  0.91922478  0.28817556  0.54139033  1  0.299328  0  0.001386  -0.099986  0  3.903798  0
C  C19  1  0.28818064  0.91922612  0.54138882  1  0.299235  0  0.001367  -0.099953  0  3.903879  0
C  C20  1  0.08077255  0.71182188  0.45860976  1  0.299379  0  0.001378  -0.1  0  3.903819  0
C  C21  1  0.78049634  0.78049836  0.42490020  1  0.581144  0  0.058246  0.002804  0  3.850085  0
C  C22  1  0.21950098  0.21950172  0.57510099  1  0.587595  0  0.058235  0.002767  0  3.85009  0
C  C23  1  0.65440445  0.25629948  0.35656687  1  0.404848  0  -0.006575  -0.037148  0  4.007828  0
C  C24  1  0.74369878  0.34559347  0.64343159  1  0.40472  0  -0.006622  -0.037186  0  4.007818  0
C  C25  1  0.34559558  0.74370000  0.64343222  1  0.405141  0  -0.006618  -0.037158  0  4.007871  0
C  C26  1  0.25629855  0.65440661  0.35656731  1  0.404847  0  -0.006597  -0.037123  0  4.007863  0
C  C27  1  0.67136729  0.08786482  0.22070663  1  0.993341  0  0.145801  0.104668  0  3.900272  0
C  C28  1  0.91213469  0.32862733  0.77929451  1  0.993008  0  0.145834  0.104733  0  3.900166  0
C  C29  1  0.32862869  0.91213556  0.77929619  1  0.992978  0  0.145799  0.104726  0  3.90008  0
C  C30  1  0.08786264  0.67137275  0.22070324  1  0.993453  0  0.145748  0.104631  0  3.900175  0
N  N31  1  0.72188672  0.97598267  0.37026650  1  -1.241669  0  -0.242623  0.02366  0  3.769321  0
N  N32  1  0.02401620  0.27810720  0.62973365  1  -1.241091  0  -0.242683  0.02364  0  3.769158  0
N  N33  1  0.27811061  0.02401741  0.62973354  1  -1.241202  0  -0.242668  0.023608  0  3.769239  0
N  N34  1  0.97598113  0.72189156  0.37026584  1  -1.241238  0  -0.242678  0.023655  0  3.769231  0
N  N35  1  0.62846626  0.25867912  0.21014787  1  -1.201023  0  -0.358503  -0.294477  0  3.521081  0
N  N36  1  0.74132100  0.37152987  0.78985046  1  -1.200989  0  -0.358528  -0.294545  0  3.521042  0
N  N37  1  0.37153107  0.74132096  0.78985218  1  -1.201004  0  -0.358501  -0.294544  0  3.521055  0
N  N38  1  0.25867632  0.62847153  0.21014784  1  -1.201449  0  -0.358486  -0.294529  0  3.521068  0
N  N39  1  0.74224779  0.74224865  0.99003424  1  0.813659  0  0.098452  0.714366  0  4.444033  0
N  N40  1  0.25775089  0.25775245  0.00996588  1  0.81367  0  0.098468  0.714351  0  4.444006  0
O  O41  1  0.70363789  0.70363652  0.88672750  1  -0.597308  0  -0.222789  -0.488356  0  2.033552  0
O  O42  1  0.29636350  0.29636267  0.11327227  1  -0.597305  0  -0.222808  -0.488357  0  2.033518  0
O  O43  1  0.67424768  0.67424437  0.16374519  1  -0.560123  0  -0.204685  -0.463181  0  1.948536  0
O  O44  1  0.32575370  0.32575614  0.83625398  1  -0.560138  0  -0.204678  -0.463153  0  1.948468  0
O  O45  1  0.84738954  0.84739021  0.91568592  1  -0.526529  0  -0.20544  -0.445625  0  1.885058  0
O  O46  1  0.15260914  0.15261089  0.08431306  1  -0.526525  0  -0.205451  -0.445636  0  1.88508  0
