# generated using pymatgen
data_CoH46C66(N3O2)2
_symmetry_space_group_name_H-M   'P 1'
_cell_length_a   11.58194303
_cell_length_b   11.50150808
_cell_length_c   12.72570000
_cell_angle_alpha   67.17261956
_cell_angle_beta   68.60941027
_cell_angle_gamma   73.33021725
_symmetry_Int_Tables_number   1
_chemical_formula_structural   CoH46C66(N3O2)2
_chemical_formula_sum   'Co1 H46 C66 N6 O4'
_cell_volume   1433.77125899
_cell_formula_units_Z   1
loop_
 _symmetry_equiv_pos_site_id
 _symmetry_equiv_pos_as_xyz
  1  'x, y, z'
loop_
 _atom_site_type_symbol
 _atom_site_label
 _atom_site_symmetry_multiplicity
 _atom_site_fract_x
 _atom_site_fract_y
 _atom_site_fract_z
 _atom_site_occupancy
 _atom_site_hle17_ddec_charge
 _atom_site_hle17_ddec_spin_density
 _atom_site_hle17_ddec_sum_bond_order
 _atom_site_hle17_magmom
 _atom_site_hse06_10hf_ddec_charge
 _atom_site_hse06_10hf_ddec_spin_density
 _atom_site_hse06_10hf_ddec_sum_bond_order
 _atom_site_hse06_10hf_magmom
 _atom_site_hse06_ddec_charge
 _atom_site_hse06_ddec_spin_density
 _atom_site_hse06_ddec_sum_bond_order
 _atom_site_hse06_magmom
 _atom_site_pbe_bader_charge
 _atom_site_pbe_bader_spin_density
 _atom_site_pbe_cm5_charge
 _atom_site_pbe_ddec_charge
 _atom_site_pbe_ddec_spin_density
 _atom_site_pbe_ddec_sum_bond_order
 _atom_site_pbe_magmom
Co  Co0  1  0.50000131  0.49999917  0.50000257  1  0.772425  -1.310945  2.537998  -1.137  0.778825  -1.056936  2.961353  -0.955  0.83183  -1.028908  2.893275  -0.946  1.216565  -0.900933  0.649717  0.75039  -1.01863  2.998541  -0.895
H  H1  1  0.16116558  0.16302725  0.18238305  1  0.082486  -5.2e-05  0.967652  0.0  0.090798  5.2e-05  1.034918  0.0  0.093879  3.2e-05  1.032448  0.0  0.057805  3.5e-05  0.095784  0.089105  6.3e-05  1.035857  0.0
H  H2  1  0.83883069  0.83697588  0.81760287  1  0.082487  -5.2e-05  0.967589  0.0  0.090801  5.2e-05  1.034863  0.0  0.093884  3.2e-05  1.032389  0.0  0.057808  3.5e-05  0.095829  0.089106  6.3e-05  1.035801  0.0
H  H3  1  0.10097392  0.30486573  0.30678466  1  0.089776  0.000212  0.956727  0.0  0.101024  9e-06  1.015882  0.0  0.103688  2e-06  1.015093  0.0  0.070629  1.6e-05  0.099909  0.099136  3e-06  1.016689  0.0
H  H4  1  0.89902915  0.69513548  0.69320281  1  0.089801  0.000211  0.956662  0.0  0.101055  9e-06  1.015807  0.0  0.103719  2e-06  1.015015  0.0  0.070737  1.6e-05  0.099943  0.099166  3e-06  1.016615  0.0
H  H5  1  0.87512409  0.38356385  0.39296766  1  0.095169  -9.4e-05  0.951793  0.0  0.103887  4.9e-05  1.013087  0.0  0.107769  1.4e-05  1.010168  0.0  0.049719  3.7e-05  0.100248  0.101338  6e-05  1.014978  0.0
H  H6  1  0.12488248  0.61644980  0.60701193  1  0.095116  -9.3e-05  0.951781  0.0  0.103848  4.9e-05  1.013058  0.0  0.10773  1.4e-05  1.010139  0.0  0.049896  3.7e-05  0.100175  0.101297  6.1e-05  1.014949  0.0
H  H7  1  0.76964683  0.17579200  0.23374128  1  0.083057  -9.3e-05  0.961381  0.0  0.094617  2.3e-05  1.0233  0.0  0.097247  1.2e-05  1.022422  0.0  0.047489  7e-06  0.095857  0.093055  1.3e-05  1.023375  0.0
H  H8  1  0.23034755  0.82421686  0.76625111  1  0.08309  -9.2e-05  0.9612  0.0  0.094605  2.3e-05  1.02319  0.0  0.097223  1.2e-05  1.022322  0.0  0.047571  7e-06  0.09584  0.093045  1.3e-05  1.02326  0.0
H  H9  1  0.99362571  0.09977681  0.14596000  1  0.075338  0.000171  1.003505  0.0  0.082612  -4e-06  1.071668  0.0  0.08351  -9e-06  1.074661  0.0  0.062868  1e-06  0.088593  0.082375  -9e-06  1.069197  0.0
H  H10  1  0.00636605  0.90023110  0.85403045  1  0.07527  0.000169  1.003561  0.0  0.082558  -4e-06  1.071717  0.0  0.083457  -9e-06  1.074712  0.0  0.06296  1e-06  0.088583  0.082322  -9e-06  1.069244  0.0
H  H11  1  0.61053689  0.17110381  0.38282644  1  0.112456  5.9e-05  1.007796  0.0  0.121275  -7.6e-05  1.074901  0.0  0.123713  -4.4e-05  1.077098  0.0  0.056073  4e-06  0.093565  0.120009  -8.1e-05  1.073133  0.0
H  H12  1  0.38945938  0.82889932  0.61716734  1  0.112453  5.9e-05  1.007791  0.0  0.121284  -7.6e-05  1.074881  0.0  0.123726  -4.4e-05  1.077069  0.0  0.056454  4e-06  0.093522  0.120016  -8.1e-05  1.073114  0.0
H  H13  1  0.21885738  0.29573725  0.60806062  1  0.099914  -0.000111  0.94875  0.0  0.109234  6.5e-05  1.009731  0.0  0.113712  4.8e-05  1.006007  0.0  0.077497  5.5e-05  0.102062  0.106191  7.6e-05  1.011915  0.0
H  H14  1  0.78114851  0.70425822  0.39195151  1  0.099776  -0.000111  0.948964  0.0  0.109065  6.5e-05  1.009983  0.0  0.113563  4.8e-05  1.006243  0.0  0.077568  5.5e-05  0.101973  0.106021  7.6e-05  1.012171  0.0
H  H15  1  0.06038210  0.16499997  0.64565252  1  0.074143  0.000202  0.97017  0.0  0.085918  -4.6e-05  1.030884  0.0  0.088396  -3.2e-05  1.030313  0.0  0.037635  -7.9e-05  0.092548  0.084484  -6.2e-05  1.030936  0.0
H  H16  1  0.93961989  0.83500220  0.35435384  1  0.074136  0.000201  0.970058  0.0  0.085916  -4.6e-05  1.030785  0.0  0.088394  -3.2e-05  1.030212  0.0  0.037719  -7.9e-05  0.092544  0.084484  -6.2e-05  1.030837  0.0
H  H17  1  0.11073228  0.01342711  0.53270473  1  0.089029  -6.8e-05  0.94685  -0.001  0.101987  9.9e-05  1.002113  0.0  0.104426  5e-05  1.001643  0.0  0.063836  3.6e-05  0.101234  0.100208  6.4e-05  1.002604  0.0
H  H18  1  0.88926255  0.98658463  0.46729593  1  0.089152  -6.9e-05  0.946708  -0.001  0.102062  9.9e-05  1.002006  0.0  0.104549  4.9e-05  1.001482  0.0  0.063792  3.6e-05  0.101277  0.100282  6.4e-05  1.002497  0.0
H  H19  1  0.32036591  0.99158869  0.38389941  1  0.088832  0.00032  0.970167  0.0  0.096767  1e-05  1.034935  0.0  0.098751  5e-06  1.035836  0.0  0.080492  -7.6e-05  0.095999  0.095582  -4.9e-05  1.034556  0.0
H  H20  1  0.67962924  0.00842114  0.61609632  1  0.088884  0.000323  0.970109  0.0  0.096838  1e-05  1.034863  0.0  0.098822  5e-06  1.035763  0.0  0.080557  -7.6e-05  0.096049  0.095655  -4.9e-05  1.034481  0.0
H  H21  1  0.47753690  0.11820512  0.34857593  1  0.089345  -0.000127  0.956631  0.0  0.102548  3.6e-05  1.013641  0.0  0.105403  1.9e-05  1.012507  0.0  0.062385  2.3e-05  0.099369  0.100903  3e-05  1.013965  0.0
H  H22  1  0.52246135  0.88180279  0.65142573  1  0.089307  -0.000126  0.956618  0.0  0.102551  3.6e-05  1.013592  0.0  0.105375  1.9e-05  1.012494  0.0  0.06246  2.3e-05  0.099361  0.100903  3e-05  1.013922  0.0
H  H23  1  0.73444088  0.41551881  0.58824179  1  0.088411  -0.000258  0.92902  -0.001  0.096386  -0.000324  0.989604  -0.001  0.100171  -0.000239  0.985274  -0.001  0.124942  -0.001519  0.120594  0.093216  -0.000444  0.993945  -0.001
H  H24  1  0.26555976  0.58447474  0.41176882  1  0.088414  -0.000259  0.92897  -0.001  0.096376  -0.000324  0.989576  -0.001  0.100162  -0.000239  0.985241  -0.001  0.124839  -0.001519  0.120547  0.093205  -0.000444  0.993917  -0.001
H  H25  1  0.84274570  0.20418057  0.69963179  1  0.094126  -0.000232  0.961494  0.0  0.106415  -0.000317  1.017981  0.0  0.109064  -0.000237  1.01789  0.0  0.067904  -0.00101  0.103444  0.104497  -0.000376  1.018265  0.0
H  H26  1  0.15725510  0.79581203  0.30037596  1  0.094221  -0.000232  0.961471  0.0  0.106482  -0.000317  1.01798  0.0  0.10913  -0.000237  1.017892  0.0  0.067953  -0.00101  0.103473  0.104565  -0.000376  1.018263  0.0
H  H27  1  0.71580186  0.02638234  0.82566867  1  0.097664  -5.6e-05  0.960631  0.0  0.105435  5e-05  1.02901  0.0  0.108814  6.8e-05  1.025327  0.0  0.102291  -0.000105  0.105616  0.102565  2.2e-05  1.032703  0.0
H  H28  1  0.28419769  0.97361217  0.17434118  1  0.097758  -5.7e-05  0.960466  0.0  0.105518  5e-05  1.028844  0.0  0.108898  6.8e-05  1.025157  0.0  0.10264  -0.000105  0.105683  0.102649  2.2e-05  1.032536  0.0
H  H29  1  0.39788267  0.28501508  0.71575391  1  0.087208  -0.000189  0.940226  -0.001  0.094305  -0.00029  1.005175  -0.001  0.097955  -0.000186  1.00099  -0.001  0.105699  -0.001618  0.119958  0.091547  -0.000456  1.008583  -0.001
H  H30  1  0.60212139  0.71497464  0.28424512  1  0.087144  -0.000188  0.940321  -0.001  0.094242  -0.00029  1.005295  -0.001  0.097889  -0.000186  1.001112  -0.001  0.105619  -0.001618  0.119945  0.091522  -0.000456  1.008659  -0.001
H  H31  1  0.29572300  0.75216147  0.00910433  1  0.100875  2.3e-05  0.984286  0.0  0.108774  -2e-06  1.053894  0.0  0.111922  0.0  1.053011  0.0  0.050178  -4.3e-05  0.10295  0.106414  -6e-06  1.055091  0.0
H  H32  1  0.70427560  0.24783878  0.99089754  1  0.10086  2.5e-05  0.984331  0.0  0.108736  -2e-06  1.053967  0.0  0.111886  -0.0  1.053082  0.0  0.050499  -4.3e-05  0.102929  0.106377  -6e-06  1.055163  0.0
H  H33  1  0.28844209  0.16030028  0.86567710  1  0.109445  2.8e-05  0.952482  0.0  0.121964  -3.7e-05  1.009836  0.0  0.125616  -2.7e-05  1.008086  0.0  0.072497  -8.6e-05  0.109656  0.119003  -4.6e-05  1.011505  0.0
H  H34  1  0.71156054  0.83969805  0.13432332  1  0.109401  3e-05  0.95249  0.0  0.121924  -3.7e-05  1.009841  0.0  0.125576  -2.7e-05  1.00809  0.0  0.072214  -8.6e-05  0.109638  0.11896  -4.6e-05  1.011518  0.0
H  H35  1  0.69486854  0.72712298  0.80105281  1  0.068043  3e-05  0.959387  0.0  0.073179  1.2e-05  1.03262  0.0  0.075418  6e-06  1.030958  0.0  0.092603  9e-06  0.106621  0.071488  1.7e-05  1.033864  0.0
H  H36  1  0.30513114  0.27287631  0.19894668  1  0.068021  3.2e-05  0.959419  0.0  0.073157  1.2e-05  1.032641  0.0  0.075396  7e-06  1.030978  0.0  0.092597  8e-06  0.106625  0.071467  1.7e-05  1.033884  0.0
H  H37  1  0.77542625  0.37569117  0.04715433  1  0.060801  5.2e-05  0.951309  0.0  0.069885  1.4e-05  1.015288  0.0  0.071972  8e-06  1.01397  0.0  0.058408  9e-06  0.103114  0.068158  2.1e-05  1.016488  0.0
H  H38  1  0.22457452  0.62430717  0.95284592  1  0.060815  5.1e-05  0.951354  0.0  0.06987  1.4e-05  1.015356  0.0  0.071956  8e-06  1.01403  0.0  0.05843  9e-06  0.103104  0.068144  2.1e-05  1.016554  0.0
H  H39  1  0.56650457  0.41067173  0.19499950  1  0.099212  0.00012  0.970392  0.0  0.108657  0.0001  1.031922  0.0  0.111251  6.3e-05  1.032288  0.0  0.102394  7.7e-05  0.099107  0.106555  9.1e-05  1.031979  0.0
H  H40  1  0.43349451  0.58932565  0.80500008  1  0.099255  0.000121  0.970372  0.0  0.108683  0.0001  1.031916  0.0  0.111278  6.3e-05  1.03228  0.0  0.102416  7.7e-05  0.099126  0.106582  9.1e-05  1.031973  0.0
H  H41  1  0.42083953  0.61839955  0.14276675  1  0.089339  4.8e-05  0.960184  0.0  0.100322  -2.8e-05  1.022276  0.0  0.102219  -1.1e-05  1.022224  0.0  0.09723  -7.6e-05  0.1018  0.09912  -6.2e-05  1.022176  0.0
H  H42  1  0.57916156  0.38159688  0.85723171  1  0.089308  4.8e-05  0.960129  0.0  0.100287  -2.8e-05  1.022231  0.0  0.102185  -1.1e-05  1.022177  0.0  0.09696  -7.6e-05  0.101769  0.099083  -6.2e-05  1.022128  0.0
H  H43  1  0.11254612  0.80319560  0.11716907  1  0.09355  -1.9e-05  0.953869  0.0  0.106879  -1.6e-05  1.010193  0.0  0.10985  -5e-06  1.008692  0.0  0.047771  -5e-05  0.10536  0.104796  -2e-05  1.011432  0.0
H  H44  1  0.88745941  0.19680752  0.88282792  1  0.093544  -1.9e-05  0.953844  0.0  0.106829  -1.6e-05  1.010206  0.0  0.109796  -6e-06  1.008712  0.0  0.047773  -5e-05  0.105369  0.104749  -2e-05  1.011447  0.0
H  H45  1  0.88255780  0.83773395  0.16831873  1  0.094295  1.1e-05  0.954943  0.0  0.108077  5e-06  1.010906  0.0  0.110649  2e-06  1.009985  0.0  0.071113  0.0  0.106198  0.106012  8e-06  1.01192  0.0
H  H46  1  0.11744559  0.16226534  0.83168109  1  0.094333  1.1e-05  0.954971  0.0  0.108111  5e-06  1.01093  0.0  0.110683  2e-06  1.01001  0.0  0.071084  0.0  0.106225  0.106043  8e-06  1.011949  0.0
C  C47  1  0.06207209  0.19616909  0.22150940  1  -0.065351  0.011839  3.763538  0.008  -0.079319  0.003131  4.008076  0.002  -0.079484  0.001826  4.028484  0.001  -0.055209  0.003035  -0.09146  -0.077254  0.003177  3.991843  0.002
C  C48  1  0.93792402  0.80383499  0.77848095  1  -0.065227  0.011828  3.763413  0.008  -0.079191  0.00313  4.007949  0.002  -0.079357  0.001826  4.028361  0.001  -0.054279  0.003035  -0.091485  -0.077124  0.003178  3.991713  0.002
C  C49  1  0.02859485  0.27603591  0.29107829  1  -0.068333  -0.003681  3.791294  -0.005  -0.083563  -0.0004  4.043799  -0.001  -0.086695  -0.000258  4.065468  0.0  -0.059372  -0.000644  -0.092766  -0.081491  -0.000253  4.028909  -0.001
C  C50  1  0.97140944  0.72396913  0.70890822  1  -0.068477  -0.00367  3.791471  -0.005  -0.083721  -0.000399  4.043991  -0.001  -0.086853  -0.000258  4.065662  0.0  -0.0604  -0.000644  -0.092794  -0.08165  -0.000253  4.029102  -0.001
C  C51  1  0.90235316  0.32042254  0.33943821  1  -0.082536  0.012348  3.730946  0.008  -0.101775  0.003477  3.970544  0.002  -0.100678  0.002042  3.989326  0.001  -0.018242  0.002732  -0.08664  -0.103027  0.002832  3.958331  0.002
C  C52  1  0.09764585  0.67958633  0.66054871  1  -0.082443  0.012326  3.730932  0.008  -0.10166  0.003479  3.97052  0.002  -0.100562  0.002044  3.989298  0.001  -0.018155  0.002732  -0.086623  -0.10291  0.002832  3.958306  0.002
C  C53  1  0.80703493  0.28438527  0.32078505  1  -0.017306  -0.001937  3.762376  -0.005  0.003831  0.000344  3.985488  -0.001  -0.003366  2.1e-05  4.007417  -0.001  -0.028573  5e-05  -0.017032  0.00773  0.000643  3.971067  0.0
C  C54  1  0.19296425  0.71562264  0.67920687  1  -0.017304  -0.001929  3.762416  -0.005  0.00379  0.000342  3.985621  -0.001  -0.003393  1.5e-05  4.007555  -0.001  -0.028585  5e-05  -0.01699  0.007687  0.000643  3.971199  0.0
C  C55  1  0.84167490  0.20404561  0.25072961  1  -0.096296  0.010542  3.756705  0.007  -0.115877  0.002587  4.002004  0.002  -0.116296  0.001492  4.022688  0.001  -0.071862  0.002803  -0.088989  -0.113955  0.002897  3.98604  0.002
C  C56  1  0.15831872  0.79596231  0.74926180  1  -0.096315  0.010518  3.756672  0.007  -0.11585  0.002586  4.00203  0.002  -0.116257  0.001503  4.022699  0.001  -0.072047  0.002803  -0.088962  -0.113931  0.002896  3.986076  0.002
C  C57  1  0.96831309  0.16094254  0.20106263  1  -0.087361  -0.003517  3.803478  -0.005  -0.097213  -0.000408  4.049755  -0.001  -0.100732  -0.000248  4.073163  0.0  -0.003038  -0.000658  -0.102627  -0.09478  -0.00026  4.031803  -0.001
C  C58  1  0.03168423  0.83906537  0.79892676  1  -0.087322  -0.003507  3.803558  -0.005  -0.097199  -0.000407  4.049848  -0.001  -0.10072  -0.000249  4.073256  0.0  -0.003303  -0.000658  -0.102626  -0.094767  -0.00026  4.031896  -0.001
C  C59  1  0.67356443  0.33111981  0.37758698  1  0.388585  0.040452  3.800705  0.026  0.376586  0.016602  4.068469  0.01  0.409956  0.010434  4.070974  0.006  0.669886  0.014261  0.114712  0.355931  0.015712  4.064357  0.009
C  C60  1  0.32643384  0.66888235  0.62241040  1  0.38861  0.040453  3.800627  0.026  0.376604  0.016604  4.068455  0.01  0.409935  0.010434  4.071026  0.006  0.669903  0.01426  0.114766  0.355949  0.015711  4.064347  0.009
C  C61  1  0.58019500  0.25999191  0.40384963  1  -0.424095  -0.005227  3.773997  -0.01  -0.457976  8.2e-05  4.048102  -0.002  -0.483563  0.000162  4.064654  -0.001  -0.017616  -0.00112  -0.154256  -0.441599  0.000741  4.035557  -0.001
C  C62  1  0.41980452  0.74000834  0.59614879  1  -0.42416  -0.00523  3.773927  -0.01  -0.458037  8e-05  4.048016  -0.002  -0.483613  0.00016  4.064574  -0.001  -0.018005  -0.001119  -0.154256  -0.441664  0.000741  4.035481  -0.001
C  C63  1  0.45201100  0.29265804  0.46047656  1  0.379286  0.042218  3.805817  0.028  0.366763  0.017175  4.07278  0.01  0.400179  0.010458  4.075676  0.006  0.693703  0.014766  0.109999  0.346274  0.016392  4.068144  0.01
C  C64  1  0.54799038  0.70734221  0.53952439  1  0.379385  0.042222  3.805659  0.028  0.366867  0.01718  4.072633  0.01  0.400284  0.010448  4.075519  0.006  0.693743  0.014767  0.110056  0.346371  0.016394  4.068014  0.01
C  C65  1  0.35979837  0.21452656  0.47815217  1  -0.016646  -0.00318  3.761175  -0.006  0.00503  5.8e-05  3.984157  -0.001  -0.002858  -3.7e-05  4.006767  -0.001  -0.013047  -0.000298  -0.019079  0.00951  0.000414  3.968952  -0.001
C  C66  1  0.64020301  0.78547369  0.52185349  1  -0.016821  -0.003169  3.761258  -0.006  0.004826  5.7e-05  3.984294  -0.001  -0.003047  -3.5e-05  4.006872  -0.001  -0.013254  -0.000298  -0.019217  0.009341  0.000414  3.969027  -0.001
C  C67  1  0.24027369  0.22756985  0.56049713  1  -0.099696  0.014321  3.749528  0.009  -0.122113  0.003862  3.994888  0.002  -0.12092  0.002134  4.014279  0.001  -0.086447  0.003522  -0.095499  -0.12161  0.00364  3.980293  0.002
C  C68  1  0.75972909  0.77242753  0.43951143  1  -0.09955  0.014299  3.749795  0.009  -0.121923  0.003863  3.995141  0.002  -0.120751  0.002133  4.01452  0.001  -0.086555  0.003522  -0.095451  -0.121428  0.00364  3.980554  0.002
C  C69  1  0.15182113  0.15544267  0.58009051  1  -0.085563  -0.004802  3.810927  -0.007  -0.096444  -0.000612  4.060807  -0.001  -0.101022  -0.000378  4.083991  -0.001  -0.026453  -0.000991  -0.098513  -0.093177  -0.000415  4.043531  -0.001
C  C70  1  0.84817948  0.84455663  0.41991731  1  -0.085484  -0.004791  3.810913  -0.007  -0.09637  -0.000611  4.060767  -0.001  -0.100951  -0.000379  4.083972  -0.001  -0.026382  -0.000991  -0.098448  -0.093107  -0.000415  4.043499  -0.001
C  C71  1  0.17995415  0.06994676  0.51706292  1  -0.055678  0.015861  3.765081  0.01  -0.070576  0.004495  4.012207  0.003  -0.069758  0.002382  4.032445  0.001  -0.066289  0.004236  -0.08598  -0.070366  0.004436  3.997984  0.003
C  C72  1  0.82004365  0.93005828  0.48293910  1  -0.055882  0.015844  3.765019  0.01  -0.070746  0.004495  4.012173  0.003  -0.06997  0.002388  4.032399  0.001  -0.066334  0.004237  -0.086029  -0.070537  0.004437  3.997955  0.003
C  C73  1  0.29774870  0.05720306  0.43417903  1  -0.073718  -0.004887  3.767434  -0.007  -0.085798  -0.000679  4.020713  -0.001  -0.088981  -0.000404  4.041592  -0.001  -0.044732  -0.001054  -0.093469  -0.083973  -0.000464  4.006759  -0.001
C  C74  1  0.70224600  0.94280389  0.56582257  1  -0.073683  -0.004879  3.767368  -0.007  -0.08577  -0.000678  4.020639  -0.001  -0.088953  -0.000408  4.041523  -0.001  -0.044803  -0.001054  -0.093471  -0.083949  -0.000464  4.006692  -0.001
C  C75  1  0.38695098  0.12849751  0.41495251  1  -0.086925  0.014418  3.727112  0.01  -0.107289  0.00391  3.970431  0.002  -0.106575  0.002169  3.989767  0.001  -0.035616  0.003683  -0.085648  -0.107563  0.003796  3.956693  0.002
C  C76  1  0.61304605  0.87150657  0.58505010  1  -0.086856  0.014392  3.727148  0.01  -0.107251  0.00391  3.970489  0.002  -0.106517  0.002172  3.989829  0.001  -0.035572  0.003683  -0.08562  -0.107531  0.003796  3.956753  0.002
C  C77  1  0.68464236  0.33534378  0.64507457  1  0.123186  0.011663  3.699861  0.008  0.093905  -0.000873  3.958798  -0.002  0.103521  7.8e-05  3.972182  -0.001  0.478947  -0.007654  0.046025  0.084439  -0.003567  3.953353  -0.004
C  C78  1  0.31535828  0.66464977  0.35493133  1  0.123204  0.011674  3.699818  0.008  0.093979  -0.000872  3.958715  -0.002  0.103583  8e-05  3.972091  -0.001  0.47846  -0.007655  0.046138  0.084513  -0.003567  3.953271  -0.004
C  C79  1  0.74331177  0.21821452  0.70703487  1  -0.134509  -0.005145  3.779559  -0.007  -0.140814  -0.000378  4.025428  -0.001  -0.150046  -0.000277  4.047683  -0.001  -0.097538  -0.001923  -0.088251  -0.134933  -0.000365  4.012981  -0.001
C  C80  1  0.25668995  0.78177807  0.29297101  1  -0.134638  -0.005151  3.779629  -0.007  -0.140932  -0.000378  4.025497  -0.001  -0.150165  -0.000277  4.047756  -0.001  -0.098138  -0.001923  -0.088313  -0.135052  -0.000365  4.013052  -0.001
C  C81  1  0.67371311  0.11993184  0.77674063  1  -0.042896  0.013197  3.709244  0.009  -0.070453  -0.001847  3.958433  -0.002  -0.06425  -0.000943  3.974463  -0.001  -0.027752  -0.008512  -0.070829  -0.076593  -0.004439  3.950059  -0.005
C  C82  1  0.32628737  0.88006267  0.22326813  1  -0.042979  0.013207  3.709167  0.009  -0.070526  -0.001847  3.958366  -0.002  -0.064319  -0.000945  3.974395  -0.001  -0.027299  -0.008514  -0.070908  -0.076666  -0.00444  3.949995  -0.005
C  C83  1  0.54592471  0.14142786  0.78342067  1  -0.031754  -0.004203  3.759861  -0.006  -0.012221  -0.000202  3.991562  -0.001  -0.018832  -0.000172  4.013987  -0.001  -0.014384  -0.002317  -0.004497  -0.007861  -0.000555  3.977511  -0.001
C  C84  1  0.45407468  0.85856761  0.21658654  1  -0.031806  -0.00421  3.759968  -0.006  -0.012284  -0.000202  3.991617  -0.001  -0.018896  -0.000168  4.01404  -0.001  -0.014189  -0.002316  -0.004605  -0.007929  -0.000554  3.977585  -0.001
C  C85  1  0.49511974  0.26228241  0.71828698  1  0.093762  0.009807  3.667211  0.006  0.059481  -2e-06  3.923629  -0.001  0.067188  0.000529  3.93838  0.0  0.531883  -0.002357  0.053582  0.053404  -0.000287  3.915881  -0.001
C  C86  1  0.50488183  0.73771115  0.28171704  1  0.093946  0.00982  3.66733  0.006  0.059645  -3e-06  3.923802  -0.001  0.067343  0.000523  3.938546  0.0  0.53184  -0.00236  0.053671  0.053562  -0.000289  3.915995  -0.001
C  C87  1  0.47049534  0.03744717  0.85045193  1  0.22886  0.000874  3.794083  0.001  0.22779  -0.000274  4.0402  0.0  0.236759  -0.000161  4.059903  0.0  0.510482  -0.001784  0.120576  0.221377  -0.00087  4.02782  -0.001
C  C88  1  0.52950559  0.96255021  0.14955332  1  0.228772  0.000874  3.794218  0.001  0.227795  -0.000273  4.040224  0.0  0.236763  -0.000152  4.059926  0.0  0.510714  -0.001783  0.120578  0.221376  -0.00087  4.027854  -0.001
C  C89  1  0.47312371  0.81912666  0.93600406  1  0.229204  0.000729  3.810196  0.001  0.227594  -1e-06  4.058459  0.0  0.23698  1.4e-05  4.077321  0.0  0.533809  -6.3e-05  0.12035  0.221308  2.9e-05  4.047152  0.0
C  C90  1  0.52687520  0.18087168  0.06399837  1  0.229163  0.000724  3.810209  0.001  0.227595  -0.0  4.058465  0.0  0.23698  1.3e-05  4.077328  0.0  0.533798  -6.3e-05  0.120353  0.22131  2.9e-05  4.047157  0.0
C  C91  1  0.34184988  0.83581484  0.96645932  1  -0.209911  -0.000717  3.691508  -0.001  -0.235233  -0.000117  3.938852  0.0  -0.243915  -6.4e-05  3.959923  0.0  -0.033424  -0.001456  -0.08864  -0.231755  -0.000761  3.927475  -0.001
C  C92  1  0.65814888  0.16418446  0.03354126  1  -0.209902  -0.000718  3.691604  -0.001  -0.235212  -0.000116  3.938951  0.0  -0.243896  -6e-05  3.960024  0.0  -0.033675  -0.001455  -0.088595  -0.231734  -0.00076  3.927572  -0.001
C  C93  1  0.27179721  0.95960980  0.93965248  1  0.102097  0.000792  3.801774  0.001  0.115103  4.1e-05  4.032961  0.0  0.11925  5e-05  4.056233  0.0  -0.091028  -0.00115  0.003689  0.111652  -0.000597  4.018339  -0.001
C  C94  1  0.72820356  0.04038854  0.06034856  1  0.102183  0.00079  3.8017  0.001  0.115184  4.1e-05  4.032867  0.0  0.11933  5.1e-05  4.056141  0.0  -0.091014  -0.00115  0.003753  0.111734  -0.000597  4.018244  -0.001
C  C95  1  0.33861760  0.06210662  0.88274225  1  -0.200688  -0.000795  3.668281  -0.001  -0.227231  5.4e-05  3.912622  0.0  -0.235557  2e-05  3.932895  0.0  0.052024  4.2e-05  -0.085436  -0.220481  0.000121  3.89941  0.0
C  C96  1  0.66138410  0.93789172  0.11725847  1  -0.200631  -0.000796  3.668248  -0.001  -0.227221  5.2e-05  3.912578  0.0  -0.235545  9e-06  3.93285  0.0  0.052346  4.2e-05  -0.085449  -0.220473  0.000122  3.899375  0.0
C  C97  1  0.54942791  0.69074401  0.96866385  1  -0.041049  -4.4e-05  3.787453  0.0  -0.020537  3.1e-05  4.015566  0.0  -0.027117  2.4e-05  4.041146  0.0  -0.022923  -3.7e-05  -0.010057  -0.016434  -4e-06  3.998739  0.0
C  C98  1  0.45056838  0.30925337  0.03133822  1  -0.040872  -4.5e-05  3.787389  0.0  -0.020508  3.2e-05  4.015661  0.0  -0.027084  2.9e-05  4.041236  0.0  -0.022951  -3.7e-05  -0.010058  -0.016405  -4e-06  3.998833  0.0
C  C99  1  0.66553462  0.65856411  0.88974874  1  0.089635  0.000135  3.716572  0.0  0.059766  -2.6e-05  3.972786  0.0  0.064959  -1.3e-05  3.989654  0.0  0.521832  -3.9e-05  0.044279  0.056254  -1.1e-05  3.961487  0.0
C  C100  1  0.33446461  0.34143231  0.11025190  1  0.089604  0.000135  3.716566  0.0  0.059803  -2.7e-05  3.972763  0.0  0.064994  -1.4e-05  3.989632  0.0  0.521729  -3.9e-05  0.044289  0.056291  -1.1e-05  3.961465  0.0
C  C101  1  0.70751703  0.46303154  0.02504578  1  0.107678  0.000128  3.754755  0.0  0.085314  -2.6e-05  4.011522  0.0  0.090515  -9e-06  4.028715  0.0  0.468679  -4.9e-05  0.036557  0.08181  -1.6e-05  4.000264  0.0
C  C102  1  0.29248096  0.53696680  0.97495382  1  0.107607  0.00013  3.754994  0.0  0.085266  -2.5e-05  4.011754  0.0  0.090472  -1.1e-05  4.028944  0.0  0.468593  -4.9e-05  0.036549  0.081761  -1.6e-05  4.000496  0.0
C  C103  1  0.59174017  0.48307170  0.10832175  1  -0.110815  3.5e-05  3.742033  0.0  -0.121743  5e-05  3.989168  0.0  -0.12782  4.4e-05  4.011632  0.0  0.008734  -2.5e-05  -0.089768  -0.11808  3.1e-05  3.974635  0.0
C  C104  1  0.40825581  0.51692759  0.89167818  1  -0.110891  3.5e-05  3.742105  0.0  -0.121808  4.9e-05  3.989224  0.0  -0.127886  4.8e-05  4.011689  0.0  0.00876  -2.5e-05  -0.089804  -0.118145  3.1e-05  3.974688  0.0
C  C105  1  0.51099912  0.59854316  0.07921171  1  -0.048993  0.000215  3.720448  0.0  -0.075242  1.3e-05  3.966768  0.0  -0.073737  1.8e-05  3.987929  0.0  -0.087917  -3.3e-05  -0.072141  -0.075491  -1.9e-05  3.951661  0.0
C  C106  1  0.48899826  0.40145327  0.92078955  1  -0.048951  0.000217  3.720296  0.0  -0.075143  1.3e-05  3.966621  0.0  -0.073638  1.3e-05  3.987782  0.0  -0.087511  -3.3e-05  -0.07206  -0.075386  -1.9e-05  3.951506  0.0
C  C107  1  0.13327884  0.98046164  0.97072096  1  0.046926  2.1e-05  3.767711  0.0  0.063991  1.3e-05  3.995269  0.0  0.063712  8e-06  4.017882  0.0  -0.031514  -0.000682  -0.002549  0.064333  -0.000345  3.980347  0.0
C  C108  1  0.86672407  0.01954053  0.02927880  1  0.046788  1.9e-05  3.76766  0.0  0.063893  1.4e-05  3.995172  0.0  0.063613  4e-06  4.017783  0.0  -0.031464  -0.000683  -0.002611  0.064233  -0.000345  3.980256  0.0
C  C109  1  0.06396624  0.88936631  0.06447500  1  -0.103921  6e-05  3.741098  0.0  -0.123163  2e-06  3.987902  0.0  -0.125203  -3e-06  4.007483  0.0  -0.026836  -0.0004  -0.083858  -0.12217  -0.000206  3.975039  0.0
C  C110  1  0.93603667  0.11063585  0.93552556  1  -0.103792  6.5e-05  3.741205  0.0  -0.123008  1e-06  3.987978  0.0  -0.125047  2e-06  4.007558  0.0  -0.026879  -0.0004  -0.083849  -0.122025  -0.000206  3.975126  0.0
C  C111  1  0.93360308  0.90853833  0.09317702  1  -0.098459  5.3e-05  3.737164  0.0  -0.11834  -7e-06  3.982827  0.0  -0.120118  4e-06  4.002728  0.0  -0.039028  -0.000199  -0.081942  -0.117216  -0.0001  3.970266  0.0
C  C112  1  0.06640015  0.09146192  0.90682488  1  -0.098579  4.8e-05  3.73743  0.0  -0.118431  -7e-06  3.983071  0.0  -0.120209  0.0  4.002971  0.0  -0.039077  -0.000199  -0.081999  -0.117306  -0.0001  3.970512  0.0
N  N113  1  0.56249271  0.35636696  0.65003452  1  -0.278526  -0.034825  3.268677  -0.058  -0.23672  -0.028835  3.547787  -0.047  -0.251874  -0.022531  3.559758  -0.038  -1.215782  -0.065819  -0.317495  -0.2263  -0.035535  3.540049  -0.055
N  N114  1  0.43750793  0.64362659  0.34996981  1  -0.278571  -0.034831  3.268708  -0.058  -0.236797  -0.028836  3.547835  -0.047  -0.251917  -0.022531  3.559779  -0.038  -1.215408  -0.06582  -0.317516  -0.226386  -0.035536  3.540118  -0.055
N  N115  1  0.53656440  0.91793195  0.87688952  1  -0.383225  -0.000587  3.024726  -0.001  -0.354981  -6.2e-05  3.290126  0.0  -0.368382  -2.8e-05  3.304493  0.0  -1.183271  -0.002083  -0.309635  -0.347409  -0.001008  3.282266  -0.001
N  N116  1  0.46343761  0.08206447  0.12311570  1  -0.383242  -0.000586  3.024939  -0.001  -0.355016  -6.3e-05  3.290273  0.0  -0.368418  -3.2e-05  3.304641  0.0  -1.18366  -0.002082  -0.30967  -0.347443  -0.001008  3.282414  -0.001
N  N117  1  0.74339225  0.54721134  0.91588781  1  -0.322298  -4.4e-05  3.075283  0.0  -0.289181  6e-06  3.341363  0.0  -0.299194  5e-06  3.35514  0.0  -1.206128  -9e-06  -0.336041  -0.282635  8e-06  3.33233  0.0
N  N118  1  0.25660977  0.45278508  0.08410877  1  -0.322268  -4.6e-05  3.075332  0.0  -0.289157  6e-06  3.341388  0.0  -0.29917  5e-06  3.355163  0.0  -1.206072  -9e-06  -0.336066  -0.282612  8e-06  3.332356  0.0
O  O119  1  0.65394892  0.43561641  0.40140397  1  -0.481453  0.017046  2.188561  0.011  -0.459586  0.004976  2.4639  0.003  -0.497075  0.003554  2.458414  0.001  -1.056859  0.005015  -0.285817  -0.432901  0.003955  2.463839  0.002
O  O120  1  0.34604955  0.56437906  0.59860276  1  -0.481543  0.01705  2.188509  0.011  -0.459594  0.004978  2.463847  0.003  -0.497068  0.003562  2.458375  0.001  -1.056888  0.005018  -0.285872  -0.432908  0.003957  2.463789  0.002
O  O121  1  0.40511552  0.38706325  0.50305204  1  -0.489904  0.011563  2.208481  0.006  -0.4621  0.002921  2.483867  0.0  -0.500271  0.002971  2.478605  0.001  -1.076859  0.002009  -0.285241  -0.43589  0.001688  2.484012  -0.001
O  O122  1  0.59488650  0.61293318  0.49695318  1  -0.489874  0.011561  2.208441  0.006  -0.462124  0.00292  2.483818  0.0  -0.500297  0.002974  2.478554  0.001  -1.076795  0.002008  -0.285248  -0.435925  0.001686  2.483983  -0.001
