# generated using pymatgen
data_ZnH4C8(N2O)2
_symmetry_space_group_name_H-M   'P 1'
_cell_length_a   4.89752726
_cell_length_b   10.51027348
_cell_length_c   17.03360825
_cell_angle_alpha   90.00002594
_cell_angle_beta   90.00001367
_cell_angle_gamma   97.96814448
_symmetry_Int_Tables_number   1
_chemical_formula_structural   ZnH4C8(N2O)2
_chemical_formula_sum   'Zn4 H16 C32 N16 O8'
_cell_volume   868.32873996
_cell_formula_units_Z   4
loop_
 _symmetry_equiv_pos_site_id
 _symmetry_equiv_pos_as_xyz
  1  'x, y, z'
loop_
 _atom_site_type_symbol
 _atom_site_label
 _atom_site_symmetry_multiplicity
 _atom_site_fract_x
 _atom_site_fract_y
 _atom_site_fract_z
 _atom_site_occupancy
 _atom_site_hle17_bader_spin_density
 _atom_site_hle17_ddec_charge
 _atom_site_hle17_ddec_spin_density
 _atom_site_hle17_ddec_sum_bond_order
 _atom_site_hle17_magmom
 _atom_site_hse06_10hf_bader_spin_density
 _atom_site_hse06_10hf_ddec_charge
 _atom_site_hse06_10hf_ddec_spin_density
 _atom_site_hse06_10hf_ddec_sum_bond_order
 _atom_site_hse06_10hf_magmom
 _atom_site_hse06_bader_spin_density
 _atom_site_hse06_ddec_charge
 _atom_site_hse06_ddec_spin_density
 _atom_site_hse06_ddec_sum_bond_order
 _atom_site_hse06_magmom
 _atom_site_pbe_bader_spin_density
 _atom_site_pbe_cm5_charge
 _atom_site_pbe_ddec_charge
 _atom_site_pbe_ddec_spin_density
 _atom_site_pbe_ddec_sum_bond_order
 _atom_site_pbe_magmom
Zn  Zn0  1  0.20358178  0.64795578  0.65940354  1  0  1.034638  0  1.889778  0  0  0.843024  0  2.384842  0  0  0.887048  0  2.32956  0  0  0.740013  0.81192  0  2.423264  0
Zn  Zn1  1  0.79641599  0.85204376  0.15940384  1  0  1.034592  0  1.889771  0  0  0.843002  0  2.384864  0  0  0.887024  0  2.329582  0  0  0.740014  0.811894  0  2.423283  0
Zn  Zn2  1  0.79641729  0.35204390  0.34059614  1  0  1.034637  0  1.889736  0  0  0.843054  0  2.384812  0  0  0.887077  0  2.329531  0  0  0.740027  0.811948  0  2.423233  0
Zn  Zn3  1  0.20358308  0.14795592  0.84059585  1  0  1.03461  0  1.889749  0  0  0.843032  0  2.384818  0  0  0.887055  0  2.329538  0  0  0.740015  0.811924  0  2.423238  0
H  H4  1  0.36662156  0.82954830  0.53085594  1  0  0.095557  0  0.952849  0  0  0.102967  0  1.018841  0  0  0.106248  0  1.016057  0  0  0.105349  0.100611  0  1.020769  0
H  H5  1  0.63337840  0.67045210  0.03085617  1  0  0.095552  0  0.95286  0  0  0.102959  0  1.018848  0  0  0.106242  0  1.016068  0  0  0.105337  0.100602  0  1.020777  0
H  H6  1  0.63337983  0.17045234  0.46914375  1  0  0.095558  0  0.952863  0  0  0.102962  0  1.018848  0  0  0.106247  0  1.016068  0  0  0.105337  0.100606  0  1.020777  0
H  H7  1  0.36662067  0.32954758  0.96914352  1  0  0.095556  0  0.952855  0  0  0.102961  0  1.018843  0  0  0.106246  0  1.016061  0  0  0.10534  0.100604  0  1.02077  0
H  H8  1  0.21369918  0.88792059  0.39776494  1  0  0.098953  0  0.967195  0  0  0.103225  0  1.034705  0  0  0.106723  0  1.033151  0  0  0.102865  0.100791  0  1.035784  0
H  H9  1  0.78630117  0.61208010  0.89776468  1  0  0.098973  0  0.96722  0  0  0.103241  0  1.034715  0  0  0.106741  0  1.033161  0  0  0.102863  0.100805  0  1.035795  0
H  H10  1  0.78630425  0.11208005  0.60223533  1  0  0.098965  0  0.967209  0  0  0.103226  0  1.034714  0  0  0.106725  0  1.033159  0  0  0.102862  0.100789  0  1.035796  0
H  H11  1  0.21369818  0.38792054  0.10223501  1  0  0.098972  0  0.967209  0  0  0.103232  0  1.034715  0  0  0.106731  0  1.03316  0  0  0.10286  0.100796  0  1.035795  0
H  H12  1  0.38306123  0.78942114  0.27982398  1  0  0.097748  0  0.95595  0  0  0.104447  0  1.027585  0  0  0.107992  0  1.024606  0  0  0.101328  0.10185  0  1.029837  0
H  H13  1  0.61693872  0.71057850  0.77982432  1  0  0.097825  0  0.955871  0  0  0.104509  0  1.027523  0  0  0.108052  0  1.024542  0  0  0.101352  0.101911  0  1.029775  0
H  H14  1  0.61693784  0.21057854  0.72017571  1  0  0.097786  0  0.955912  0  0  0.104491  0  1.027545  0  0  0.108036  0  1.024564  0  0  0.10134  0.101893  0  1.029797  0
H  H15  1  0.38306035  0.28942118  0.22017536  1  0  0.097733  0  0.955968  0  0  0.104436  0  1.027601  0  0  0.107978  0  1.024621  0  0  0.101325  0.101838  0  1.029854  0
H  H16  1  0.88559553  0.57803387  0.42652513  1  0  0.108236  0  0.974065  0  0  0.115575  0  1.041743  0  0  0.119183  0  1.039367  0  0  0.106237  0.113002  0  1.043392  0
H  H17  1  0.11440486  0.92196685  0.92652490  1  0  0.10823  0  0.974082  0  0  0.115573  0  1.041753  0  0  0.119186  0  1.039364  0  0  0.106229  0.112998  0  1.043404  0
H  H18  1  0.11440383  0.42196677  0.57347456  1  0  0.108206  0  0.97408  0  0  0.11555  0  1.041758  0  0  0.11916  0  1.039378  0  0  0.10623  0.112978  0  1.043406  0
H  H19  1  0.88559654  0.07803379  0.07347537  1  0  0.108251  0  0.974063  0  0  0.115595  0  1.041729  0  0  0.1192  0  1.039361  0  0  0.106244  0.113022  0  1.043378  0
C  C20  1  0.73435769  0.66006343  0.56428573  1  0  0.686316  0  3.846337  0  0  0.62921  0  4.139026  0  0  0.665297  0  4.130379  0  0  0.229582  0.604643  0  4.144193  0
C  C21  1  0.26563998  0.83993603  0.06428715  1  0  0.686384  0  3.846396  0  0  0.629317  0  4.138991  0  0  0.665407  0  4.130344  0  0  0.229577  0.604751  0  4.144161  0
C  C22  1  0.26564138  0.33993625  0.43571455  1  0  0.686419  0  3.846319  0  0  0.629345  0  4.138923  0  0  0.665434  0  4.130275  0  0  0.229642  0.604778  0  4.144091  0
C  C23  1  0.73435909  0.16006365  0.93571430  1  0  0.686337  0  3.846313  0  0  0.629278  0  4.138932  0  0  0.665366  0  4.130283  0  0  0.229581  0.604711  0  4.144098  0
C  C24  1  0.76712498  0.62187604  0.27550017  1  0  0.326954  0  3.762492  0  0  0.295063  0  4.017596  0  0  0.309644  0  4.034404  0  0  0.236515  0.285459  0  4.005992  0
C  C25  1  0.23287496  0.87812359  0.77549994  1  0  0.326957  0  3.762505  0  0  0.295066  0  4.017608  0  0  0.309647  0  4.034418  0  0  0.236517  0.285462  0  4.006003  0
C  C26  1  0.23287613  0.37812364  0.72449952  1  0  0.326936  0  3.762533  0  0  0.295039  0  4.017638  0  0  0.309622  0  4.034446  0  0  0.236512  0.285435  0  4.006035  0
C  C27  1  0.76712411  0.12187609  0.22449975  1  0  0.326926  0  3.762508  0  0  0.29503  0  4.017618  0  0  0.309611  0  4.034427  0  0  0.236523  0.285427  0  4.006013  0
C  C28  1  0.62625387  0.69461901  0.48643434  1  0  -0.074177  0  3.75126  0  0  -0.04578  0  3.979495  0  0  -0.05616  0  4.003816  0  0  -0.016037  -0.039132  0  3.963123  0
C  C29  1  0.37374658  0.80538175  0.98643469  1  0  -0.074267  0  3.751344  0  0  -0.045756  0  3.979402  0  0  -0.056139  0  4.003726  0  0  -0.016013  -0.039111  0  3.963033  0
C  C30  1  0.37374957  0.30538163  0.51356593  1  0  -0.074321  0  3.751433  0  0  -0.04583  0  3.979528  0  0  -0.056209  0  4.003848  0  0  -0.016044  -0.039182  0  3.963157  0
C  C31  1  0.62625278  0.19461889  0.01356617  1  0  -0.074235  0  3.751302  0  0  -0.045788  0  3.979449  0  0  -0.056168  0  4.00377  0  0  -0.016029  -0.03914  0  3.963077  0
C  C32  1  0.44139827  0.78443285  0.47900257  1  0  -0.030867  0  3.685664  0  0  -0.055944  0  3.926268  0  0  -0.053012  0  3.94491  0  0  -0.070742  -0.057588  0  3.913574  0
C  C33  1  0.55860013  0.71556791  0.97900291  1  0  -0.030784  0  3.685673  0  0  -0.055892  0  3.926216  0  0  -0.052966  0  3.944868  0  0  -0.070684  -0.057538  0  3.913522  0
C  C34  1  0.55860108  0.21556779  0.52099712  1  0  -0.030811  0  3.685779  0  0  -0.055905  0  3.926307  0  0  -0.052981  0  3.94496  0  0  -0.070688  -0.057551  0  3.913613  0
C  C35  1  0.44139894  0.28443177  0.02099737  1  0  -0.030787  0  3.685708  0  0  -0.055877  0  3.92626  0  0  -0.052952  0  3.944909  0  0  -0.070677  -0.057522  0  3.913564  0
C  C36  1  0.35768763  0.81850864  0.40449692  1  0  -0.059506  0  3.733566  0  0  -0.0698  0  3.986351  0  0  -0.074929  0  4.008386  0  0  -0.083747  -0.066567  0  3.971449  0
C  C37  1  0.64231244  0.68149110  0.90449609  1  0  -0.059663  0  3.733752  0  0  -0.069917  0  3.986499  0  0  -0.075049  0  4.008538  0  0  -0.083802  -0.066685  0  3.971595  0
C  C38  1  0.64231376  0.18149200  0.59550394  1  0  -0.059603  0  3.733701  0  0  -0.069852  0  3.986444  0  0  -0.074983  0  4.008484  0  0  -0.083789  -0.066618  0  3.971541  0
C  C39  1  0.35768663  0.31850858  0.09550360  1  0  -0.05964  0  3.733715  0  0  -0.069887  0  3.986459  0  0  -0.075017  0  4.008495  0  0  -0.083785  -0.066655  0  3.971556  0
C  C40  1  0.45576010  0.76356060  0.33745358  1  0  -0.068307  0  3.693315  0  0  -0.099815  0  3.951958  0  0  -0.098588  0  3.971032  0  0  -0.080354  -0.100332  0  3.938914  0
C  C41  1  0.54423962  0.73643812  0.83745334  1  0  -0.068296  0  3.693299  0  0  -0.099809  0  3.951934  0  0  -0.098579  0  3.971007  0  0  -0.080362  -0.100325  0  3.938887  0
C  C42  1  0.54424101  0.23643908  0.66254670  1  0  -0.068275  0  3.693318  0  0  -0.09982  0  3.951972  0  0  -0.098593  0  3.971048  0  0  -0.080347  -0.100335  0  3.938925  0
C  C43  1  0.45575945  0.26356156  0.16254635  1  0  -0.06821  0  3.69334  0  0  -0.099735  0  3.951973  0  0  -0.098504  0  3.971045  0  0  -0.080329  -0.100252  0  3.938927  0
C  C44  1  0.64557443  0.67533417  0.34436579  1  0  -0.016416  0  3.80973  0  0  0.004491  0  4.049844  0  0  -0.000269  0  4.072451  0  0  -0.00961  0.007466  0  4.034457  0
C  C45  1  0.35442587  0.82466648  0.84436556  1  0  -0.016385  0  3.809636  0  0  0.004516  0  4.049767  0  0  -0.000244  0  4.072375  0  0  -0.009601  0.00749  0  4.034377  0
C  C46  1  0.35442668  0.32466551  0.65563449  1  0  -0.016446  0  3.809691  0  0  0.004465  0  4.049815  0  0  -0.000294  0  4.072421  0  0  -0.009634  0.007441  0  4.034427  0
C  C47  1  0.64557349  0.17533416  0.15563413  1  0  -0.016435  0  3.809702  0  0  0.00447  0  4.049828  0  0  -0.000289  0  4.072433  0  0  -0.009635  0.007444  0  4.03444  0
C  C48  1  0.73082402  0.64215536  0.41917965  1  0  -0.083628  0  3.688323  0  0  -0.117492  0  3.930854  0  0  -0.116375  0  3.951193  0  0  -0.076791  -0.117939  0  3.917036  0
C  C49  1  0.26917635  0.85784534  0.91918001  1  0  -0.083674  0  3.688357  0  0  -0.11757  0  3.930863  0  0  -0.116451  0  3.9512  0  0  -0.076822  -0.118017  0  3.917043  0
C  C50  1  0.26917737  0.35784528  0.58082004  1  0  -0.083561  0  3.688275  0  0  -0.117462  0  3.930785  0  0  -0.116342  0  3.951116  0  0  -0.076786  -0.11791  0  3.916968  0
C  C51  1  0.73082504  0.14215530  0.08082027  1  0  -0.083675  0  3.688322  0  0  -0.117555  0  3.930846  0  0  -0.116437  0  3.951175  0  0  -0.076819  -0.118004  0  3.917029  0
N  N52  1  0.84998895  0.50494934  0.27141940  1  0  -0.36543  0  3.231158  0  0  -0.291419  0  3.539454  0  0  -0.311434  0  3.548973  0  0  -0.246085  -0.277898  0  3.533112  0
N  N53  1  0.15000894  0.99505029  0.77141920  1  0  -0.365428  0  3.231153  0  0  -0.29141  0  3.539439  0  0  -0.311424  0  3.548958  0  0  -0.246074  -0.277889  0  3.533096  0
N  N54  1  0.15001012  0.49505034  0.72858029  1  0  -0.365409  0  3.231116  0  0  -0.291384  0  3.539397  0  0  -0.311399  0  3.548916  0  0  -0.24607  -0.277865  0  3.533058  0
N  N55  1  0.84999013  0.00494939  0.22858049  1  0  -0.365336  0  3.231064  0  0  -0.291315  0  3.53935  0  0  -0.31133  0  3.548869  0  0  -0.246058  -0.277795  0  3.533009  0
N  N56  1  0.96300754  0.49418309  0.19942056  1  0  -0.056808  0  2.966699  0  0  -0.047796  0  3.257768  0  0  -0.04698  0  3.270088  0  0  -0.077451  -0.048244  0  3.24963  0
N  N57  1  0.03699267  0.00581662  0.69942022  1  0  -0.056857  0  2.966816  0  0  -0.047851  0  3.257889  0  0  -0.047036  0  3.27021  0  0  -0.077509  -0.0483  0  3.249753  0
N  N58  1  0.03699329  0.50581563  0.80057971  1  0  -0.056855  0  2.966824  0  0  -0.047855  0  3.257895  0  0  -0.047037  0  3.270215  0  0  -0.077493  -0.048303  0  3.249758  0
N  N59  1  0.96300640  0.99418306  0.30057947  1  0  -0.056896  0  2.966735  0  0  -0.047888  0  3.257808  0  0  -0.047071  0  3.270127  0  0  -0.0775  -0.048338  0  3.249672  0
N  N60  1  0.95023608  0.59920139  0.16046289  1  0  -0.060318  0  2.931907  0  0  -0.057585  0  3.221338  0  0  -0.056156  0  3.232823  0  0  -0.08737  -0.05841  0  3.213496  0
N  N61  1  0.04976402  0.90079911  0.66046324  1  0  -0.060282  0  2.932005  0  0  -0.057547  0  3.221438  0  0  -0.056116  0  3.232922  0  0  -0.087337  -0.058374  0  3.213599  0
N  N62  1  0.04976531  0.40079925  0.83953680  1  0  -0.060245  0  2.931985  0  0  -0.057505  0  3.221414  0  0  -0.056076  0  3.232899  0  0  -0.087322  -0.058331  0  3.213572  0
N  N63  1  0.95023710  0.09920057  0.33953703  1  0  -0.060298  0  2.931936  0  0  -0.057561  0  3.221366  0  0  -0.056133  0  3.232852  0  0  -0.087358  -0.058387  0  3.213526  0
N  N64  1  0.82924453  0.68133613  0.20650305  1  0  -0.358802  0  3.204736  0  0  -0.285102  0  3.512261  0  0  -0.304891  0  3.52184  0  0  -0.243458  -0.271409  0  3.505464  0
N  N65  1  0.17075505  0.81866248  0.70650281  1  0  -0.358815  0  3.204762  0  0  -0.285119  0  3.51229  0  0  -0.304911  0  3.521875  0  0  -0.243467  -0.271428  0  3.505497  0
N  N66  1  0.17075658  0.31866355  0.79349664  1  0  -0.358827  0  3.204753  0  0  -0.285131  0  3.512279  0  0  -0.304925  0  3.521866  0  0  -0.24347  -0.271439  0  3.505483  0
N  N67  1  0.82924374  0.18133624  0.29349688  1  0  -0.358796  0  3.204714  0  0  -0.2851  0  3.512241  0  0  -0.304892  0  3.521826  0  0  -0.243462  -0.27141  0  3.505449  0
O  O68  1  0.59656623  0.66261022  0.62749781  1  0  -0.652061  0  2.10905  0  0  -0.585321  0  2.405118  0  0  -0.612492  0  2.38698  0  0  -0.322062  -0.566328  0  2.417032  0
O  O69  1  0.40343384  0.83739026  0.12749749  1  0  -0.65211  0  2.109112  0  0  -0.58536  0  2.405144  0  0  -0.612532  0  2.387004  0  0  -0.322061  -0.566367  0  2.417058  0
O  O70  1  0.40343284  0.33738946  0.37250246  1  0  -0.652111  0  2.109077  0  0  -0.585354  0  2.405098  0  0  -0.612527  0  2.386959  0  0  -0.322066  -0.566361  0  2.417011  0
O  O71  1  0.59656756  0.16261039  0.87250279  1  0  -0.652064  0  2.109031  0  0  -0.585325  0  2.405067  0  0  -0.612494  0  2.386929  0  0  -0.322046  -0.566332  0  2.416979  0
O  O72  1  0.97895323  0.63015616  0.56373740  1  0  -0.622097  0  2.10376  0  0  -0.541955  0  2.379097  0  0  -0.57086  0  2.36454  0  0  -0.308176  -0.521889  0  2.38841  0
O  O73  1  0.02104648  0.86984330  0.06373706  1  0  -0.621965  0  2.103606  0  0  -0.541977  0  2.379083  0  0  -0.57087  0  2.364489  0  0  -0.308165  -0.52191  0  2.388394  0
O  O74  1  0.02104817  0.36984448  0.43626229  1  0  -0.622025  0  2.103569  0  0  -0.542029  0  2.379045  0  0  -0.57092  0  2.364455  0  0  -0.308235  -0.521964  0  2.38836  0
O  O75  1  0.97895230  0.13015542  0.93626263  1  0  -0.622005  0  2.103633  0  0  -0.541981  0  2.379053  0  0  -0.570885  0  2.364493  0  0  -0.308194  -0.521915  0  2.388366  0
