# generated using pymatgen
data_AgH10C12N5O2
_symmetry_space_group_name_H-M   'P 1'
_cell_length_a   10.55077774
_cell_length_b   10.55076658
_cell_length_c   12.05292633
_cell_angle_alpha   76.73293971
_cell_angle_beta   76.73298153
_cell_angle_gamma   77.96320136
_symmetry_Int_Tables_number   1
_chemical_formula_structural   AgH10C12N5O2
_chemical_formula_sum   'Ag4 H40 C48 N20 O8'
_cell_volume   1253.73095236
_cell_formula_units_Z   4
loop_
 _symmetry_equiv_pos_site_id
 _symmetry_equiv_pos_as_xyz
  1  'x, y, z'
loop_
 _atom_site_type_symbol
 _atom_site_label
 _atom_site_symmetry_multiplicity
 _atom_site_fract_x
 _atom_site_fract_y
 _atom_site_fract_z
 _atom_site_occupancy
 _atom_site_hle17_bader_spin_density
 _atom_site_hle17_ddec_charge
 _atom_site_hle17_ddec_spin_density
 _atom_site_hle17_ddec_sum_bond_order
 _atom_site_hle17_magmom
 _atom_site_hse06_10hf_bader_spin_density
 _atom_site_hse06_10hf_ddec_charge
 _atom_site_hse06_10hf_ddec_spin_density
 _atom_site_hse06_10hf_ddec_sum_bond_order
 _atom_site_hse06_10hf_magmom
 _atom_site_hse06_bader_spin_density
 _atom_site_hse06_ddec_charge
 _atom_site_hse06_ddec_spin_density
 _atom_site_hse06_ddec_sum_bond_order
 _atom_site_hse06_magmom
 _atom_site_pbe_bader_spin_density
 _atom_site_pbe_cm5_charge
 _atom_site_pbe_ddec_charge
 _atom_site_pbe_ddec_spin_density
 _atom_site_pbe_ddec_sum_bond_order
 _atom_site_pbe_magmom
Ag  Ag0  1  0.27579823  0.21603835  0.73030824  1  0  0.525632  0  1.433006  0  0  0.367133  0  1.881532  0  0  0.396662  0  1.839096  0  0  0.463719  0.346993  0  1.910814  0
Ag  Ag1  1  0.78396067  0.72420307  0.76969126  1  0  0.525614  0  1.433078  0  0  0.367134  0  1.88157  0  0  0.396662  0  1.839135  0  0  0.463613  0.346837  0  1.910894  0
Ag  Ag2  1  0.72420323  0.78396152  0.26969130  1  0  0.525629  0  1.433041  0  0  0.367123  0  1.881557  0  0  0.396654  0  1.839123  0  0  0.463739  0.34699  0  1.910876  0
Ag  Ag3  1  0.21603965  0.27579779  0.23030831  1  0  0.525663  0  1.432962  0  0  0.367165  0  1.881498  0  0  0.396693  0  1.839067  0  0  0.463334  0.346462  0  1.91096  0
H  H4  1  0.20016541  0.52096348  0.33112297  1  0  0.314646  0  0.943119  0  0  0.291881  0  1.010297  0  0  0.302355  0  1.001032  0  0  0.298229  0.284486  0  1.016954  0
H  H5  1  0.47903706  0.79983509  0.16887598  1  0  0.314677  0  0.943069  0  0  0.291914  0  1.010245  0  0  0.302387  0  1.000978  0  0  0.298235  0.28449  0  1.016949  0
H  H6  1  0.79983604  0.47903639  0.66887657  1  0  0.314657  0  0.943086  0  0  0.291879  0  1.010284  0  0  0.302354  0  1.001018  0  0  0.298212  0.284472  0  1.016963  0
H  H7  1  0.52096472  0.20016280  0.83112471  1  0  0.314643  0  0.943065  0  0  0.291872  0  1.010262  0  0  0.302346  0  1.000997  0  0  0.298203  0.284442  0  1.016975  0
H  H8  1  0.00972744  0.26716319  0.67869520  1  0  0.311158  0  0.947167  0  0  0.288667  0  1.013589  0  0  0.299317  0  1.004324  0  0  0.297278  0.28115  0  1.020239  0
H  H9  1  0.73283986  0.99027237  0.82130289  1  0  0.311124  0  0.947252  0  0  0.288643  0  1.013666  0  0  0.299295  0  1.004397  0  0  0.297272  0.281139  0  1.020282  0
H  H10  1  0.99027270  0.73283865  0.32130254  1  0  0.311165  0  0.947172  0  0  0.288682  0  1.013585  0  0  0.299334  0  1.004318  0  0  0.297275  0.281185  0  1.020218  0
H  H11  1  0.26716371  0.00972652  0.17869559  1  0  0.311215  0  0.947111  0  0  0.288731  0  1.013519  0  0  0.299379  0  1.00425  0  0  0.297307  0.281231  0  1.020128  0
H  H12  1  0.35661987  0.63487029  0.39182560  1  0  0.117048  0  0.988886  0  0  0.12612  0  1.049126  0  0  0.129344  0  1.047401  0  0  0.1177  0.123704  0  1.050461  0
H  H13  1  0.36513067  0.64338012  0.10817421  1  0  0.117059  0  0.988926  0  0  0.126132  0  1.049158  0  0  0.129356  0  1.047434  0  0  0.117709  0.123709  0  1.050489  0
H  H14  1  0.64338044  0.36513056  0.60817396  1  0  0.117057  0  0.988882  0  0  0.126129  0  1.049119  0  0  0.129352  0  1.047397  0  0  0.11768  0.123678  0  1.050463  0
H  H15  1  0.63486965  0.35662074  0.89182536  1  0  0.117044  0  0.988907  0  0  0.126119  0  1.049137  0  0  0.129342  0  1.047415  0  0  0.117679  0.123671  0  1.050515  0
H  H16  1  0.38827035  0.49998750  0.61294611  1  0  0.093114  0  0.967722  0  0  0.104782  0  1.027417  0  0  0.106672  0  1.02727  0  0  0.113462  0.103483  0  1.02758  0
H  H17  1  0.50001299  0.61172955  0.88705334  1  0  0.093176  0  0.967695  0  0  0.104817  0  1.02741  0  0  0.106706  0  1.027262  0  0  0.113472  0.103507  0  1.027582  0
H  H18  1  0.61172997  0.50001335  0.38705346  1  0  0.093144  0  0.96773  0  0  0.104818  0  1.027411  0  0  0.106707  0  1.027264  0  0  0.113453  0.103481  0  1.027604  0
H  H19  1  0.49998635  0.38827130  0.11294643  1  0  0.093112  0  0.967752  0  0  0.104785  0  1.027439  0  0  0.106673  0  1.027293  0  0  0.113441  0.103451  0  1.027626  0
H  H20  1  0.88691535  0.11521218  0.61774910  1  0  0.116161  0  0.983562  0  0  0.126918  0  1.039932  0  0  0.129861  0  1.03863  0  0  0.118929  0.124641  0  1.041089  0
H  H21  1  0.88478537  0.11308696  0.88225063  1  0  0.116189  0  0.983559  0  0  0.126941  0  1.039928  0  0  0.129885  0  1.038625  0  0  0.11898  0.124708  0  1.041049  0
H  H22  1  0.11308463  0.88479065  0.38225097  1  0  0.116106  0  0.983562  0  0  0.126855  0  1.039946  0  0  0.129799  0  1.038643  0  0  0.118918  0.124605  0  1.041077  0
H  H23  1  0.11521185  0.88691487  0.11774936  1  0  0.116137  0  0.98358  0  0  0.126891  0  1.039954  0  0  0.129835  0  1.03865  0  0  0.118921  0.124627  0  1.041104  0
H  H24  1  0.96939839  0.13926202  0.37909783  1  0  0.104075  0  0.946517  0  0  0.114227  0  1.005364  0  0  0.116797  0  1.004485  0  0  0.117327  0.112408  0  1.006065  0
H  H25  1  0.86073752  0.03060243  0.12090315  1  0  0.104066  0  0.946481  0  0  0.114223  0  1.005325  0  0  0.116793  0  1.004444  0  0  0.117334  0.112441  0  1.006001  0
H  H26  1  0.03059997  0.86073883  0.62090296  1  0  0.104064  0  0.946525  0  0  0.114215  0  1.005381  0  0  0.116783  0  1.004502  0  0  0.117341  0.112433  0  1.00605  0
H  H27  1  0.13926085  0.96939841  0.87909764  1  0  0.104047  0  0.946517  0  0  0.114195  0  1.005378  0  0  0.116765  0  1.004497  0  0  0.117325  0.112391  0  1.006087  0
H  H28  1  0.25129064  0.08288063  0.49152515  1  0  0.073507  0  0.986372  0  0  0.07581  0  1.062561  0  0  0.078079  0  1.060985  0  0  0.107527  0.074154  0  1.063744  0
H  H29  1  0.91711996  0.74871056  0.00847624  1  0  0.073467  0  0.986369  0  0  0.07576  0  1.062574  0  0  0.07803  0  1.060998  0  0  0.107504  0.074082  0  1.063789  0
H  H30  1  0.74871033  0.91711628  0.50847424  1  0  0.073403  0  0.986459  0  0  0.075722  0  1.062623  0  0  0.077989  0  1.061052  0  0  0.107499  0.074054  0  1.063846  0
H  H31  1  0.08287938  0.25129029  0.99152685  1  0  0.073498  0  0.98643  0  0  0.07581  0  1.062587  0  0  0.078078  0  1.061015  0  0  0.107541  0.074153  0  1.063792  0
H  H32  1  0.50973453  0.71049721  0.49386412  1  0  0.088944  0  0.994199  0  0  0.097311  0  1.061619  0  0  0.099712  0  1.060386  0  0  0.100885  0.095377  0  1.062952  0
H  H33  1  0.28949998  0.49026712  0.00613529  1  0  0.088928  0  0.994252  0  0  0.097298  0  1.061664  0  0  0.099698  0  1.060432  0  0  0.100893  0.095379  0  1.062969  0
H  H34  1  0.49026839  0.28949970  0.50613654  1  0  0.088904  0  0.994278  0  0  0.097297  0  1.061671  0  0  0.099697  0  1.060439  0  0  0.100902  0.095357  0  1.062999  0
H  H35  1  0.71049433  0.50973470  0.99386363  1  0  0.088941  0  0.994203  0  0  0.097322  0  1.061604  0  0  0.099723  0  1.06037  0  0  0.100885  0.095382  0  1.062928  0
H  H36  1  0.52796446  0.71257072  0.69808477  1  0  0.091382  0  0.971981  0  0  0.097586  0  1.043322  0  0  0.101771  0  1.040209  0  0  0.097101  0.094533  0  1.045801  0
H  H37  1  0.28742394  0.47203412  0.80191859  1  0  0.091371  0  0.971957  0  0  0.097573  0  1.043317  0  0  0.101753  0  1.04021  0  0  0.097079  0.094504  0  1.045809  0
H  H38  1  0.47203846  0.28742619  0.30191755  1  0  0.091373  0  0.972016  0  0  0.097586  0  1.04335  0  0  0.101774  0  1.040233  0  0  0.097118  0.094546  0  1.045803  0
H  H39  1  0.71256859  0.52796671  0.19808255  1  0  0.091372  0  0.971983  0  0  0.097571  0  1.043326  0  0  0.101757  0  1.040217  0  0  0.097081  0.094509  0  1.045826  0
H  H40  1  0.40361462  0.90427261  0.78857896  1  0  0.074402  0  0.957069  0  0  0.077956  0  1.02759  0  0  0.080542  0  1.026043  0  0  0.106301  0.076062  0  1.02869  0
H  H41  1  0.09572424  0.59638320  0.71142238  1  0  0.074364  0  0.957094  0  0  0.077919  0  1.027614  0  0  0.080513  0  1.026043  0  0  0.10629  0.075994  0  1.028733  0
H  H42  1  0.59638424  0.09572528  0.21142232  1  0  0.074364  0  0.957133  0  0  0.07792  0  1.027643  0  0  0.080506  0  1.026095  0  0  0.106322  0.076024  0  1.028731  0
H  H43  1  0.90427038  0.40362257  0.28857651  1  0  0.074392  0  0.957049  0  0  0.077951  0  1.027575  0  0  0.080556  0  1.025972  0  0  0.106329  0.076078  0  1.028681  0
C  C44  1  0.19393291  0.39145201  0.50070222  1  0  0.256352  0  3.777985  0  0  0.228852  0  4.038601  0  0  0.240943  0  4.053925  0  0  0.210682  0.220909  0  4.028384  0
C  C45  1  0.60854957  0.80606834  0.99929671  1  0  0.256429  0  3.777933  0  0  0.228927  0  4.038548  0  0  0.241019  0  4.053872  0  0  0.210694  0.220935  0  4.028373  0
C  C46  1  0.80606837  0.60854884  0.49929715  1  0  0.256368  0  3.778001  0  0  0.228891  0  4.038582  0  0  0.240979  0  4.053915  0  0  0.210653  0.220891  0  4.02842  0
C  C47  1  0.39145074  0.19393251  0.00070202  1  0  0.256382  0  3.777987  0  0  0.228931  0  4.038557  0  0  0.241022  0  4.053885  0  0  0.210674  0.220905  0  4.028398  0
C  C48  1  0.31456997  0.55098429  0.44707201  1  0  -0.006921  0  3.688223  0  0  -0.042976  0  3.943901  0  0  -0.041534  0  3.963589  0  0  0.000109  -0.043011  0  3.929755  0
C  C49  1  0.44901545  0.68542885  0.05292828  1  0  -0.006955  0  3.688222  0  0  -0.043004  0  3.94389  0  0  -0.041562  0  3.963576  0  0  7e-05  -0.043029  0  3.929692  0
C  C50  1  0.68542953  0.44901557  0.55292708  1  0  -0.006953  0  3.688255  0  0  -0.043015  0  3.943919  0  0  -0.041574  0  3.96361  0  0  2.5e-05  -0.043075  0  3.929752  0
C  C51  1  0.55098406  0.31457102  0.94707165  1  0  -0.006917  0  3.68828  0  0  -0.042966  0  3.943945  0  0  -0.041524  0  3.963634  0  0  6.9e-05  -0.043049  0  3.929898  0
C  C52  1  0.32816487  0.48405399  0.55726518  1  0  -0.021797  0  3.783004  0  0  -0.051251  0  4.045615  0  0  -0.05089  0  4.067458  0  0  -0.008087  -0.051786  0  4.030496  0
C  C53  1  0.51594564  0.67183488  0.94273446  1  0  -0.021855  0  3.783024  0  0  -0.051282  0  4.045633  0  0  -0.050921  0  4.067475  0  0  -0.008092  -0.051808  0  4.030448  0
C  C54  1  0.67183642  0.51594686  0.44273502  1  0  -0.021851  0  3.783051  0  0  -0.051305  0  4.045657  0  0  -0.050946  0  4.067504  0  0  -0.008111  -0.051853  0  4.030503  0
C  C55  1  0.48405467  0.32816597  0.05726428  1  0  -0.021848  0  3.783097  0  0  -0.051307  0  4.045712  0  0  -0.050945  0  4.067555  0  0  -0.008126  -0.051855  0  4.030588  0
C  C56  1  0.10486425  0.30603190  0.49713357  1  0  0.241538  0  3.801716  0  0  0.213325  0  4.067527  0  0  0.224552  0  4.082725  0  0  0.206266  0.205623  0  4.057507  0
C  C57  1  0.69396760  0.89513614  0.00286564  1  0  0.24143  0  3.801805  0  0  0.213223  0  4.0676  0  0  0.224452  0  4.082797  0  0  0.206277  0.20562  0  4.05754  0
C  C58  1  0.89513606  0.69396896  0.50286517  1  0  0.241456  0  3.801846  0  0  0.213213  0  4.067691  0  0  0.224443  0  4.082893  0  0  0.206252  0.205578  0  4.05767  0
C  C59  1  0.30603174  0.10486471  0.99713329  1  0  0.241521  0  3.801747  0  0  0.213243  0  4.067607  0  0  0.224472  0  4.082807  0  0  0.206294  0.205661  0  4.057544  0
C  C60  1  0.95753304  0.17194595  0.55766855  1  0  0.000329  0  3.681448  0  0  -0.035856  0  3.939903  0  0  -0.034554  0  3.959739  0  0  0.003828  -0.03621  0  3.925922  0
C  C61  1  0.82805365  0.04247079  0.94233047  1  0  0.000402  0  3.681415  0  0  -0.03578  0  3.939871  0  0  -0.034473  0  3.959704  0  0  0.00392  -0.03607  0  3.925794  0
C  C62  1  0.04246630  0.82805490  0.44233122  1  0  0.000459  0  3.681346  0  0  -0.035709  0  3.9398  0  0  -0.034403  0  3.959635  0  0  0.003956  -0.035997  0  3.925754  0
C  C63  1  0.17194616  0.95753302  0.05766860  1  0  0.000392  0  3.681469  0  0  -0.03581  0  3.93993  0  0  -0.034506  0  3.959762  0  0  0.00387  -0.036139  0  3.92593  0
C  C64  1  0.99852418  0.18499032  0.43908621  1  0  -0.008075  0  3.747258  0  0  -0.041692  0  4.016355  0  0  -0.040976  0  4.037466  0  0  -0.003357  -0.042045  0  4.001511  0
C  C65  1  0.81500858  0.00147709  0.06091149  1  0  -0.008139  0  3.747305  0  0  -0.041765  0  4.016414  0  0  -0.041047  0  4.037518  0  0  -0.003326  -0.042084  0  4.001554  0
C  C66  1  0.00147516  0.81501053  0.56091355  1  0  -0.008068  0  3.747238  0  0  -0.041693  0  4.016335  0  0  -0.040975  0  4.037442  0  0  -0.003331  -0.042033  0  4.00149  0
C  C67  1  0.18498979  0.99852376  0.93908764  1  0  -0.008011  0  3.747238  0  0  -0.041625  0  4.016335  0  0  -0.040906  0  4.037442  0  0  -0.003301  -0.041984  0  4.001573  0
C  C68  1  0.31156949  0.99885717  0.53646296  1  0  0.120432  0  3.694763  0  0  0.087276  0  3.942093  0  0  0.095325  0  3.960328  0  0  0.046444  0.081968  0  3.930046  0
C  C69  1  0.00113884  0.68842981  0.96353822  1  0  0.120502  0  3.694739  0  0  0.087368  0  3.942042  0  0  0.095418  0  3.960273  0  0  0.046472  0.082062  0  3.930032  0
C  C70  1  0.68843410  0.00113579  0.46353671  1  0  0.120462  0  3.694705  0  0  0.087296  0  3.942048  0  0  0.095346  0  3.960277  0  0  0.046447  0.081982  0  3.930071  0
C  C71  1  0.99885547  0.31157201  0.03646485  1  0  0.120348  0  3.694919  0  0  0.087212  0  3.942246  0  0  0.09526  0  3.960483  0  0  0.046371  0.081882  0  3.930217  0
C  C72  1  0.37750262  0.89608877  0.47838332  1  0  -0.123408  0  3.747805  0  0  -0.093416  0  3.974231  0  0  -0.107055  0  4.000139  0  0  -0.018777  -0.084928  0  3.957628  0
C  C73  1  0.10390850  0.62249592  0.02161996  1  0  -0.123495  0  3.747753  0  0  -0.093522  0  3.974197  0  0  -0.107161  0  4.000101  0  0  -0.01879  -0.085055  0  3.957603  0
C  C74  1  0.62249916  0.10390912  0.52161738  1  0  -0.12332  0  3.747617  0  0  -0.093331  0  3.974066  0  0  -0.106967  0  3.999966  0  0  -0.018704  -0.084846  0  3.9575  0
C  C75  1  0.89608792  0.37750492  0.97838371  1  0  -0.123325  0  3.747657  0  0  -0.093346  0  3.974091  0  0  -0.106987  0  4.000004  0  0  -0.01876  -0.08487  0  3.957516  0
C  C76  1  0.45588928  0.79062311  0.53763121  1  0  -0.016625  0  3.722446  0  0  -0.044678  0  3.963009  0  0  -0.03978  0  3.983102  0  0  -0.069956  -0.047751  0  3.949896  0
C  C77  1  0.20937571  0.54410944  0.96237042  1  0  -0.016575  0  3.722298  0  0  -0.044626  0  3.962873  0  0  -0.039726  0  3.982961  0  0  -0.069937  -0.047681  0  3.949717  0
C  C78  1  0.54411511  0.20937084  0.46237058  1  0  -0.016637  0  3.722476  0  0  -0.044708  0  3.963047  0  0  -0.039812  0  3.983142  0  0  -0.069982  -0.04775  0  3.949895  0
C  C79  1  0.79062185  0.45589042  0.03763156  1  0  -0.016695  0  3.722567  0  0  -0.044772  0  3.963133  0  0  -0.039875  0  3.98323  0  0  -0.069994  -0.047864  0  3.950008  0
C  C80  1  0.46538461  0.79182659  0.65052324  1  0  -0.138018  0  3.759351  0  0  -0.146138  0  4.010663  0  0  -0.154968  0  4.032446  0  0  -0.094973  -0.140443  0  3.996092  0
C  C81  1  0.20817252  0.53461433  0.84947663  1  0  -0.137956  0  3.75913  0  0  -0.14608  0  4.010434  0  0  -0.154908  0  4.032219  0  0  -0.094923  -0.140396  0  3.995876  0
C  C82  1  0.53461554  0.20817525  0.34947782  1  0  -0.13796  0  3.75918  0  0  -0.14609  0  4.010486  0  0  -0.154922  0  4.032273  0  0  -0.094942  -0.140401  0  3.995823  0
C  C83  1  0.79181968  0.46538848  0.15052002  1  0  -0.137921  0  3.759316  0  0  -0.146024  0  4.010582  0  0  -0.15486  0  4.032373  0  0  -0.094934  -0.140348  0  3.996016  0
C  C84  1  0.39671009  0.89893638  0.70088675  1  0  0.130391  0  3.718031  0  0  0.102789  0  3.969527  0  0  0.110278  0  3.986942  0  0  0.043615  0.098211  0  3.957393  0
C  C85  1  0.10105966  0.60328993  0.79911514  1  0  0.130401  0  3.718011  0  0  0.102802  0  3.969496  0  0  0.110293  0  3.986916  0  0  0.043533  0.0982  0  3.957384  0
C  C86  1  0.60329122  0.10105855  0.29911381  1  0  0.130388  0  3.718028  0  0  0.102796  0  3.969503  0  0  0.110286  0  3.986918  0  0  0.043517  0.098222  0  3.957294  0
C  C87  1  0.89893740  0.39671289  0.20088551  1  0  0.130471  0  3.718025  0  0  0.102868  0  3.969464  0  0  0.110362  0  3.986887  0  0  0.043636  0.098267  0  3.957303  0
C  C88  1  0.36737866  0.90016611  0.35506991  1  0  0.654043  0  3.915643  0  0  0.600814  0  4.218382  0  0  0.635072  0  4.210499  0  0  0.208883  0.577465  0  4.223282  0
C  C89  1  0.09983187  0.63262100  0.14493051  1  0  0.653991  0  3.915844  0  0  0.600764  0  4.218562  0  0  0.635022  0  4.210685  0  0  0.208745  0.577443  0  4.223454  0
C  C90  1  0.63262849  0.09982884  0.64493030  1  0  0.653973  0  3.915575  0  0  0.600745  0  4.218312  0  0  0.635003  0  4.210432  0  0  0.20883  0.577409  0  4.223203  0
C  C91  1  0.90016747  0.36737985  0.85506676  1  0  0.653961  0  3.915729  0  0  0.600733  0  4.218459  0  0  0.634993  0  4.210581  0  0  0.208785  0.577401  0  4.223354  0
N  N92  1  0.25328958  0.38409281  0.59034584  1  0  -0.388294  0  3.290647  0  0  -0.308663  0  3.584079  0  0  -0.32756  0  3.597455  0  0  -0.372484  -0.295559  0  3.574728  0
N  N93  1  0.61590698  0.74671045  0.90965372  1  0  -0.388319  0  3.290692  0  0  -0.308688  0  3.584114  0  0  -0.327587  0  3.597493  0  0  -0.372539  -0.295611  0  3.574773  0
N  N94  1  0.74671090  0.61590705  0.40965473  1  0  -0.388279  0  3.290639  0  0  -0.308651  0  3.584055  0  0  -0.327549  0  3.597438  0  0  -0.372583  -0.295631  0  3.574753  0
N  N95  1  0.38409253  0.25328941  0.09034538  1  0  -0.388281  0  3.290615  0  0  -0.308657  0  3.58403  0  0  -0.327556  0  3.597409  0  0  -0.372573  -0.29557  0  3.574686  0
N  N96  1  0.22980352  0.49162342  0.41298100  1  0  -0.305689  0  3.415487  0  0  -0.240152  0  3.642374  0  0  -0.256098  0  3.656383  0  0  -0.367275  -0.229587  0  3.632964  0
N  N97  1  0.50837701  0.77019732  0.08701875  1  0  -0.305699  0  3.415381  0  0  -0.24017  0  3.642281  0  0  -0.256116  0  3.656288  0  0  -0.367287  -0.229626  0  3.632931  0
N  N98  1  0.77019777  0.50837744  0.58701754  1  0  -0.305669  0  3.41543  0  0  -0.240108  0  3.642282  0  0  -0.256055  0  3.656294  0  0  -0.367243  -0.229585  0  3.632934  0
N  N99  1  0.49162233  0.22980353  0.91298184  1  0  -0.305649  0  3.415426  0  0  -0.240125  0  3.642295  0  0  -0.256072  0  3.656307  0  0  -0.367301  -0.229629  0  3.633044  0
N  N100  1  0.09067331  0.26861668  0.40168333  1  0  -0.383677  0  3.284829  0  0  -0.30634  0  3.579972  0  0  -0.324452  0  3.592569  0  0  -0.369442  -0.29378  0  3.571078  0
N  N101  1  0.73138317  0.90932770  0.09831569  1  0  -0.383606  0  3.2848  0  0  -0.306254  0  3.579917  0  0  -0.324362  0  3.59251  0  0  -0.369348  -0.293719  0  3.571054  0
N  N102  1  0.90932684  0.73138516  0.59831608  1  0  -0.383644  0  3.284844  0  0  -0.306292  0  3.579989  0  0  -0.324398  0  3.592573  0  0  -0.369333  -0.293709  0  3.571098  0
N  N103  1  0.26861519  0.09067315  0.90168344  1  0  -0.383658  0  3.284861  0  0  -0.306305  0  3.580016  0  0  -0.324409  0  3.592598  0  0  -0.369457  -0.293842  0  3.571193  0
N  N104  1  0.02499360  0.24889002  0.59272329  1  0  -0.311325  0  3.423604  0  0  -0.246645  0  3.654653  0  0  -0.262384  0  3.668363  0  0  -0.372396  -0.23612  0  3.645506  0
N  N105  1  0.75110911  0.97500878  0.90727590  1  0  -0.311315  0  3.423593  0  0  -0.246635  0  3.65463  0  0  -0.262384  0  3.668349  0  0  -0.372407  -0.2361  0  3.64539  0
N  N106  1  0.97500638  0.75111281  0.40727760  1  0  -0.311341  0  3.42367  0  0  -0.246679  0  3.654749  0  0  -0.262426  0  3.668467  0  0  -0.372328  -0.236067  0  3.645508  0
N  N107  1  0.24888926  0.02499207  0.09272323  1  0  -0.31143  0  3.423572  0  0  -0.246713  0  3.654601  0  0  -0.262453  0  3.668312  0  0  -0.372429  -0.236188  0  3.645373  0
N  N108  1  0.32056403  0.00128712  0.64537530  1  0  -0.331441  0  3.17698  0  0  -0.270793  0  3.456901  0  0  -0.286162  0  3.470132  0  0  -0.329382  -0.260437  0  3.447873  0
N  N109  1  0.99870963  0.67943530  0.85462676  1  0  -0.33144  0  3.177072  0  0  -0.270808  0  3.457002  0  0  -0.286178  0  3.470234  0  0  -0.329396  -0.260452  0  3.447976  0
N  N110  1  0.67943403  0.99870977  0.35462634  1  0  -0.331404  0  3.177074  0  0  -0.27076  0  3.457008  0  0  -0.286129  0  3.470238  0  0  -0.329334  -0.260385  0  3.447981  0
N  N111  1  0.00128532  0.32056850  0.14537413  1  0  -0.331529  0  3.177315  0  0  -0.270912  0  3.457267  0  0  -0.286283  0  3.470498  0  0  -0.329409  -0.26047  0  3.448166  0
O  O112  1  0.44358036  0.81098087  0.30422333  1  0  -0.64621  0  2.01545  0  0  -0.591917  0  2.261363  0  0  -0.615875  0  2.247935  0  0  -0.329974  -0.575119  0  2.270292  0
O  O113  1  0.18901904  0.55642158  0.19577628  1  0  -0.646166  0  2.015487  0  0  -0.591887  0  2.261408  0  0  -0.615837  0  2.247977  0  0  -0.329917  -0.575074  0  2.27032  0
O  O114  1  0.55642792  0.18901309  0.69577685  1  0  -0.646207  0  2.015316  0  0  -0.591923  0  2.261253  0  0  -0.615873  0  2.247807  0  0  -0.329888  -0.575069  0  2.270135  0
O  O115  1  0.81098127  0.44357927  0.80422495  1  0  -0.646157  0  2.015519  0  0  -0.59188  0  2.261451  0  0  -0.615828  0  2.248005  0  0  -0.329887  -0.575018  0  2.270326  0
O  O116  1  0.28280072  0.99031420  0.31081926  1  0  -0.631725  0  2.021211  0  0  -0.580991  0  2.266793  0  0  -0.605068  0  2.255323  0  0  -0.322079  -0.564242  0  2.274463  0
O  O117  1  0.00968423  0.71719884  0.18918271  1  0  -0.631684  0  2.021287  0  0  -0.580919  0  2.266837  0  0  -0.605001  0  2.255365  0  0  -0.322065  -0.564295  0  2.274573  0
O  O118  1  0.71721388  0.00968275  0.68917739  1  0  -0.631634  0  2.021197  0  0  -0.580912  0  2.266782  0  0  -0.604987  0  2.255301  0  0  -0.322095  -0.564186  0  2.274456  0
O  O119  1  0.99031625  0.28280103  0.81081951  1  0  -0.631657  0  2.021256  0  0  -0.580909  0  2.266826  0  0  -0.604986  0  2.255351  0  0  -0.322009  -0.564203  0  2.274513  0
