# generated using pymatgen
data_AlH12C24(SO5)3
_symmetry_space_group_name_H-M   'P 1'
_cell_length_a   4.31254813
_cell_length_b   28.77110833
_cell_length_c   28.77121380
_cell_angle_alpha   119.99699870
_cell_angle_beta   89.99740004
_cell_angle_gamma   90.00074580
_symmetry_Int_Tables_number   1
_chemical_formula_structural   AlH12C24(SO5)3
_chemical_formula_sum   'Al2 H24 C48 S6 O30'
_cell_volume   3091.66547565
_cell_formula_units_Z   2
loop_
 _symmetry_equiv_pos_site_id
 _symmetry_equiv_pos_as_xyz
  1  'x, y, z'
loop_
 _atom_site_type_symbol
 _atom_site_label
 _atom_site_symmetry_multiplicity
 _atom_site_fract_x
 _atom_site_fract_y
 _atom_site_fract_z
 _atom_site_occupancy
 _atom_site_pbe_bader_charge
 _atom_site_pbe_bader_spin_density
 _atom_site_pbe_cm5_charge
 _atom_site_pbe_ddec_charge
 _atom_site_pbe_ddec_spin_density
 _atom_site_pbe_ddec_sum_bond_order
 _atom_site_pbe_magmom
Al  Al0  1  0.96420651  0.49999956  0.49999833  1  2.521121  0  0.462943  1.6615  0  2.46413  0
Al  Al1  1  0.96387022  0.16665881  0.83334567  1  2.521115  0  0.462265  1.661313  0  2.464745  0
H  H2  1  0.50372483  0.17049112  0.69539692  1  0.079654  0  0.117442  0.130925  0  0.972626  0
H  H3  1  0.56705485  0.21562765  0.64134150  1  0.089163  0  0.11782  0.121555  0  0.971436  0
H  H4  1  0.53313617  0.36994335  0.78653595  1  0.080587  0  0.122432  0.137916  0  0.972795  0
H  H5  1  0.53306032  0.29670422  0.54680218  1  0.081272  0  0.122481  0.137751  0  0.973104  0
H  H6  1  0.50425550  0.49615596  0.63794129  1  0.080365  0  0.117292  0.130935  0  0.972454  0
H  H7  1  0.56735653  0.45101988  0.69200120  1  0.088859  0  0.117798  0.121567  0  0.971484  0
H  H8  1  0.50370051  0.02488290  0.82949451  1  0.14721  0  0.117328  0.130793  0  0.97269  0
H  H9  1  0.56705243  0.92569279  0.78435999  1  0.097545  0  0.117816  0.121549  0  0.971438  0
H  H10  1  0.53307232  0.91659094  0.63004798  1  0.125898  0  0.122463  0.137915  0  0.972946  0
H  H11  1  0.53302848  0.75008558  0.70328134  1  0.126168  0  0.122424  0.137717  0  0.973042  0
H  H12  1  0.50424041  0.64178294  0.50382634  1  0.146672  0  0.117258  0.130978  0  0.972422  0
H  H13  1  0.56740239  0.74097736  0.54896355  1  0.097256  0  0.117761  0.121513  0  0.971476  0
H  H14  1  0.50374393  0.30458883  0.97508385  1  0.089414  0  0.117331  0.130808  0  0.972816  0
H  H15  1  0.56711220  0.35866927  0.07427558  1  0.093305  0  0.117692  0.121392  0  0.971463  0
H  H16  1  0.53299938  0.21349036  0.08344002  1  0.124491  0  0.122522  0.137803  0  0.973066  0
H  H17  1  0.53311906  0.45321314  0.24991070  1  0.124656  0  0.122386  0.137741  0  0.972934  0
H  H18  1  0.50420394  0.36205770  0.35821528  1  0.086788  0  0.117336  0.130985  0  0.972562  0
H  H19  1  0.56729766  0.30800417  0.25901799  1  0.093303  0  0.117786  0.121465  0  0.971447  0
H  H20  1  0.98035372  0.32236282  0.88428814  1  0.687714  0  0.316094  0.393139  0  0.953491  0
H  H21  1  0.98042293  0.34430693  0.44906796  1  0.68787  0  0.316043  0.393155  0  0.953469  0
H  H22  1  0.98030415  0.06192780  0.67763962  1  0.685321  0  0.316098  0.393138  0  0.953487  0
H  H23  1  0.98042845  0.60475528  0.65568926  1  0.68568  0  0.316061  0.393172  0  0.953429  0
H  H24  1  0.98023224  0.11572587  0.93811346  1  0.683765  0  0.316094  0.393228  0  0.953421  0
H  H25  1  0.98049340  0.55094187  0.39524465  1  0.683425  0  0.316027  0.393162  0  0.953495  0
C  C26  1  0.46721408  0.46817214  0.42007845  1  1.601708  0  0.278005  0.674166  0  4.079725  0
C  C27  1  0.46721732  0.45190358  0.53182740  1  1.632424  0  0.277976  0.674278  0  4.079639  0
C  C28  1  0.46721578  0.57992187  0.54809121  1  1.648283  0  0.277964  0.674128  0  4.079405  0
C  C29  1  0.46687166  0.21475026  0.80151900  1  1.63446  0  0.277771  0.674577  0  4.079217  0
C  C30  1  0.46685929  0.08674740  0.78524532  1  1.648422  0  0.277617  0.674178  0  4.079942  0
C  C31  1  0.46685635  0.19848067  0.91325647  1  1.602849  0  0.277927  0.674684  0  4.079587  0
C  C32  1  0.49736300  0.24434306  0.77122491  1  -0.014105  0  0.002582  -0.026092  0  3.929811  0
C  C33  1  0.51825111  0.21414437  0.71512303  1  0.047368  0  -0.071672  -0.08246  0  3.942415  0
C  C34  1  0.55312943  0.23930353  0.68494174  1  -0.03757  0  -0.066339  -0.104049  0  3.917548  0
C  C35  1  0.56394765  0.29580418  0.71021516  1  0.076151  0  0.00679  0.143676  0  4.107798  0
C  C36  1  0.53887637  0.32630022  0.76652853  1  0.107629  0  -0.065817  -0.117743  0  3.90372  0
C  C37  1  0.50669718  0.30061391  0.79637850  1  -0.194874  0  -0.015017  -0.126936  0  3.974013  0
C  C38  1  0.58154393  0.32190139  0.67970413  1  -0.03532  0  -0.036527  -0.0986  0  4.104904  0
C  C39  1  0.58148858  0.34474660  0.65363936  1  -0.268169  0  -0.03566  -0.097209  0  4.104525  0
C  C40  1  0.56405917  0.37084210  0.62312952  1  0.135915  0  0.006711  0.143161  0  4.108131  0
C  C41  1  0.53887246  0.34034597  0.56681300  1  0.10632  0  -0.065842  -0.117347  0  3.904031  0
C  C42  1  0.50678802  0.36603834  0.53697328  1  -0.194469  0  -0.015325  -0.12712  0  3.975312  0
C  C43  1  0.49756936  0.42230853  0.56212345  1  -0.017468  0  0.002852  -0.026157  0  3.930355  0
C  C44  1  0.51859382  0.45250079  0.61822321  1  0.051927  0  -0.071633  -0.082486  0  3.9426  0
C  C45  1  0.55342139  0.42734027  0.64840414  1  -0.098699  0  -0.066285  -0.10399  0  3.917894  0
C  C46  1  0.49730026  0.02686271  0.75564699  1  0.048176  0  0.002819  -0.025897  0  3.930229  0
C  C47  1  0.51815462  0.00095061  0.78584134  1  -0.096836  0  -0.071742  -0.0825  0  3.94265  0
C  C48  1  0.55307907  0.94561513  0.76068220  1  0.03881  0  -0.066164  -0.103882  0  3.91784  0
C  C49  1  0.56389891  0.91440041  0.70418880  1  0.190631  0  0.006795  0.143594  0  4.107975  0
C  C50  1  0.53883363  0.94021807  0.67368852  1  -0.058351  0  -0.065884  -0.117552  0  3.903512  0
C  C51  1  0.50662845  0.99575077  0.69937193  1  -0.178073  0  -0.015202  -0.127296  0  3.974719  0
C  C52  1  0.58146542  0.85779296  0.67809129  1  0.083072  0  -0.036265  -0.098253  0  4.104848  0
C  C53  1  0.58149459  0.80888330  0.65523989  1  -0.539712  0  -0.035953  -0.098729  0  4.10352  0
C  C54  1  0.56407483  0.75228161  0.62914583  1  0.189966  0  0.006652  0.146448  0  4.102811  0
C  C55  1  0.53889835  0.72645940  0.65963770  1  -0.055721  0  -0.065734  -0.118268  0  3.90261  0
C  C56  1  0.50679121  0.67092635  0.63394731  1  -0.183137  0  -0.015189  -0.127172  0  3.97507  0
C  C57  1  0.49760892  0.63981100  0.57767855  1  0.052736  0  0.002715  -0.026031  0  3.93066  0
C  C58  1  0.51863003  0.66571622  0.54748323  1  -0.097387  0  -0.071425  -0.082569  0  3.943502  0
C  C59  1  0.55345954  0.72105890  0.57264732  1  0.038499  0  -0.066288  -0.104878  0  3.916848  0
C  C60  1  0.49735492  0.22877668  0.97313948  1  -0.051204  0  0.002746  -0.025932  0  3.93023  0
C  C61  1  0.51822508  0.28487896  0.99902670  1  0.107358  0  -0.071692  -0.082486  0  3.942418  0
C  C62  1  0.55311928  0.31506528  0.05436675  1  -0.035341  0  -0.066086  -0.103781  0  3.917452  0
C  C63  1  0.56384028  0.28980025  0.08560111  1  0.146076  0  0.00687  0.143811  0  4.107583  0
C  C64  1  0.53874985  0.23349382  0.05980475  1  -0.00572  0  -0.065905  -0.117346  0  3.90315  0
C  C65  1  0.50662052  0.20362990  0.00426574  1  -0.192769  0  -0.015085  -0.127314  0  3.974628  0
C  C66  1  0.58143516  0.32032104  0.14220440  1  -0.047135  0  -0.036321  -0.098143  0  4.104575  0
C  C67  1  0.58146134  0.34637376  0.19111285  1  -0.253137  0  -0.035969  -0.097882  0  4.104415  0
C  C68  1  0.56406530  0.37688014  0.24772029  1  0.146674  0  0.0067  0.143093  0  4.10816  0
C  C69  1  0.53892556  0.43319434  0.27353902  1  -0.005771  0  -0.065649  -0.117163  0  3.903595  0
C  C70  1  0.50683996  0.46303634  0.32907315  1  -0.192285  0  -0.015307  -0.127271  0  3.974941  0
C  C71  1  0.49762150  0.43787904  0.36019015  1  -0.051137  0  0.002722  -0.026066  0  3.930548  0
C  C72  1  0.51860363  0.38177808  0.33428125  1  0.109458  0  -0.071666  -0.082753  0  3.94276  0
C  C73  1  0.55340452  0.35160196  0.27893595  1  -0.036202  0  -0.066164  -0.10352  0  3.917641  0
S  S74  1  0.42625802  0.34312160  0.86629941  1  3.134805  0  0.558458  1.186511  0  5.978227  0
S  S75  1  0.42630839  0.32353085  0.46705225  1  3.135638  0  0.558692  1.186523  0  5.978008  0
S  S76  1  0.42618542  0.02317199  0.65687100  1  3.135864  0  0.558574  1.186575  0  5.97803  0
S  S77  1  0.42630911  0.64351764  0.67646365  1  3.136674  0  0.5587  1.186375  0  5.977984  0
S  S78  1  0.42610696  0.13371990  0.97687144  1  3.122818  0  0.558168  1.185335  0  5.97946  0
S  S79  1  0.42642467  0.53296213  0.35649374  1  3.120457  0  0.55903  1.187115  0  5.977423  0
O  O80  1  0.69293430  0.55395944  0.55287524  1  -1.254886  0  -0.239592  -0.607017  0  2.355004  0
O  O81  1  0.69293882  0.49891676  0.44603349  1  -1.254538  0  -0.23969  -0.607002  0  2.355117  0
O  O82  1  0.69293983  0.44711583  0.50107879  1  -1.254926  0  -0.239727  -0.607141  0  2.355171  0
O  O83  1  0.22473152  0.56107445  0.51975514  1  -1.249753  0  -0.227058  -0.589692  0  2.373852  0
O  O84  1  0.22473402  0.48023917  0.54131324  1  -1.246161  0  -0.226993  -0.589618  0  2.373956  0
O  O85  1  0.22471149  0.45868342  0.43892302  1  -1.244984  0  -0.226988  -0.589641  0  2.374042  0
O  O86  1  0.69258396  0.16772839  0.88730691  1  -1.255158  0  -0.239627  -0.607563  0  2.355858  0
O  O87  1  0.69259455  0.21955889  0.83227513  1  -1.256838  0  -0.239654  -0.60757  0  2.355346  0
O  O88  1  0.69260008  0.11269818  0.78044712  1  -1.254485  0  -0.239633  -0.607448  0  2.35567  0
O  O89  1  0.22442754  0.20797165  0.89439671  1  -1.245726  0  -0.226789  -0.589754  0  2.373451  0
O  O90  1  0.22441215  0.10559450  0.81359171  1  -1.25033  0  -0.226604  -0.589325  0  2.372999  0
O  O91  1  0.22441893  0.18640437  0.79202426  1  -1.246845  0  -0.226625  -0.589451  0  2.373146  0
O  O92  1  0.70188861  0.35115681  0.89895030  1  -1.311501  0  -0.311684  -0.543669  0  2.289887  0
O  O93  1  0.27754888  0.39057886  0.87276680  1  -1.275028  0  -0.302567  -0.512492  0  2.110471  0
O  O94  1  0.20898169  0.30767737  0.87856821  1  -1.290125  0  -0.337986  -0.53348  0  2.305272  0
O  O95  1  0.70196672  0.31550104  0.43439191  1  -1.31127  0  -0.311842  -0.543773  0  2.289067  0
O  O96  1  0.27762491  0.27607429  0.46057518  1  -1.275265  0  -0.302509  -0.512306  0  2.110994  0
O  O97  1  0.20905276  0.35898791  0.45479915  1  -1.290773  0  -0.338021  -0.533571  0  2.305204  0
O  O98  1  0.70182753  0.04779606  0.64883796  1  -1.308277  0  -0.311669  -0.543572  0  2.289368  0
O  O99  1  0.27745448  0.98219273  0.60941573  1  -1.290903  0  -0.302618  -0.512487  0  2.110542  0
O  O100  1  0.20891846  0.07088387  0.69232792  1  -1.29216  0  -0.338008  -0.533548  0  2.305452  0
O  O101  1  0.70196288  0.61889346  0.68449899  1  -1.307943  0  -0.31181  -0.54361  0  2.289129  0
O  O102  1  0.27759579  0.68449630  0.72391675  1  -1.291271  0  -0.302583  -0.512375  0  2.111093  0
O  O103  1  0.20906498  0.59580133  0.64100839  1  -1.292927  0  -0.338033  -0.533591  0  2.304986  0
O  O104  1  0.70174445  0.10105408  0.95226030  1  -1.311367  0  -0.311802  -0.543381  0  2.289025  0
O  O105  1  0.27737712  0.12726329  0.01786271  1  -1.275641  0  -0.302312  -0.511865  0  2.111244  0
O  O106  1  0.20884072  0.12145569  0.92915587  1  -1.287966  0  -0.337921  -0.533352  0  2.305226  0
O  O107  1  0.70206914  0.56560917  0.38111821  1  -1.311635  0  -0.311905  -0.544059  0  2.289665  0
O  O108  1  0.27772093  0.53944805  0.31551741  1  -1.275302  0  -0.302664  -0.512437  0  2.110477  0
O  O109  1  0.20913808  0.54522019  0.40420644  1  -1.285215  0  -0.338108  -0.533681  0  2.304797  0
