# generated using pymatgen
data_ZnH14C21N3O4
_symmetry_space_group_name_H-M   'P 1'
_cell_length_a   15.89255004
_cell_length_b   17.32952322
_cell_length_c   17.91908404
_cell_angle_alpha   90.11649999
_cell_angle_beta   92.70144319
_cell_angle_gamma   95.61382031
_symmetry_Int_Tables_number   1
_chemical_formula_structural   ZnH14C21N3O4
_chemical_formula_sum   'Zn2 H28 C42 N6 O8'
_cell_volume   4905.86331539
_cell_formula_units_Z   2
loop_
 _symmetry_equiv_pos_site_id
 _symmetry_equiv_pos_as_xyz
  1  'x, y, z'
loop_
 _atom_site_type_symbol
 _atom_site_label
 _atom_site_symmetry_multiplicity
 _atom_site_fract_x
 _atom_site_fract_y
 _atom_site_fract_z
 _atom_site_occupancy
 _atom_site_pbe_bader_charge
 _atom_site_pbe_bader_spin_density
 _atom_site_pbe_cm5_charge
 _atom_site_pbe_ddec_charge
 _atom_site_pbe_ddec_spin_density
 _atom_site_pbe_ddec_sum_bond_order
 _atom_site_pbe_magmom
Zn  Zn0  1  0.41244064  0.49632748  0.49621814  1  1.278427  0  0.662014  0.810514  0  2.442732  0
Zn  Zn1  1  0.58755045  0.50368442  0.50377311  1  1.2744  0  0.661989  0.810587  0  2.442725  0
H  H2  1  0.71534127  0.42509019  0.42508631  1  0.127099  0  0.134001  0.111065  0  0.961913  0
H  H3  1  0.87492375  0.42633176  0.42676962  1  0.133244  0  0.119053  0.126366  0  1.000635  0
H  H4  1  0.88873942  0.60067128  0.60041926  1  0.123336  0  0.122716  0.132785  0  0.977074  0
H  H5  1  0.72802019  0.59191376  0.59144298  1  0.141563  0  0.134465  0.110671  0  0.960279  0
H  H6  1  0.11126564  0.39935399  0.39956085  1  0.122288  0  0.122668  0.132693  0  0.977032  0
H  H7  1  0.12507288  0.57370334  0.57320292  1  0.130847  0  0.119001  0.126278  0  1.000738  0
H  H8  1  0.28465640  0.57494260  0.57489575  1  0.125731  0  0.134059  0.111064  0  0.961948  0
H  H9  1  0.27198504  0.40810049  0.40855889  1  0.141647  0  0.1345  0.110744  0  0.960197  0
H  H10  1  0.62131463  0.25847161  0.50479270  1  0.062224  0  0.102487  0.106632  0  1.001322  0
H  H11  1  0.61441186  0.11267061  0.50488873  1  0.096427  0  0.103392  0.103588  0  1.019161  0
H  H12  1  0.34286138  0.09977688  0.49391267  1  0.078804  0  0.105036  0.106267  0  0.998424  0
H  H13  1  0.35016246  0.24611487  0.49382121  1  0.054061  0  0.102857  0.108113  0  1.00052  0
H  H14  1  0.65713157  0.90022055  0.50615620  1  0.078398  0  0.104874  0.106033  0  0.99838  0
H  H15  1  0.38558351  0.88735581  0.49518308  1  0.096198  0  0.103448  0.103685  0  1.019053  0
H  H16  1  0.37866246  0.74155535  0.49525384  1  0.06164  0  0.102467  0.106515  0  1.001231  0
H  H17  1  0.64981255  0.75388078  0.50620620  1  0.054307  0  0.102933  0.108261  0  1.000561  0
H  H18  1  0.36378111  0.49416591  0.73295586  1  0.084091  0  0.101634  0.106548  0  1.004722  0
H  H19  1  0.36469832  0.49406746  0.87276572  1  0.066166  0  0.101947  0.10385  0  0.995554  0
H  H20  1  0.63452169  0.50512807  0.74295892  1  0.091304  0  0.101534  0.109387  0  1.006928  0
H  H21  1  0.36546059  0.49484208  0.25702297  1  0.091074  0  0.101381  0.10924  0  1.0069  0
H  H22  1  0.63619108  0.50564132  0.26704538  1  0.086028  0  0.101902  0.106706  0  1.004871  0
H  H23  1  0.63527915  0.50557977  0.12723819  1  0.065091  0  0.102043  0.103849  0  0.995513  0
H  H24  1  0.69636627  0.45616518  0.88027576  1  0.050887  0  0.094048  0.130172  0  0.990191  0
H  H25  1  0.65351957  0.50587385  0.95440776  1  0.06873  0  0.088845  0.125729  0  1.025594  0
H  H26  1  0.70278881  0.55879051  0.88062438  1  0.053025  0  0.092871  0.127997  0  0.990578  0
H  H27  1  0.29729965  0.44090210  0.11908490  1  0.051233  0  0.09283  0.127684  0  0.99047  0
H  H28  1  0.34648326  0.49434620  0.04558104  1  0.068031  0  0.088667  0.125709  0  1.025492  0
H  H29  1  0.30349806  0.54351899  0.11999944  1  0.050455  0  0.094001  0.129917  0  0.989674  0
C  C30  1  0.49093001  0.34739560  0.49864798  1  1.525188  0  0.212339  0.589977  0  4.173865  0
C  C31  1  0.50023882  0.49947155  0.35349480  1  1.511017  0  0.213894  0.592756  0  4.166196  0
C  C32  1  0.50904515  0.65261397  0.50135938  1  1.525294  0  0.212408  0.589717  0  4.173482  0
C  C33  1  0.49974894  0.50047832  0.64650010  1  1.511207  0  0.213825  0.592476  0  4.166766  0
C  C34  1  0.75688462  0.46272822  0.46277210  1  0.491736  0  0.06638  0.113692  0  3.900064  0
C  C35  1  0.84426492  0.46358468  0.46376636  1  -0.000952  0  -0.069048  -0.181157  0  3.91278  0
C  C36  1  0.89277822  0.51402573  0.51412381  1  0.347692  0  0.105301  0.199308  0  4.029858  0
C  C37  1  0.85177682  0.56130799  0.56114768  1  0.046446  0  -0.064965  -0.180812  0  3.910749  0
C  C38  1  0.76376593  0.55668850  0.55640960  1  0.432958  0  0.068345  0.11392  0  3.89973  0
C  C39  1  0.14822901  0.43871844  0.43883413  1  0.048337  0  -0.064786  -0.180702  0  3.910527  0
C  C40  1  0.10721944  0.48600706  0.48585324  1  0.348124  0  0.105019  0.199296  0  4.029564  0
C  C41  1  0.15572896  0.53644810  0.53620942  1  -4.1e-05  0  -0.068815  -0.180981  0  3.912686  0
C  C42  1  0.24311206  0.53730109  0.53721159  1  0.492909  0  0.066497  0.113749  0  3.899874  0
C  C43  1  0.23623558  0.44333270  0.44357930  1  0.433202  0  0.068364  0.113886  0  3.899878  0
C  C44  1  0.48612853  0.26051476  0.49884178  1  -0.002133  0  -0.012018  -0.021163  0  3.939423  0
C  C45  1  0.56076786  0.22287905  0.50217921  1  0.023143  0  -0.083244  -0.082588  0  3.977372  0
C  C46  1  0.55719496  0.14261865  0.50232197  1  -0.075997  0  -0.084919  -0.141407  0  3.95291  0
C  C47  1  0.47786651  0.09832753  0.49916787  1  0.360182  0  0.086661  0.172025  0  4.04517  0
C  C48  1  0.40324822  0.13568737  0.49612202  1  -0.066401  0  -0.082958  -0.142973  0  3.966681  0
C  C49  1  0.40738805  0.21621315  0.49596094  1  0.048596  0  -0.084482  -0.087922  0  3.984252  0
C  C50  1  0.59674167  0.86431701  0.50394228  1  -0.068611  0  -0.082756  -0.14263  0  3.96584  0
C  C51  1  0.52212796  0.90168440  0.50090109  1  0.363083  0  0.086694  0.172282  0  4.044913  0
C  C52  1  0.44279714  0.85740080  0.49774301  1  -0.076949  0  -0.084944  -0.141641  0  3.952712  0
C  C53  1  0.43921160  0.77714039  0.49787354  1  0.024679  0  -0.083153  -0.082343  0  3.976953  0
C  C54  1  0.51385261  0.73949714  0.50118925  1  -0.003312  0  -0.011839  -0.020814  0  3.939503  0
C  C55  1  0.59258704  0.78378888  0.50407876  1  0.049272  0  -0.084636  -0.088304  0  3.984788  0
C  C56  1  0.49954590  0.50011868  0.73006227  1  0.015963  0  -0.019394  -0.026717  0  3.986578  0
C  C57  1  0.42300031  0.49679153  0.76650090  1  -0.045706  0  -0.08948  -0.101459  0  4.015564  0
C  C58  1  0.42374585  0.49664196  0.84387916  1  -0.056828  0  -0.089047  -0.130643  0  3.988912  0
C  C59  1  0.50093898  0.49976345  0.88697395  1  0.13485  0  -0.001378  0.079798  0  4.080224  0
C  C60  1  0.57862474  0.50292398  0.85052205  1  0.05089  0  -0.000915  0.131363  0  3.920447  0
C  C61  1  0.57591029  0.50298116  0.77256622  1  -0.092745  0  -0.087058  -0.158048  0  3.951093  0
C  C62  1  0.50005748  0.49973926  0.96588862  1  -0.084758  0  -0.042241  -0.103452  0  4.134463  0
C  C63  1  0.49992946  0.49987843  0.03410668  1  -0.303983  0  -0.042658  -0.10242  0  4.135995  0
C  C64  1  0.49904949  0.49991105  0.11301316  1  0.137075  0  -0.000996  0.077813  0  4.08551  0
C  C65  1  0.42136456  0.49687864  0.14946368  1  0.050357  0  -0.000799  0.131644  0  3.92248  0
C  C66  1  0.42407113  0.49689043  0.22742157  1  -0.092059  0  -0.086987  -0.157871  0  3.950674  0
C  C67  1  0.50044023  0.49974365  0.26993127  1  0.014405  0  -0.019249  -0.026114  0  3.985921  0
C  C68  1  0.57697563  0.50299135  0.23350044  1  -0.046486  0  -0.089775  -0.101703  0  4.016524  0
C  C69  1  0.57623558  0.50305514  0.15612222  1  -0.057047  0  -0.089202  -0.130063  0  3.990392  0
C  C70  1  0.66215584  0.50609078  0.89407252  1  -0.104211  0  -0.236885  -0.406826  0  3.984329  0
C  C71  1  0.33783490  0.49376750  0.10591673  1  -0.101613  0  -0.236799  -0.406171  0  3.983619  0
N  N72  1  0.71763126  0.50834846  0.50822660  1  -1.231223  0  -0.307417  -0.179201  0  3.489715  0
N  N73  1  0.98256728  0.52149658  0.52187857  1  -0.448323  0  -0.129858  -0.116326  0  3.229105  0
N  N74  1  0.01743513  0.47853970  0.47809309  1  -0.49842  0  -0.129928  -0.116264  0  3.229098  0
N  N75  1  0.28236112  0.49167563  0.49176641  1  -1.231408  0  -0.307638  -0.179359  0  3.490035  0
N  N76  1  0.46607235  0.01651225  0.49889674  1  -0.45392  0  -0.153457  -0.143019  0  3.289927  0
N  N77  1  0.53392932  0.98350201  0.50118255  1  -0.511063  0  -0.153763  -0.143421  0  3.289902  0
O  O78  1  0.42108673  0.37793900  0.49550861  1  -1.167657  0  -0.319391  -0.551682  0  2.320449  0
O  O79  1  0.56457280  0.38408820  0.50172387  1  -1.166349  0  -0.31926  -0.552327  0  2.3216  0
O  O80  1  0.57189624  0.50244841  0.38910535  1  -1.168717  0  -0.320437  -0.551742  0  2.32744  0
O  O81  1  0.42845982  0.49638685  0.38294637  1  -1.166771  0  -0.321668  -0.55337  0  2.325304  0
O  O82  1  0.57889990  0.62206361  0.50436414  1  -1.167364  0  -0.31957  -0.551907  0  2.319807  0
O  O83  1  0.43541166  0.61592893  0.49839883  1  -1.166374  0  -0.319396  -0.552139  0  2.321774  0
O  O84  1  0.42810258  0.49740872  0.61088924  1  -1.169168  0  -0.32046  -0.551474  0  2.327872  0
O  O85  1  0.57154698  0.50372074  0.61704682  1  -1.166775  0  -0.321718  -0.553201  0  2.324806  0
