# generated using pymatgen
data_ZnH10C6SN2O7
_symmetry_space_group_name_H-M   'P 1'
_cell_length_a   6.65757808
_cell_length_b   8.28242352
_cell_length_c   9.86771948
_cell_angle_alpha   92.08086730
_cell_angle_beta   90.00021708
_cell_angle_gamma   90.00004405
_symmetry_Int_Tables_number   1
_chemical_formula_structural   ZnH10C6SN2O7
_chemical_formula_sum   'Zn2 H20 C12 S2 N4 O14'
_cell_volume   543.75594522
_cell_formula_units_Z   2
loop_
 _symmetry_equiv_pos_site_id
 _symmetry_equiv_pos_as_xyz
  1  'x, y, z'
loop_
 _atom_site_type_symbol
 _atom_site_label
 _atom_site_symmetry_multiplicity
 _atom_site_fract_x
 _atom_site_fract_y
 _atom_site_fract_z
 _atom_site_occupancy
 _atom_site_hle17_bader_spin_density
 _atom_site_hle17_ddec_charge
 _atom_site_hle17_ddec_spin_density
 _atom_site_hle17_ddec_sum_bond_order
 _atom_site_hle17_magmom
 _atom_site_hse06_10hf_bader_spin_density
 _atom_site_hse06_10hf_ddec_charge
 _atom_site_hse06_10hf_ddec_spin_density
 _atom_site_hse06_10hf_ddec_sum_bond_order
 _atom_site_hse06_10hf_magmom
 _atom_site_hse06_bader_spin_density
 _atom_site_hse06_ddec_charge
 _atom_site_hse06_ddec_spin_density
 _atom_site_hse06_ddec_sum_bond_order
 _atom_site_hse06_magmom
 _atom_site_pbe_bader_spin_density
 _atom_site_pbe_cm5_charge
 _atom_site_pbe_ddec_charge
 _atom_site_pbe_ddec_spin_density
 _atom_site_pbe_ddec_sum_bond_order
 _atom_site_pbe_magmom
Zn  Zn0  1  0.59908343  0.28263589  0.20454063  1  0  1.086057  0  1.780213  0  0  0.911107  0  2.229565  0  0  0.955335  0  2.17695  0  0  0.68703  0.879787  0  2.265595  0
Zn  Zn1  1  0.09908515  0.71736387  0.79545812  1  0  1.086058  0  1.780201  0  0  0.911144  0  2.229514  0  0  0.955371  0  2.176899  0  0  0.68705  0.879822  0  2.265539  0
H  H2  1  0.59897838  0.68363933  0.16816068  1  0  0.382594  0  0.886736  0  0  0.352715  0  0.965603  0  0  0.363267  0  0.953936  0  0  0.316314  0.34518  0  0.973765  0
H  H3  1  0.09897541  0.31635922  0.83183499  1  0  0.38262  0  0.886674  0  0  0.352729  0  0.965544  0  0  0.363281  0  0.953874  0  0  0.316325  0.345193  0  0.973708  0
H  H4  1  0.60376612  0.46632061  0.99872291  1  0  0.424079  0  0.880174  0  0  0.390571  0  0.947034  0  0  0.401449  0  0.93126  0  0  0.293367  0.382937  0  0.958037  0
H  H5  1  0.10376773  0.53367431  0.00127468  1  0  0.424101  0  0.880179  0  0  0.390581  0  0.947058  0  0  0.40146  0  0.931283  0  0  0.293373  0.382943  0  0.958069  0
H  H6  1  0.41390421  0.34934473  0.99116440  1  0  0.422858  0  0.881062  0  0  0.390875  0  0.945134  0  0  0.401606  0  0.929687  0  0  0.294333  0.383335  0  0.955944  0
H  H7  1  0.91390776  0.65064921  0.00883497  1  0  0.42279  0  0.881165  0  0  0.390846  0  0.945186  0  0  0.401577  0  0.92974  0  0  0.294311  0.383305  0  0.955997  0
H  H8  1  0.59917350  0.99937608  0.06150597  1  0  0.433884  0  0.864022  0  0  0.402926  0  0.925604  0  0  0.413574  0  0.910208  0  0  0.295089  0.395304  0  0.936656  0
H  H9  1  0.09917383  0.00062245  0.93849679  1  0  0.433872  0  0.864063  0  0  0.402912  0  0.925637  0  0  0.41356  0  0.910243  0  0  0.295104  0.395292  0  0.936684  0
H  H10  1  0.80581294  0.04393450  0.12916143  1  0  0.418166  0  0.889832  0  0  0.386289  0  0.954881  0  0  0.396588  0  0.940035  0  0  0.292516  0.379026  0  0.965355  0
H  H11  1  0.30581381  0.95606418  0.87084390  1  0  0.418159  0  0.889836  0  0  0.386277  0  0.954892  0  0  0.396577  0  0.940044  0  0  0.292498  0.379013  0  0.965367  0
H  H12  1  0.63200314  0.98559677  0.37940713  1  0  0.09346  0  0.955018  0  0  0.096832  0  1.024821  0  0  0.100219  0  1.021919  0  0  0.116827  0.094293  0  1.027051  0
H  H13  1  0.13200620  0.01440421  0.62059479  1  0  0.093442  0  0.954951  0  0  0.096845  0  1.024735  0  0  0.100232  0  1.021832  0  0  0.116836  0.094306  0  1.026965  0
H  H14  1  0.64678546  0.93381814  0.62941189  1  0  0.1134  0  0.965167  0  0  0.120442  0  1.028569  0  0  0.124043  0  1.026972  0  0  0.105548  0.117659  0  1.030209  0
H  H15  1  0.14678267  0.06618043  0.37058999  1  0  0.11344  0  0.965145  0  0  0.120476  0  1.028549  0  0  0.124076  0  1.026959  0  0  0.105567  0.117715  0  1.030167  0
H  H16  1  0.62394843  0.16990577  0.79509832  1  0  0.112977  0  0.943251  0  0  0.120784  0  1.003484  0  0  0.124154  0  0.999932  0  0  0.109497  0.11826  0  1.006165  0
H  H17  1  0.12394394  0.83009641  0.20490260  1  0  0.11304  0  0.943193  0  0  0.120812  0  1.003469  0  0  0.124181  0  0.999919  0  0  0.109506  0.118288  0  1.00615  0
H  H18  1  0.59105496  0.44874110  0.70503911  1  0  0.122594  0  0.970337  0  0  0.128203  0  1.037186  0  0  0.131831  0  1.035684  0  0  0.106861  0.125579  0  1.038523  0
H  H19  1  0.09104922  0.55125744  0.29495857  1  0  0.122626  0  0.970194  0  0  0.128203  0  1.037096  0  0  0.131851  0  1.035574  0  0  0.10688  0.125583  0  1.038426  0
H  H20  1  0.58737449  0.62873109  0.50981812  1  0  0.117262  0  0.898494  0  0  0.130783  0  0.954428  0  0  0.133861  0  0.95126  0  0  0.132063  0.128566  0  0.95672  0
H  H21  1  0.08738017  0.37127953  0.49017893  1  0  0.117317  0  0.89845  0  0  0.130845  0  0.954381  0  0  0.133922  0  0.951213  0  0  0.132076  0.128627  0  0.956673  0
C  C22  1  0.62575139  0.08400767  0.45575751  1  0  0.138141  0  3.687368  0  0  0.107519  0  3.939155  0  0  0.11432  0  3.957242  0  0  0.052877  0.103158  0  3.926845  0
C  C23  1  0.12574739  0.91599451  0.54424342  1  0  0.13822  0  3.687277  0  0  0.10757  0  3.939082  0  0  0.114371  0  3.957166  0  0  0.052922  0.103208  0  3.926779  0
C  C24  1  0.63121922  0.05633375  0.59435884  1  0  -0.11309  0  3.698596  0  0  -0.130038  0  3.956341  0  0  -0.13673  0  3.976343  0  0  -0.081826  -0.125813  0  3.943157  0
C  C25  1  0.13121597  0.94366481  0.40564300  1  0  -0.11319  0  3.698606  0  0  -0.130132  0  3.956364  0  0  -0.136826  0  3.976369  0  0  -0.081888  -0.125924  0  3.94317  0
C  C26  1  0.61971987  0.18764913  0.68633373  1  0  0.025955  0  3.669494  0  0  0.003402  0  3.928834  0  0  0.009458  0  3.942668  0  0  -0.059316  -0.000361  0  3.919343  0
C  C27  1  0.11971297  0.81235184  0.31366613  1  0  0.025855  0  3.669476  0  0  0.003331  0  3.928802  0  0  0.009387  0  3.942639  0  0  -0.059355  -0.000433  0  3.919318  0
C  C28  1  0.60297798  0.34270397  0.63711033  1  0  -0.129743  0  3.666762  0  0  -0.157009  0  3.92366  0  0  -0.163287  0  3.943716  0  0  -0.077997  -0.152975  0  3.910372  0
C  C29  1  0.10297421  0.65729820  0.36288851  1  0  -0.129778  0  3.666518  0  0  -0.157026  0  3.923419  0  0  -0.163318  0  3.943459  0  0  -0.07802  -0.152994  0  3.910129  0
C  C30  1  0.60121269  0.36190563  0.49709179  1  0  0.195577  0  3.8165  0  0  0.198235  0  4.061105  0  0  0.202428  0  4.083662  0  0  0.113882  0.195312  0  4.045803  0
C  C31  1  0.10121269  0.63809775  0.50290607  1  0  0.195622  0  3.816413  0  0  0.198316  0  4.061014  0  0  0.202508  0  4.083573  0  0  0.113898  0.195394  0  4.045713  0
C  C32  1  0.59093860  0.52222054  0.44090013  1  0  0.01556  0  3.656505  0  0  -0.037405  0  3.935015  0  0  -0.028587  0  3.944019  0  0  0.054183  -0.043107  0  3.928739  0
C  C33  1  0.09094327  0.47778766  0.55910090  1  0  0.015542  0  3.656585  0  0  -0.03748  0  3.935153  0  0  -0.028662  0  3.944157  0  0  0.054193  -0.043182  0  3.928879  0
S  S34  1  0.09759302  0.25535393  0.12570807  1  0  1.590435  0  5.781601  0  0  1.460346  0  6.323187  0  0  1.516048  0  6.287863  0  0  0.581626  1.421806  0  6.346645  0
S  S35  1  0.59759099  0.74464340  0.87429364  1  0  1.590365  0  5.781701  0  0  1.460261  0  6.323333  0  0  1.515969  0  6.288  0  0  0.581651  1.421725  0  6.346783  0
N  N36  1  0.61234556  0.23331491  0.40828783  1  0  -0.367788  0  3.285802  0  0  -0.288983  0  3.541841  0  0  -0.308665  0  3.559946  0  0  -0.326311  -0.275301  0  3.52909  0
N  N37  1  0.11234768  0.76668726  0.59171103  1  0  -0.367824  0  3.28578  0  0  -0.289042  0  3.541831  0  0  -0.308722  0  3.559933  0  0  -0.326325  -0.275361  0  3.52908  0
N  N38  1  0.59088567  0.53451776  0.31099498  1  0  -0.100477  0  3.139077  0  0  -0.049028  0  3.433829  0  0  -0.055556  0  3.444827  0  0  -0.213941  -0.045036  0  3.42592  0
N  N39  1  0.09088655  0.46548803  0.68900394  1  0  -0.100442  0  3.13909  0  0  -0.049004  0  3.433845  0  0  -0.055533  0  3.444843  0  0  -0.213925  -0.04501  0  3.425936  0
O  O40  1  0.58464763  0.69028328  0.26940022  1  0  -0.382658  0  2.059047  0  0  -0.336538  0  2.28194  0  0  -0.357844  0  2.280345  0  0  -0.246563  -0.32087  0  2.282432  0
O  O41  1  0.08464409  0.30972010  0.73059557  1  0  -0.382733  0  2.058992  0  0  -0.336559  0  2.281871  0  0  -0.357863  0  2.280274  0  0  -0.246594  -0.32089  0  2.282365  0
O  O42  1  0.26754549  0.26373580  0.22273254  1  0  -0.739376  0  2.010358  0  0  -0.682526  0  2.29537  0  0  -0.705825  0  2.276235  0  0  -0.353114  -0.66627  0  2.308088  0
O  O43  1  0.76754441  0.73626527  0.77727175  1  0  -0.739332  0  2.0104  0  0  -0.682476  0  2.295392  0  0  -0.705772  0  2.276252  0  0  -0.35312  -0.666217  0  2.308102  0
O  O44  1  0.16226766  0.33565183  0.99639517  1  0  -0.762625  0  2.018304  0  0  -0.684544  0  2.242755  0  0  -0.707329  0  2.223653  0  0  -0.346312  -0.668574  0  2.255507  0
O  O45  1  0.66226669  0.66434434  0.00360566  1  0  -0.762609  0  2.018392  0  0  -0.684526  0  2.242821  0  0  -0.707314  0  2.22372  0  0  -0.346313  -0.668556  0  2.255567  0
O  O46  1  0.04369186  0.08420270  0.09094940  1  0  -0.726622  0  1.992688  0  0  -0.656388  0  2.221007  0  0  -0.679215  0  2.203268  0  0  -0.339165  -0.640511  0  2.233291  0
O  O47  1  0.54369169  0.91579458  0.90905420  1  0  -0.726625  0  1.992752  0  0  -0.656375  0  2.221067  0  0  -0.679205  0  2.203326  0  0  -0.339171  -0.640497  0  2.233349  0
O  O48  1  0.92264701  0.34342606  0.18437081  1  0  -0.73809  0  2.019668  0  0  -0.678247  0  2.300645  0  0  -0.701415  0  2.281739  0  0  -0.353923  -0.662058  0  2.313143  0
O  O49  1  0.42264729  0.65657272  0.81562773  1  0  -0.738099  0  2.019672  0  0  -0.678295  0  2.300687  0  0  -0.701461  0  2.281773  0  0  -0.353962  -0.662105  0  2.313183  0
O  O50  1  0.56164588  0.35174437  0.00864394  1  0  -0.813813  0  1.921066  0  0  -0.747209  0  2.129106  0  0  -0.769284  0  2.094257  0  0  -0.575947  -0.731315  0  2.152936  0
O  O51  1  0.06164863  0.64824932  0.99135249  1  0  -0.813797  0  1.921186  0  0  -0.747211  0  2.129151  0  0  -0.769287  0  2.094301  0  0  -0.575937  -0.731314  0  2.152981  0
O  O52  1  0.65851919  0.04197908  0.14834969  1  0  -0.81869  0  1.900274  0  0  -0.753083  0  2.100819  0  0  -0.774414  0  2.067641  0  0  -0.577591  -0.737986  0  2.124005  0
O  O53  1  0.15851845  0.95801950  0.85165424  1  0  -0.818667  0  1.900282  0  0  -0.753057  0  2.100865  0  0  -0.77439  0  2.067686  0  0  -0.577589  -0.737958  0  2.12405  0
