# generated using pymatgen
data_Tl2HC5O4
_symmetry_space_group_name_H-M   'P 1'
_cell_length_a   6.26369575
_cell_length_b   7.56031378
_cell_length_c   15.33664099
_cell_angle_alpha   101.55309689
_cell_angle_beta   90.00006340
_cell_angle_gamma   89.99977855
_symmetry_Int_Tables_number   1
_chemical_formula_structural   Tl2HC5O4
_chemical_formula_sum   'Tl8 H4 C20 O16'
_cell_volume   711.55971972
_cell_formula_units_Z   4
loop_
 _symmetry_equiv_pos_site_id
 _symmetry_equiv_pos_as_xyz
  1  'x, y, z'
loop_
 _atom_site_type_symbol
 _atom_site_label
 _atom_site_symmetry_multiplicity
 _atom_site_fract_x
 _atom_site_fract_y
 _atom_site_fract_z
 _atom_site_occupancy
 _atom_site_hle17_bader_spin_density
 _atom_site_hle17_ddec_charge
 _atom_site_hle17_ddec_spin_density
 _atom_site_hle17_ddec_sum_bond_order
 _atom_site_hle17_magmom
 _atom_site_hse06_10hf_bader_spin_density
 _atom_site_hse06_10hf_ddec_charge
 _atom_site_hse06_10hf_ddec_spin_density
 _atom_site_hse06_10hf_ddec_sum_bond_order
 _atom_site_hse06_10hf_magmom
 _atom_site_hse06_bader_spin_density
 _atom_site_hse06_ddec_charge
 _atom_site_hse06_ddec_spin_density
 _atom_site_hse06_ddec_sum_bond_order
 _atom_site_hse06_magmom
 _atom_site_pbe_bader_spin_density
 _atom_site_pbe_cm5_charge
 _atom_site_pbe_ddec_charge
 _atom_site_pbe_ddec_spin_density
 _atom_site_pbe_ddec_sum_bond_order
 _atom_site_pbe_magmom
Tl  Tl0  1  0.53245583  0.15846972  0.40707598  1  0  0.828098  0  0.809105  0  0  0.718033  0  1.094002  0  0  0.749093  0  1.073898  0  0  0.417836  0.694533  0  1.108905  0
Tl  Tl1  1  0.03247856  0.34152504  0.09292413  1  0  0.828099  0  0.809091  0  0  0.718015  0  1.094009  0  0  0.74907  0  1.073897  0  0  0.417835  0.694521  0  1.108912  0
Tl  Tl2  1  0.46753116  0.84153069  0.59292130  1  0  0.828078  0  0.809091  0  0  0.717994  0  1.094018  0  0  0.749049  0  1.073905  0  0  0.417821  0.694497  0  1.108922  0
Tl  Tl3  1  0.96754835  0.65847144  0.90707671  1  0  0.828086  0  0.809105  0  0  0.718  0  1.094052  0  0  0.749052  0  1.073937  0  0  0.417819  0.694509  0  1.108962  0
Tl  Tl4  1  0.59857054  0.60031965  0.28633977  1  0  0.86851  0  0.793689  0  0  0.763767  0  1.07759  0  0  0.793676  0  1.056084  0  0  0.428618  0.740995  0  1.093468  0
Tl  Tl5  1  0.09857418  0.89967358  0.21365435  1  0  0.868521  0  0.793653  0  0  0.763781  0  1.077553  0  0  0.79369  0  1.056049  0  0  0.428632  0.74101  0  1.093433  0
Tl  Tl6  1  0.40142763  0.39967796  0.71365400  1  0  0.868506  0  0.793646  0  0  0.763772  0  1.077544  0  0  0.793679  0  1.056039  0  0  0.428624  0.741007  0  1.093428  0
Tl  Tl7  1  0.90142559  0.10032280  0.78634322  1  0  0.868496  0  0.793686  0  0  0.76376  0  1.077579  0  0  0.793667  0  1.056076  0  0  0.428623  0.740994  0  1.093462  0
H  H8  1  0.54540582  0.31519338  0.08240137  1  0  0.112061  0  0.980078  0  0  0.117741  0  1.048061  0  0  0.122625  0  1.044104  0  0  0.104407  0.114077  0  1.051128  0
H  H9  1  0.04539190  0.18481079  0.41759961  1  0  0.112134  0  0.980105  0  0  0.117818  0  1.048055  0  0  0.122705  0  1.04409  0  0  0.104408  0.114175  0  1.051105  0
H  H10  1  0.45461470  0.68482074  0.91760435  1  0  0.112088  0  0.980282  0  0  0.1178  0  1.048181  0  0  0.122671  0  1.044236  0  0  0.104404  0.114167  0  1.051223  0
H  H11  1  0.95459988  0.81518437  0.58240241  1  0  0.112096  0  0.980205  0  0  0.11778  0  1.048135  0  0  0.122659  0  1.044181  0  0  0.104381  0.114122  0  1.051194  0
C  C12  1  0.61798988  0.07674563  0.18774549  1  0  0.635954  0  3.968646  0  0  0.589084  0  4.253049  0  0  0.623023  0  4.246366  0  0  0.20161  0.566015  0  4.256402  0
C  C13  1  0.11798571  0.42326782  0.31225833  1  0  0.636103  0  3.96843  0  0  0.589287  0  4.252748  0  0  0.623226  0  4.246059  0  0  0.201698  0.566228  0  4.256081  0
C  C14  1  0.38200510  0.92326847  0.81225957  1  0  0.636023  0  3.968458  0  0  0.589228  0  4.252821  0  0  0.623166  0  4.246145  0  0  0.201669  0.566155  0  4.256169  0
C  C15  1  0.88201087  0.57673671  0.68774195  1  0  0.635943  0  3.9684  0  0  0.589072  0  4.252883  0  0  0.623008  0  4.246213  0  0  0.201601  0.566004  0  4.256223  0
C  C16  1  0.55797734  0.03401972  0.09060122  1  0  -0.091797  0  3.76805  0  0  -0.076478  0  3.998472  0  0  -0.081896  0  4.020685  0  0  -0.016317  -0.072938  0  3.983487  0
C  C17  1  0.05797804  0.46598447  0.40940172  1  0  -0.09181  0  3.767818  0  0  -0.076507  0  3.99823  0  0  -0.081925  0  4.020431  0  0  -0.01637  -0.072964  0  3.983243  0
C  C18  1  0.44201284  0.96600092  0.90939727  1  0  -0.091556  0  3.767462  0  0  -0.076396  0  3.998093  0  0  -0.081813  0  4.020293  0  0  -0.016317  -0.072858  0  3.98311  0
C  C19  1  0.94202013  0.53400803  0.59060136  1  0  -0.091665  0  3.767499  0  0  -0.076465  0  3.998084  0  0  -0.081879  0  4.020286  0  0  -0.016361  -0.07292  0  3.983092  0
C  C20  1  0.52894935  0.85469972  0.04445018  1  0  -0.065748  0  3.746186  0  0  -0.048204  0  3.97229  0  0  -0.051016  0  3.991606  0  0  -0.009985  -0.046528  0  3.959299  0
C  C21  1  0.02892775  0.64530334  0.45555003  1  0  -0.065723  0  3.746347  0  0  -0.048245  0  3.972465  0  0  -0.051048  0  3.991794  0  0  -0.009969  -0.046568  0  3.959459  0
C  C22  1  0.47107436  0.14530901  0.95555504  1  0  -0.065904  0  3.746926  0  0  -0.048387  0  3.97308  0  0  -0.051186  0  3.992405  0  0  -0.010054  -0.046704  0  3.960078  0
C  C23  1  0.97106085  0.35469302  0.54444689  1  0  -0.065765  0  3.746433  0  0  -0.04824  0  3.972607  0  0  -0.051048  0  3.991929  0  0  -0.009958  -0.04656  0  3.959613  0
C  C24  1  0.56718920  0.69438684  0.08786018  1  0  0.673471  0  3.94128  0  0  0.623335  0  4.230707  0  0  0.658701  0  4.221137  0  0  0.20416  0.599153  0  4.236157  0
C  C25  1  0.06718108  0.80560248  0.41213487  1  0  0.673214  0  3.941754  0  0  0.623248  0  4.230933  0  0  0.658575  0  4.221416  0  0  0.204109  0.59906  0  4.236393  0
C  C26  1  0.43281696  0.30559868  0.91213443  1  0  0.673368  0  3.94142  0  0  0.623396  0  4.230608  0  0  0.658723  0  4.22109  0  0  0.204215  0.599216  0  4.236056  0
C  C27  1  0.93281390  0.19438591  0.58786588  1  0  0.673443  0  3.94158  0  0  0.623437  0  4.2308  0  0  0.658778  0  4.221265  0  0  0.204201  0.599246  0  4.236255  0
C  C28  1  0.52888070  0.17630241  0.04551017  1  0  -0.153924  0  3.794591  0  0  -0.171456  0  4.031217  0  0  -0.174707  0  4.053032  0  0  -0.091665  -0.168973  0  4.016581  0
C  C29  1  0.02885985  0.32368692  0.45448814  1  0  -0.154072  0  3.794433  0  0  -0.17162  0  4.031094  0  0  -0.174891  0  4.05295  0  0  -0.091666  -0.16914  0  4.016421  0
C  C30  1  0.47114301  0.82367221  0.95448019  1  0  -0.154143  0  3.793716  0  0  -0.171664  0  4.030415  0  0  -0.174895  0  4.052208  0  0  -0.09164  -0.169219  0  4.015781  0
C  C31  1  0.97112874  0.67632174  0.54551512  1  0  -0.15408  0  3.793909  0  0  -0.171603  0  4.03066  0  0  -0.174842  0  4.052457  0  0  -0.09165  -0.16913  0  4.016039  0
O  O32  1  0.55550238  0.96587144  0.23548456  1  0  -0.693158  0  2.03731  0  0  -0.613346  0  2.270654  0  0  -0.644082  0  2.264999  0  0  -0.302213  -0.591163  0  2.273548  0
O  O33  1  0.05549831  0.53413553  0.26451406  1  0  -0.693202  0  2.037201  0  0  -0.613412  0  2.270543  0  0  -0.644143  0  2.26488  0  0  -0.302235  -0.591258  0  2.273484  0
O  O34  1  0.44449899  0.03413042  0.76451612  1  0  -0.69317  0  2.037308  0  0  -0.613367  0  2.270633  0  0  -0.6441  0  2.264975  0  0  -0.302189  -0.591201  0  2.273572  0
O  O35  1  0.94449348  0.46587180  0.73548973  1  0  -0.693164  0  2.037268  0  0  -0.613346  0  2.270647  0  0  -0.644076  0  2.264988  0  0  -0.302211  -0.591185  0  2.273589  0
O  O36  1  0.72772033  0.21759745  0.21640664  1  0  -0.69378  0  2.010067  0  0  -0.62367  0  2.242833  0  0  -0.653842  0  2.239674  0  0  -0.308507  -0.601978  0  2.244215  0
O  O37  1  0.22771674  0.28240895  0.28359788  1  0  -0.693891  0  2.009969  0  0  -0.623822  0  2.242769  0  0  -0.653997  0  2.239612  0  0  -0.308589  -0.602136  0  2.24415  0
O  O38  1  0.27227465  0.78240051  0.78359890  1  0  -0.693901  0  2.009727  0  0  -0.623812  0  2.242508  0  0  -0.653989  0  2.23935  0  0  -0.308625  -0.602115  0  2.24389  0
O  O39  1  0.77227185  0.71759970  0.71640472  1  0  -0.6938  0  2.009703  0  0  -0.623655  0  2.242468  0  0  -0.653831  0  2.239316  0  0  -0.308511  -0.601963  0  2.243846  0
O  O40  1  0.76179965  0.65372495  0.09906212  1  0  -0.737228  0  1.994792  0  0  -0.662522  0  2.231755  0  0  -0.695176  0  2.227151  0  0  -0.317582  -0.638721  0  2.233849  0
O  O41  1  0.26179451  0.84626660  0.40093778  1  0  -0.73707  0  1.994944  0  0  -0.662414  0  2.231812  0  0  -0.695053  0  2.227226  0  0  -0.317501  -0.638624  0  2.233941  0
O  O42  1  0.23820331  0.34627554  0.90093778  1  0  -0.737114  0  1.99484  0  0  -0.66246  0  2.231733  0  0  -0.6951  0  2.227145  0  0  -0.317524  -0.638677  0  2.233869  0
O  O43  1  0.73820366  0.15373533  0.59906551  1  0  -0.737238  0  1.995046  0  0  -0.662581  0  2.231955  0  0  -0.695223  0  2.227359  0  0  -0.317572  -0.638797  0  2.234098  0
O  O44  1  0.40505671  0.61177807  0.10907194  1  0  -0.682399  0  1.951362  0  0  -0.616174  0  2.185015  0  0  -0.646287  0  2.178549  0  0  -0.310354  -0.594346  0  2.188634  0
O  O45  1  0.90505520  0.88821693  0.39092311  1  0  -0.682331  0  1.951539  0  0  -0.616172  0  2.185123  0  0  -0.646266  0  2.178671  0  0  -0.310368  -0.594344  0  2.188751  0
O  O46  1  0.59494146  0.38821815  0.89092039  1  0  -0.682349  0  1.951263  0  0  -0.616202  0  2.184865  0  0  -0.646298  0  2.178411  0  0  -0.3104  -0.594375  0  2.18849  0
O  O47  1  0.09494137  0.11177814  0.60907564  1  0  -0.68231  0  1.951556  0  0  -0.616126  0  2.185152  0  0  -0.646225  0  2.178692  0  0  -0.310341  -0.594297  0  2.188777  0
