# generated using pymatgen
data_ZnH16C26N4(ClO2)2
_symmetry_space_group_name_H-M   'P 1'
_cell_length_a   11.00336233
_cell_length_b   11.37357037
_cell_length_c   11.37356681
_cell_angle_alpha   110.18934533
_cell_angle_beta   99.79049020
_cell_angle_gamma   99.79094315
_symmetry_Int_Tables_number   1
_chemical_formula_structural   ZnH16C26N4(ClO2)2
_chemical_formula_sum   'Zn2 H32 C52 N8 Cl4 O8'
_cell_volume   1275.56508641
_cell_formula_units_Z   2
loop_
 _symmetry_equiv_pos_site_id
 _symmetry_equiv_pos_as_xyz
  1  'x, y, z'
loop_
 _atom_site_type_symbol
 _atom_site_label
 _atom_site_symmetry_multiplicity
 _atom_site_fract_x
 _atom_site_fract_y
 _atom_site_fract_z
 _atom_site_occupancy
 _atom_site_hle17_bader_spin_density
 _atom_site_hle17_ddec_charge
 _atom_site_hle17_ddec_spin_density
 _atom_site_hle17_ddec_sum_bond_order
 _atom_site_hle17_magmom
 _atom_site_hse06_10hf_bader_spin_density
 _atom_site_hse06_10hf_ddec_charge
 _atom_site_hse06_10hf_ddec_spin_density
 _atom_site_hse06_10hf_ddec_sum_bond_order
 _atom_site_hse06_10hf_magmom
 _atom_site_hse06_bader_spin_density
 _atom_site_hse06_ddec_charge
 _atom_site_hse06_ddec_spin_density
 _atom_site_hse06_ddec_sum_bond_order
 _atom_site_hse06_magmom
 _atom_site_pbe_bader_spin_density
 _atom_site_pbe_cm5_charge
 _atom_site_pbe_ddec_charge
 _atom_site_pbe_ddec_spin_density
 _atom_site_pbe_ddec_sum_bond_order
 _atom_site_pbe_magmom
Zn  Zn0  1  0.75000059  0.77839577  0.22159934  1  0  0.823679  0  2.174718  0  0  0.643431  0  2.679547  0  0  0.683605  0  2.632914  0  0  0.544903  0.615925  0  2.711027  0
Zn  Zn1  1  0.25000108  0.22160055  0.77840026  1  0  0.823658  0  2.174754  0  0  0.643415  0  2.679593  0  0  0.683585  0  2.632968  0  0  0.544883  0.615902  0  2.711076  0
H  H2  1  0.96025186  0.02049946  0.37001500  1  0  0.08893  0  0.955199  0  0  0.093227  0  1.025475  0  0  0.096204  0  1.022317  0  0  0.112523  0.09096  0  1.027889  0
H  H3  1  0.53974411  0.62998410  0.97949209  1  0  0.088913  0  0.955243  0  0  0.093258  0  1.025475  0  0  0.096237  0  1.022313  0  0  0.112532  0.090967  0  1.027912  0
H  H4  1  0.03975006  0.97949777  0.62998230  1  0  0.088969  0  0.955226  0  0  0.093246  0  1.025527  0  0  0.096224  0  1.022368  0  0  0.112524  0.090981  0  1.02794  0
H  H5  1  0.46025278  0.37001901  0.02050890  1  0  0.088911  0  0.955193  0  0  0.093203  0  1.025496  0  0  0.096179  0  1.02234  0  0  0.112517  0.09093  0  1.027916  0
H  H6  1  0.99816402  0.25539474  0.41282833  1  0  0.126111  0  0.941585  0  0  0.133085  0  1.005153  0  0  0.136772  0  1.003528  0  0  0.111032  0.130378  0  1.006629  0
H  H7  1  0.50183492  0.58717129  0.74459576  1  0  0.126127  0  0.941607  0  0  0.13309  0  1.005177  0  0  0.136765  0  1.003565  0  0  0.111004  0.130383  0  1.006654  0
H  H8  1  0.00183766  0.74460151  0.58716773  1  0  0.126114  0  0.941557  0  0  0.133058  0  1.005166  0  0  0.136733  0  1.003554  0  0  0.111019  0.130351  0  1.006641  0
H  H9  1  0.49815968  0.41283376  0.25540547  1  0  0.126163  0  0.941537  0  0  0.133082  0  1.005157  0  0  0.136757  0  1.003543  0  0  0.111017  0.130374  0  1.006634  0
H  H10  1  0.61094415  0.18059329  0.19851895  1  0  0.118215  0  0.946004  0  0  0.12835  0  1.003493  0  0  0.131654  0  1.002807  0  0  0.110503  0.126001  0  1.004083  0
H  H11  1  0.88905643  0.80148226  0.81940163  1  0  0.118267  0  0.94599  0  0  0.128332  0  1.003542  0  0  0.13164  0  1.002852  0  0  0.110483  0.125986  0  1.004127  0
H  H12  1  0.38905428  0.81940109  0.80147858  1  0  0.118199  0  0.946038  0  0  0.128294  0  1.003565  0  0  0.1316  0  1.002877  0  0  0.110473  0.125947  0  1.004151  0
H  H13  1  0.11094388  0.19851595  0.18059571  1  0  0.118263  0  0.945972  0  0  0.128348  0  1.003505  0  0  0.131655  0  1.002815  0  0  0.110492  0.126001  0  1.004093  0
H  H14  1  0.58631672  0.94707056  0.16839198  1  0  0.08168  0  0.919814  0  0  0.093263  0  0.976024  0  0  0.095931  0  0.973969  0  0  0.118072  0.091311  0  0.977529  0
H  H15  1  0.91368243  0.83160465  0.05292613  1  0  0.081648  0  0.919796  0  0  0.093216  0  0.976017  0  0  0.095885  0  0.973961  0  0  0.118049  0.091265  0  0.977521  0
H  H16  1  0.41368148  0.05292280  0.83160254  1  0  0.081676  0  0.91984  0  0  0.093243  0  0.976048  0  0  0.09591  0  0.973991  0  0  0.118076  0.091293  0  0.977551  0
H  H17  1  0.08631880  0.16839361  0.94707402  1  0  0.081649  0  0.919835  0  0  0.093212  0  0.97606  0  0  0.095879  0  0.974003  0  0  0.118048  0.091262  0  0.977563  0
H  H18  1  0.73431392  0.40537697  0.32993571  1  0  0.10616  0  0.921814  0  0  0.119497  0  0.981108  0  0  0.121409  0  0.978919  0  0  0.119838  0.118192  0  0.982533  0
H  H19  1  0.76568718  0.67007310  0.59462204  1  0  0.106134  0  0.921907  0  0  0.119466  0  0.981151  0  0  0.121373  0  0.978973  0  0  0.119849  0.118184  0  0.982552  0
H  H20  1  0.26568431  0.59462035  0.67006451  1  0  0.10619  0  0.921832  0  0  0.119522  0  0.981126  0  0  0.121433  0  0.978936  0  0  0.119857  0.11822  0  0.982549  0
H  H21  1  0.23431455  0.32993100  0.40538186  1  0  0.106128  0  0.921952  0  0  0.119468  0  0.98119  0  0  0.121374  0  0.97901  0  0  0.119872  0.118174  0  0.982605  0
H  H22  1  0.89147682  0.43786879  0.42561332  1  0  0.111837  0  0.952841  0  0  0.121328  0  1.018228  0  0  0.12411  0  1.014948  0  0  0.118901  0.119322  0  1.020509  0
H  H23  1  0.60852668  0.57439086  0.56212146  1  0  0.111879  0  0.952768  0  0  0.121311  0  1.018198  0  0  0.124097  0  1.014908  0  0  0.118924  0.119304  0  1.020482  0
H  H24  1  0.10852000  0.56212659  0.57438602  1  0  0.11178  0  0.952964  0  0  0.12134  0  1.018265  0  0  0.124121  0  1.014984  0  0  0.118936  0.119334  0  1.020546  0
H  H25  1  0.39147483  0.42561211  0.43787413  1  0  0.111874  0  0.952783  0  0  0.121313  0  1.018204  0  0  0.124095  0  1.01492  0  0  0.118929  0.119308  0  1.020485  0
H  H26  1  0.65940960  0.37790833  0.89020505  1  0  0.112983  0  0.974655  0  0  0.117025  0  1.04423  0  0  0.121058  0  1.041095  0  0  0.097596  0.114166  0  1.046428  0
H  H27  1  0.84058987  0.10980010  0.62209940  1  0  0.112961  0  0.974693  0  0  0.116999  0  1.044273  0  0  0.121032  0  1.041138  0  0  0.097584  0.11414  0  1.046468  0
H  H28  1  0.34058866  0.62209285  0.10979642  1  0  0.112998  0  0.974649  0  0  0.117044  0  1.044202  0  0  0.121077  0  1.041067  0  0  0.097607  0.114185  0  1.046401  0
H  H29  1  0.15941115  0.89020105  0.37790078  1  0  0.112906  0  0.974699  0  0  0.116933  0  1.044318  0  0  0.120966  0  1.041184  0  0  0.097573  0.114076  0  1.046503  0
H  H30  1  0.25340041  0.55674686  0.27330918  1  0  0.110959  0  0.94711  0  0  0.11736  0  1.012533  0  0  0.120706  0  1.01075  0  0  0.111137  0.114852  0  1.014178  0
H  H31  1  0.24660257  0.72669204  0.44325571  1  0  0.110977  0  0.947104  0  0  0.117374  0  1.012519  0  0  0.12072  0  1.010736  0  0  0.111153  0.114864  0  1.014167  0
H  H32  1  0.74660133  0.44325716  0.72669119  1  0  0.110888  0  0.9472  0  0  0.117347  0  1.012558  0  0  0.120694  0  1.010775  0  0  0.111139  0.114838  0  1.014204  0
H  H33  1  0.75339986  0.27331102  0.55674445  1  0  0.110938  0  0.947106  0  0  0.117321  0  1.012554  0  0  0.120667  0  1.010771  0  0  0.111128  0.114812  0  1.014201  0
C  C34  1  0.88513493  0.05987605  0.33410408  1  0  0.140036  0  3.677717  0  0  0.109364  0  3.925731  0  0  0.116424  0  3.943903  0  0  0.050159  0.104874  0  3.913499  0
C  C35  1  0.61486110  0.66589428  0.94011726  1  0  0.140143  0  3.677732  0  0  0.109452  0  3.925732  0  0  0.116513  0  3.943901  0  0  0.050233  0.104983  0  3.913512  0
C  C36  1  0.11486490  0.94012024  0.66589344  1  0  0.139964  0  3.67778  0  0  0.109334  0  3.925772  0  0  0.116399  0  3.943941  0  0  0.050193  0.104842  0  3.913539  0
C  C37  1  0.38513346  0.33410692  0.05988359  1  0  0.140147  0  3.677786  0  0  0.109494  0  3.925766  0  0  0.116555  0  3.943935  0  0  0.05023  0.105007  0  3.913537  0
C  C38  1  0.90579787  0.19075368  0.35612902  1  0  -0.149501  0  3.665412  0  0  -0.169837  0  3.914589  0  0  -0.177696  0  3.935737  0  0  -0.077471  -0.165048  0  3.900897  0
C  C39  1  0.59419993  0.64386839  0.80923801  1  0  -0.149527  0  3.665503  0  0  -0.169897  0  3.914723  0  0  -0.177747  0  3.935876  0  0  -0.077501  -0.165104  0  3.901021  0
C  C40  1  0.09420289  0.80924263  0.64386953  1  0  -0.149456  0  3.665355  0  0  -0.169799  0  3.914534  0  0  -0.177649  0  3.935688  0  0  -0.077505  -0.165007  0  3.90084  0
C  C41  1  0.40579600  0.35613085  0.19076155  1  0  -0.149639  0  3.665523  0  0  -0.169909  0  3.914727  0  0  -0.177758  0  3.935881  0  0  -0.077527  -0.165116  0  3.901029  0
C  C42  1  0.80711113  0.23714487  0.30749234  1  0  0.140315  0  3.686741  0  0  0.154554  0  3.928845  0  0  0.158591  0  3.950655  0  0  0.017677  0.152078  0  3.914215  0
C  C43  1  0.69288803  0.69250817  0.76285012  1  0  0.140222  0  3.686957  0  0  0.154496  0  3.928931  0  0  0.158536  0  3.950734  0  0  0.01769  0.152018  0  3.91431  0
C  C44  1  0.19288962  0.76285144  0.69250622  1  0  0.140237  0  3.686873  0  0  0.15451  0  3.928917  0  0  0.158546  0  3.950726  0  0  0.017667  0.152033  0  3.914289  0
C  C45  1  0.30710814  0.30749207  0.23715158  1  0  0.140355  0  3.68683  0  0  0.154503  0  3.928957  0  0  0.15854  0  3.950766  0  0  0.0177  0.152026  0  3.914329  0
C  C46  1  0.69014998  0.14812095  0.23772233  1  0  -0.164576  0  3.714887  0  0  -0.184017  0  3.963532  0  0  -0.191963  0  3.985471  0  0  -0.084719  -0.178783  0  3.948676  0
C  C47  1  0.80984989  0.76227738  0.85187254  1  0  -0.164589  0  3.715094  0  0  -0.184002  0  3.963736  0  0  -0.191953  0  3.985673  0  0  -0.08468  -0.17877  0  3.948882  0
C  C48  1  0.30984893  0.85187542  0.76227857  1  0  -0.164502  0  3.715164  0  0  -0.183931  0  3.963789  0  0  -0.191883  0  3.985729  0  0  -0.084642  -0.178698  0  3.948934  0
C  C49  1  0.19014905  0.23772280  0.14812697  1  0  -0.164629  0  3.715097  0  0  -0.184008  0  3.963755  0  0  -0.19196  0  3.985696  0  0  -0.084697  -0.178774  0  3.9489  0
C  C50  1  0.67629535  0.01914766  0.22034404  1  0  0.122219  0  3.720063  0  0  0.09145  0  3.970397  0  0  0.097846  0  3.989939  0  0  0.042309  0.087356  0  3.95704  0
C  C51  1  0.82370194  0.77965331  0.98084691  1  0  0.122288  0  3.720267  0  0  0.091558  0  3.97057  0  0  0.097956  0  3.990113  0  0  0.042338  0.087461  0  3.957215  0
C  C52  1  0.32370307  0.98084678  0.77965614  1  0  0.122207  0  3.720355  0  0  0.091492  0  3.97065  0  0  0.097895  0  3.990189  0  0  0.042286  0.087395  0  3.957293  0
C  C53  1  0.17629560  0.22034496  0.01915261  1  0  0.12228  0  3.720298  0  0  0.091551  0  3.970599  0  0  0.097952  0  3.990136  0  0  0.042331  0.087454  0  3.957242  0
C  C54  1  0.82542861  0.37894471  0.33168330  1  0  -0.042299  0  3.620858  0  0  -0.110678  0  3.873547  0  0  -0.104813  0  3.879567  0  0  -0.055382  -0.114558  0  3.86948  0
C  C55  1  0.67457237  0.66832308  0.62105152  1  0  -0.042388  0  3.62096  0  0  -0.11062  0  3.873459  0  0  -0.104759  0  3.879484  0  0  -0.055447  -0.114518  0  3.869386  0
C  C56  1  0.17456962  0.62105258  0.66831514  1  0  -0.042279  0  3.621078  0  0  -0.110686  0  3.873679  0  0  -0.104816  0  3.879703  0  0  -0.055435  -0.114568  0  3.86961  0
C  C57  1  0.32542684  0.33168198  0.37895138  1  0  -0.042323  0  3.621033  0  0  -0.11055  0  3.873583  0  0  -0.104679  0  3.879602  0  0  -0.055438  -0.114439  0  3.869514  0
C  C58  1  0.79088738  0.39392503  0.11941212  1  0  0.503821  0  3.803267  0  0  0.458905  0  4.087001  0  0  0.488579  0  4.086067  0  0  0.246386  0.438653  0  4.087714  0
C  C59  1  0.70911640  0.88059319  0.60607242  1  0  0.503845  0  3.803368  0  0  0.458858  0  4.087202  0  0  0.488523  0  4.086281  0  0  0.246373  0.43863  0  4.087881  0
C  C60  1  0.20911109  0.60607323  0.88058757  1  0  0.503898  0  3.803299  0  0  0.458977  0  4.087018  0  0  0.488663  0  4.08607  0  0  0.246409  0.438722  0  4.087734  0
C  C61  1  0.29088510  0.11940987  0.39392759  1  0  0.503813  0  3.803372  0  0  0.45885  0  4.087176  0  0  0.488518  0  4.086251  0  0  0.246362  0.438599  0  4.087886  0
C  C62  1  0.84289693  0.43125473  0.02248634  1  0  -0.074273  0  3.75547  0  0  -0.064328  0  3.997483  0  0  -0.071744  0  4.019644  0  0  -0.003678  -0.059583  0  3.982598  0
C  C63  1  0.65710382  0.97751806  0.56874435  1  0  -0.074279  0  3.755459  0  0  -0.064277  0  3.997467  0  0  -0.071688  0  4.019626  0  0  -0.00368  -0.059544  0  3.982576  0
C  C64  1  0.15710293  0.56874550  0.97751598  1  0  -0.074341  0  3.755453  0  0  -0.064389  0  3.997508  0  0  -0.071808  0  4.019665  0  0  -0.003773  -0.059641  0  3.98262  0
C  C65  1  0.34289700  0.02248595  0.43125497  1  0  -0.074408  0  3.755528  0  0  -0.064445  0  3.997578  0  0  -0.071858  0  4.019739  0  0  -0.003718  -0.0597  0  3.98269  0
C  C66  1  0.97536949  0.48185495  0.04677890  1  0  0.035443  0  3.787921  0  0  0.034107  0  4.022237  0  0  0.035177  0  4.045898  0  0  0.004233  0.033621  0  4.006071  0
C  C67  1  0.52463240  0.95322407  0.51814131  1  0  0.03527  0  3.787799  0  0  0.03386  0  4.022214  0  0  0.03493  0  4.045873  0  0  0.004124  0.033378  0  4.006045  0
C  C68  1  0.02462989  0.51814337  0.95322359  1  0  0.035345  0  3.787751  0  0  0.033902  0  4.022199  0  0  0.034972  0  4.045861  0  0  0.004208  0.033418  0  4.006034  0
C  C69  1  0.47537050  0.04678085  0.48185603  1  0  0.03546  0  3.787783  0  0  0.034091  0  4.022097  0  0  0.035161  0  4.045757  0  0  0.004259  0.033621  0  4.005942  0
C  C70  1  0.05989643  0.49703008  0.16246635  1  0  -0.077644  0  3.766431  0  0  -0.068313  0  4.013392  0  0  -0.07553  0  4.0356  0  0  -0.006088  -0.063773  0  3.998514  0
C  C71  1  0.44010694  0.83753324  0.50296805  1  0  -0.077627  0  3.766301  0  0  -0.068355  0  4.013344  0  0  -0.075571  0  4.035556  0  0  -0.006147  -0.063817  0  3.998469  0
C  C72  1  0.94010411  0.50296917  0.83753489  1  0  -0.077625  0  3.766151  0  0  -0.068283  0  4.013215  0  0  -0.0755  0  4.035426  0  0  -0.006112  -0.063747  0  3.998345  0
C  C73  1  0.55989665  0.16247076  0.49703174  1  0  -0.077609  0  3.766317  0  0  -0.068232  0  4.013222  0  0  -0.075445  0  4.035428  0  0  -0.006099  -0.063743  0  3.998407  0
C  C74  1  0.01006290  0.45969981  0.26053080  1  0  0.508193  0  3.801358  0  0  0.457434  0  4.094849  0  0  0.487333  0  4.094081  0  0  0.247443  0.437632  0  4.094354  0
C  C75  1  0.48994152  0.73946912  0.54029713  1  0  0.508023  0  3.801509  0  0  0.457311  0  4.094963  0  0  0.487201  0  4.09421  0  0  0.24744  0.437511  0  4.094464  0
C  C76  1  0.98993696  0.54030040  0.73947064  1  0  0.508248  0  3.801234  0  0  0.457408  0  4.094848  0  0  0.487303  0  4.09409  0  0  0.247436  0.437604  0  4.094356  0
C  C77  1  0.51006206  0.26053486  0.45970178  1  0  0.508023  0  3.801431  0  0  0.457238  0  4.094943  0  0  0.487132  0  4.094183  0  0  0.247364  0.43745  0  4.09445  0
C  C78  1  0.76146573  0.41707724  0.90809656  1  0  -0.033872  0  3.658694  0  0  -0.059062  0  3.910619  0  0  -0.058493  0  3.928614  0  0  -0.06512  -0.05915  0  3.89846  0
C  C79  1  0.73853608  0.09191025  0.58292160  1  0  -0.033916  0  3.658719  0  0  -0.059111  0  3.910638  0  0  -0.058542  0  3.928631  0  0  -0.065136  -0.059192  0  3.898473  0
C  C80  1  0.23853552  0.58292492  0.09190663  1  0  -0.033889  0  3.658698  0  0  -0.059045  0  3.910543  0  0  -0.058475  0  3.928537  0  0  -0.065114  -0.059133  0  3.898385  0
C  C81  1  0.26146658  0.90809375  0.41707804  1  0  -0.033705  0  3.658606  0  0  -0.058909  0  3.91054  0  0  -0.058337  0  3.928531  0  0  -0.065105  -0.058994  0  3.898379  0
C  C82  1  0.18975124  0.54663078  0.18396261  1  0  -0.039327  0  3.677344  0  0  -0.067127  0  3.935759  0  0  -0.066646  0  3.954773  0  0  -0.064734  -0.06745  0  3.923499  0
C  C83  1  0.31025114  0.81603857  0.45336990  1  0  -0.03936  0  3.677297  0  0  -0.067108  0  3.935712  0  0  -0.066626  0  3.954727  0  0  -0.064742  -0.06743  0  3.923453  0
C  C84  1  0.81024909  0.45337140  0.81604130  1  0  -0.039239  0  3.677279  0  0  -0.067065  0  3.935689  0  0  -0.066585  0  3.954705  0  0  -0.064715  -0.067388  0  3.92343  0
C  C85  1  0.68975060  0.18396544  0.54662957  1  0  -0.039261  0  3.677284  0  0  -0.067051  0  3.935695  0  0  -0.066569  0  3.954707  0  0  -0.064723  -0.06736  0  3.923449  0
N  N86  1  0.77227178  0.97531608  0.26733121  1  0  -0.326704  0  3.342938  0  0  -0.240937  0  3.612353  0  0  -0.260704  0  3.631137  0  0  -0.332759  -0.227702  0  3.599498  0
N  N87  1  0.72772379  0.73266265  0.02467810  1  0  -0.326767  0  3.34308  0  0  -0.241041  0  3.612539  0  0  -0.260808  0  3.631324  0  0  -0.332784  -0.227802  0  3.599672  0
N  N88  1  0.22772966  0.02467921  0.73266449  1  0  -0.326705  0  3.343014  0  0  -0.240994  0  3.61244  0  0  -0.260769  0  3.631232  0  0  -0.332779  -0.227756  0  3.599583  0
N  N89  1  0.27227256  0.26733080  0.97532053  1  0  -0.326781  0  3.343021  0  0  -0.241056  0  3.612462  0  0  -0.260821  0  3.631243  0  0  -0.33278  -0.227817  0  3.599604  0
N  N90  1  0.87830816  0.41091179  0.23281580  1  0  -0.267501  0  3.358312  0  0  -0.186791  0  3.590936  0  0  -0.212479  0  3.608224  0  0  -0.239729  -0.16938  0  3.578683  0
N  N91  1  0.62169607  0.76718822  0.58908715  1  0  -0.267246  0  3.35812  0  0  -0.186583  0  3.590721  0  0  -0.212265  0  3.608019  0  0  -0.239672  -0.169179  0  3.57846  0
N  N92  1  0.12169146  0.58908742  0.76718351  1  0  -0.267579  0  3.358434  0  0  -0.186857  0  3.591091  0  0  -0.212549  0  3.608378  0  0  -0.239775  -0.169443  0  3.578837  0
N  N93  1  0.37830706  0.23281775  0.41091497  1  0  -0.267399  0  3.358261  0  0  -0.186703  0  3.590866  0  0  -0.212388  0  3.608159  0  0  -0.239726  -0.169292  0  3.578607  0
Cl  Cl94  1  0.93222648  0.75027502  0.31264864  1  0  -0.558574  0  0.930781  0  0  -0.496346  0  1.199459  0  0  -0.511693  0  1.177618  0  0  -0.322453  -0.485285  0  1.214065  0
Cl  Cl95  1  0.56777602  0.68735489  0.24972919  1  0  -0.55857  0  0.930773  0  0  -0.496346  0  1.199448  0  0  -0.511694  0  1.17761  0  0  -0.322453  -0.485283  0  1.214051  0
Cl  Cl96  1  0.06777799  0.24972513  0.68735092  1  0  -0.558564  0  0.93078  0  0  -0.496331  0  1.199457  0  0  -0.511677  0  1.177619  0  0  -0.322451  -0.485266  0  1.214063  0
Cl  Cl97  1  0.43222680  0.31264249  0.75027535  1  0  -0.558556  0  0.930801  0  0  -0.496332  0  1.199485  0  0  -0.511674  0  1.177642  0  0  -0.322444  -0.485269  0  1.214096  0
O  O98  1  0.67638077  0.34890732  0.10379839  1  0  -0.492289  0  1.935059  0  0  -0.454925  0  2.15316  0  0  -0.47414  0  2.147776  0  0  -0.265362  -0.442153  0  2.156709  0
O  O99  1  0.82362203  0.89620701  0.65108987  1  0  -0.492287  0  1.935143  0  0  -0.454898  0  2.153277  0  0  -0.47411  0  2.147897  0  0  -0.26533  -0.442138  0  2.156818  0
O  O100  1  0.32361814  0.65108903  0.89620162  1  0  -0.492283  0  1.935075  0  0  -0.454924  0  2.153189  0  0  -0.474144  0  2.147799  0  0  -0.265332  -0.442153  0  2.156739  0
O  O101  1  0.17638064  0.10379697  0.34890888  1  0  -0.492237  0  1.935176  0  0  -0.454865  0  2.153317  0  0  -0.474079  0  2.147934  0  0  -0.265317  -0.442097  0  2.156867  0
O  O102  1  0.08029877  0.46882422  0.36205968  1  0  -0.492104  0  1.938009  0  0  -0.448223  0  2.15896  0  0  -0.467614  0  2.153196  0  0  -0.262716  -0.434415  0  2.162148  0
O  O103  1  0.41970029  0.63794383  0.53117612  1  0  -0.492129  0  1.93822  0  0  -0.448203  0  2.159099  0  0  -0.467589  0  2.153337  0  0  -0.262721  -0.434397  0  2.162288  0
O  O104  1  0.91969811  0.53117895  0.63794397  1  0  -0.492146  0  1.9379  0  0  -0.448184  0  2.158824  0  0  -0.467574  0  2.153068  0  0  -0.262687  -0.434376  0  2.162016  0
O  O105  1  0.58030262  0.36206112  0.46882299  1  0  -0.492051  0  1.938122  0  0  -0.44813  0  2.15905  0  0  -0.467528  0  2.153303  0  0  -0.262619  -0.434318  0  2.162228  0
