# generated using pymatgen
data_CdH9C10N6ClO
_symmetry_space_group_name_H-M   'P 1'
_cell_length_a   10.89905175
_cell_length_b   10.44319762
_cell_length_c   13.67200000
_cell_angle_alpha   111.43384347
_cell_angle_beta   110.49604124
_cell_angle_gamma   90.55405700
_symmetry_Int_Tables_number   1
_chemical_formula_structural   CdH9C10N6ClO
_chemical_formula_sum   'Cd4 H36 C40 N24 Cl4 O4'
_cell_volume   1339.83064525
_cell_formula_units_Z   4
loop_
 _symmetry_equiv_pos_site_id
 _symmetry_equiv_pos_as_xyz
  1  'x, y, z'
loop_
 _atom_site_type_symbol
 _atom_site_label
 _atom_site_symmetry_multiplicity
 _atom_site_fract_x
 _atom_site_fract_y
 _atom_site_fract_z
 _atom_site_occupancy
 _atom_site_hle17_bader_spin_density
 _atom_site_hle17_ddec_charge
 _atom_site_hle17_ddec_spin_density
 _atom_site_hle17_ddec_sum_bond_order
 _atom_site_hle17_magmom
 _atom_site_hse06_10hf_bader_spin_density
 _atom_site_hse06_10hf_ddec_charge
 _atom_site_hse06_10hf_ddec_spin_density
 _atom_site_hse06_10hf_ddec_sum_bond_order
 _atom_site_hse06_10hf_magmom
 _atom_site_hse06_bader_spin_density
 _atom_site_hse06_ddec_charge
 _atom_site_hse06_ddec_spin_density
 _atom_site_hse06_ddec_sum_bond_order
 _atom_site_hse06_magmom
 _atom_site_pbe_bader_charge
 _atom_site_pbe_bader_spin_density
 _atom_site_pbe_cm5_charge
 _atom_site_pbe_ddec_charge
 _atom_site_pbe_ddec_spin_density
 _atom_site_pbe_ddec_sum_bond_order
 _atom_site_pbe_magmom
Cd  Cd0  1  0.65021771  0.09462663  0.99090419  1  0  0.992935  0  1.91327  0  0  0.799721  0  2.383621  0  0  0.846872  0  2.342118  0  1.202694  0  0.703094  0.766644  0  2.411572  0
Cd  Cd1  1  0.90424779  0.34812969  0.50833760  1  0  0.990307  0  1.916812  0  0  0.797778  0  2.385669  0  0  0.844835  0  2.344352  0  1.2011  0  0.703427  0.764828  0  2.413554  0
Cd  Cd2  1  0.34978297  0.90537492  0.00909614  1  0  0.992934  0  1.913255  0  0  0.799716  0  2.383616  0  0  0.84687  0  2.342111  0  1.202668  0  0.70308  0.76664  0  2.411567  0
Cd  Cd3  1  0.09575340  0.65186873  0.49166346  1  0  0.99032  0  1.916818  0  0  0.797798  0  2.38566  0  0  0.844859  0  2.344338  0  1.201062  0  0.703439  0.764842  0  2.413557  0
H  H4  1  0.42842804  0.31420461  0.00203568  1  0  0.07495  0  0.936828  0  0  0.083735  0  1.000779  0  0  0.085916  0  0.999394  0  0.087328  0  0.109796  0.082159  0  1.001524  0
H  H5  1  0.68619248  0.57216851  0.49800806  1  0  0.075047  0  0.936059  0  0  0.084403  0  0.999202  0  0  0.086622  0  0.997729  0  0.08831  0  0.110587  0.082831  0  0.999992  0
H  H6  1  0.57157542  0.68579589  0.99796513  1  0  0.074925  0  0.936849  0  0  0.083716  0  1.000797  0  0  0.085896  0  0.999412  0  0.087166  0  0.109772  0.08214  0  1.001542  0
H  H7  1  0.31380953  0.42782886  0.50199075  1  0  0.075061  0  0.93599  0  0  0.084401  0  0.999151  0  0  0.08662  0  0.99768  0  0.088321  0  0.110595  0.08283  0  0.999941  0
H  H8  1  0.29414458  0.44013940  0.88632398  1  0  0.095013  0  0.951293  0  0  0.106397  0  1.008926  0  0  0.109846  0  1.007639  0  0.070752  0  0.102748  0.103759  0  1.010321  0
H  H9  1  0.55849238  0.70535085  0.61286261  1  0  0.096092  0  0.948657  0  0  0.109139  0  1.003538  0  0  0.112545  0  1.002356  0  0.060638  0  0.103405  0.106546  0  1.004908  0
H  H10  1  0.70585692  0.55986110  0.11367629  1  0  0.095033  0  0.951255  0  0  0.106426  0  1.008879  0  0  0.109876  0  1.007592  0  0.070725  0  0.10276  0.103787  0  1.010271  0
H  H11  1  0.44150685  0.29464756  0.38713205  1  0  0.09611  0  0.948655  0  0  0.109144  0  1.003546  0  0  0.112549  0  1.002365  0  0.060675  0  0.103413  0.106552  0  1.004914  0
H  H12  1  0.32437083  0.41689346  0.70744733  1  0  0.09831  0  0.969905  0  0  0.10727  0  1.033807  0  0  0.110461  0  1.030979  0  0.126949  0  0.093354  0.105104  0  1.035302  0
H  H13  1  0.58173149  0.67445836  0.79157260  1  0  0.097091  0  0.974348  0  0  0.106991  0  1.037696  0  0  0.110106  0  1.034921  0  0.133641  0  0.092133  0.104939  0  1.039129  0
H  H14  1  0.67563098  0.58310912  0.29255288  1  0  0.098282  0  0.969926  0  0  0.107246  0  1.03382  0  0  0.110425  0  1.031004  0  0.126967  0  0.093344  0.105076  0  1.035318  0
H  H15  1  0.41826331  0.32554318  0.20842097  1  0  0.097069  0  0.974335  0  0  0.106943  0  1.037715  0  0  0.110055  0  1.034945  0  0.133586  0  0.092153  0.104891  0  1.039146  0
H  H16  1  0.48450235  0.26179655  0.64822214  1  0  0.114761  0  0.937085  0  0  0.124587  0  0.99494  0  0  0.128379  0  0.993566  0  0.100584  0  0.109519  0.121729  0  0.996526  0
H  H17  1  0.73763273  0.51499646  0.85131600  1  0  0.114561  0  0.935555  0  0  0.124568  0  0.993575  0  0  0.128326  0  0.992225  0  0.084541  0  0.109688  0.121825  0  0.994988  0
H  H18  1  0.51550044  0.73820603  0.35177907  1  0  0.114725  0  0.937111  0  0  0.124524  0  0.994993  0  0  0.128314  0  0.993622  0  0.100416  0  0.109485  0.121665  0  0.996579  0
H  H19  1  0.26236156  0.48500821  0.14868269  1  0  0.114536  0  0.935573  0  0  0.124568  0  0.993575  0  0  0.128309  0  0.992243  0  0.084476  0  0.109696  0.121825  0  0.994986  0
H  H20  1  0.95465360  0.80517276  0.69712696  1  0  0.108652  0  0.931959  0  0  0.119995  0  0.991996  0  0  0.122596  0  0.989502  0  0.133463  0  0.120301  0.117986  0  0.993946  0
H  H21  1  0.19983920  0.05003388  0.80545651  1  0  0.108706  0  0.932299  0  0  0.12036  0  0.991934  0  0  0.122901  0  0.989533  0  0.1232  0  0.120477  0.11849  0  0.993648  0
H  H22  1  0.04534955  0.19482565  0.30287464  1  0  0.10867  0  0.931929  0  0  0.120015  0  0.991955  0  0  0.122614  0  0.989463  0  0.133483  0  0.120307  0.118005  0  0.993905  0
H  H23  1  0.80016293  0.94997078  0.19454729  1  0  0.10866  0  0.932343  0  0  0.120339  0  0.991955  0  0  0.12288  0  0.989553  0  0.123144  0  0.120433  0.118468  0  0.99367  0
H  H24  1  0.74216121  0.99416870  0.46463079  1  0  0.115299  0  0.959364  0  0  0.126488  0  1.021908  0  0  0.129565  0  1.018304  0  0.129163  0  0.12268  0.124204  0  1.024545  0
H  H25  1  0.00247663  0.25571577  0.03382678  1  0  0.11642  0  0.954701  0  0  0.126456  0  1.018501  0  0  0.129776  0  1.014503  0  0.135006  0  0.122966  0.124007  0  1.021443  0
H  H26  1  0.25783544  0.00582555  0.53536784  1  0  0.115331  0  0.959336  0  0  0.126497  0  1.021904  0  0  0.129566  0  1.01831  0  0.129183  0  0.122679  0.124213  0  1.02454  0
H  H27  1  0.99752260  0.74428265  0.96617446  1  0  0.116429  0  0.954657  0  0  0.126417  0  1.018514  0  0  0.129736  0  1.014514  0  0.135021  0  0.122953  0.123968  0  1.021454  0
H  H28  1  0.90805366  0.84621101  0.39868455  1  0  0.277413  0  0.93813  0  0  0.245382  0  1.022615  0  0  0.255368  0  1.014207  0  0.555208  0  0.312096  0.238275  0  1.028765  0
H  H29  1  0.15558565  0.09308898  0.10214657  1  0  0.277706  0  0.94098  0  0  0.246265  0  1.024207  0  0  0.256278  0  1.015807  0  0.543274  0  0.312255  0.239128  0  1.030346  0
H  H30  1  0.09194557  0.15378741  0.60131523  1  0  0.277392  0  0.938126  0  0  0.24537  0  1.022592  0  0  0.255355  0  1.01419  0  0.555204  0  0.31209  0.238264  0  1.028741  0
H  H31  1  0.84441275  0.90691048  0.89785328  1  0  0.277707  0  0.941047  0  0  0.246282  0  1.024259  0  0  0.256313  0  1.015841  0  0.543311  0  0.312249  0.23914  0  1.030405  0
H  H32  1  0.84288484  0.34511169  0.18731785  1  0  0.410501  0  0.892912  0  0  0.378562  0  0.958969  0  0  0.388859  0  0.944089  0  0.606137  0  0.262131  0.371304  0  0.969462  0
H  H33  1  0.65761677  0.15772737  0.31197228  1  0  0.410925  0  0.891504  0  0  0.378999  0  0.957643  0  0  0.389318  0  0.942712  0  0.629765  0  0.263162  0.37172  0  0.968173  0
H  H34  1  0.15711388  0.65488985  0.81268266  1  0  0.410527  0  0.892882  0  0  0.378586  0  0.958942  0  0  0.388884  0  0.94406  0  0.606147  0  0.262141  0.371326  0  0.969437  0
H  H35  1  0.34238164  0.84227209  0.68802610  1  0  0.410936  0  0.891492  0  0  0.379012  0  0.95763  0  0  0.389332  0  0.942697  0  0.629833  0  0.263175  0.371733  0  0.968159  0
H  H36  1  0.82891606  0.36770861  0.07656938  1  0  0.423472  0  0.817834  0  0  0.4073  0  0.870666  0  0  0.415344  0  0.861671  0  0.60976  0  0.321448  0.401539  0  0.877297  0
H  H37  1  0.63883418  0.17579157  0.42477498  1  0  0.423501  0  0.817123  0  0  0.406675  0  0.871097  0  0  0.414808  0  0.861888  0  0.600691  0  0.321457  0.400882  0  0.877795  0
H  H38  1  0.17108478  0.63229397  0.92343128  1  0  0.423461  0  0.817902  0  0  0.407283  0  0.870737  0  0  0.415328  0  0.861745  0  0.609794  0  0.321461  0.401521  0  0.877368  0
H  H39  1  0.36116619  0.82420789  0.57522468  1  0  0.423466  0  0.817162  0  0  0.406641  0  0.871136  0  0  0.414776  0  0.861924  0  0.600726  0  0.321446  0.400849  0  0.877832  0
C  C40  1  0.43736109  0.30659765  0.92305752  1  0  0.125757  0  3.763856  0  0  0.095486  0  4.019902  0  0  0.102502  0  4.038996  0  0.521719  0  0.042947  0.091224  0  4.006125  0
C  C41  1  0.69337297  0.56270929  0.57672104  1  0  0.123661  0  3.764533  0  0  0.093201  0  4.021137  0  0  0.100239  0  4.040104  0  0.48959  0  0.041194  0.089004  0  4.00737  0
C  C42  1  0.56264336  0.69340285  0.07694357  1  0  0.125692  0  3.763997  0  0  0.095408  0  4.020058  0  0  0.102426  0  4.039152  0  0.52168  0  0.042889  0.091146  0  4.00628  0
C  C43  1  0.30662724  0.43728913  0.42327609  1  0  0.123772  0  3.764539  0  0  0.093329  0  4.021148  0  0  0.100368  0  4.040113  0  0.489436  0  0.04126  0.08913  0  4.007382  0
C  C44  1  0.36386983  0.37681051  0.85888907  1  0  -0.123406  0  3.750254  0  0  -0.138323  0  4.007109  0  0  -0.145001  0  4.028056  0  -0.057132  0  -0.091058  -0.134496  0  3.992878  0
C  C45  1  0.62222700  0.63549219  0.64041376  1  0  -0.122364  0  3.755363  0  0  -0.138611  0  4.01313  0  0  -0.145263  0  4.034211  0  0.01214  0  -0.090477  -0.134983  0  3.999119  0
C  C46  1  0.63613281  0.62319103  0.14111107  1  0  -0.123411  0  3.750297  0  0  -0.138341  0  4.00716  0  0  -0.145018  0  4.0281  0  -0.056812  0  -0.091054  -0.134509  0  3.992923  0
C  C47  1  0.37777223  0.36450623  0.35958164  1  0  -0.122493  0  3.75547  0  0  -0.138733  0  4.013253  0  0  -0.145385  0  4.034332  0  0.012105  0  -0.090546  -0.135109  0  3.999254  0
C  C48  1  0.38079242  0.36254667  0.75892684  1  0  -0.007135  0  3.729405  0  0  -0.025428  0  3.979262  0  0  -0.021315  0  3.997113  0  -0.026138  0  -0.072502  -0.027403  0  3.967  0
C  C49  1  0.63647312  0.61831869  0.74028857  1  0  -0.005618  0  3.726851  0  0  -0.024691  0  3.977305  0  0  -0.020556  0  3.995034  0  -0.121856  0  -0.072972  -0.026824  0  3.965541  0
C  C50  1  0.61921007  0.63745383  0.24107297  1  0  -0.007098  0  3.729492  0  0  -0.025381  0  3.979325  0  0  -0.021258  0  3.997176  0  -0.026323  0  -0.072504  -0.027354  0  3.967063  0
C  C51  1  0.36352349  0.38168181  0.25970886  1  0  -0.005488  0  3.726797  0  0  -0.024541  0  3.97727  0  0  -0.020406  0  3.99499  0  -0.121784  0  -0.07295  -0.026675  0  3.965505  0
C  C52  1  0.46864083  0.27752199  0.72582897  1  0  -0.138342  0  3.706895  0  0  -0.155981  0  3.95205  0  0  -0.163473  0  3.972347  0  -0.032258  0  -0.08157  -0.151904  0  3.939754  0
C  C53  1  0.72198732  0.53085628  0.77371347  1  0  -0.138011  0  3.701338  0  0  -0.156597  0  3.94763  0  0  -0.163963  0  3.967873  0  0.055268  0  -0.081748  -0.152669  0  3.93542  0
C  C54  1  0.53136490  0.72248059  0.27417306  1  0  -0.138291  0  3.706924  0  0  -0.155921  0  3.952054  0  0  -0.163414  0  3.972347  0  -0.032094  0  -0.08153  -0.151846  0  3.939758  0
C  C55  1  0.27800847  0.46914526  0.22628622  1  0  -0.138086  0  3.701472  0  0  -0.156682  0  3.947738  0  0  -0.164034  0  3.967984  0  0.055288  0  -0.081764  -0.152752  0  3.935528  0
C  C56  1  0.53824857  0.20866654  0.79385493  1  0  0.179727  0  3.774856  0  0  0.178736  0  4.011316  0  0  0.187459  0  4.029286  0  0.448979  0  0.121088  0.17276  0  3.999023  0
C  C57  1  0.79141744  0.46179665  0.70604626  1  0  0.182904  0  3.771173  0  0  0.182642  0  4.00675  0  0  0.191239  0  4.024798  0  0.4869  0  0.122636  0.176714  0  3.994405  0
C  C58  1  0.46175520  0.79133604  0.20614509  1  0  0.179667  0  3.774808  0  0  0.178731  0  4.011205  0  0  0.187455  0  4.029178  0  0.449195  0  0.121094  0.172756  0  3.998913  0
C  C59  1  0.20858015  0.53820385  0.29395365  1  0  0.18299  0  3.771328  0  0  0.182732  0  4.006913  0  0  0.191334  0  4.024951  0  0.486725  0  0.122642  0.176804  0  3.994567  0
C  C60  1  0.63008662  0.11567132  0.76423922  1  0  0.236645  0  3.87349  0  0  0.213073  0  4.145609  0  0  0.221951  0  4.16374  0  0.995782  0  0.185181  0.207454  0  4.132787  0
C  C61  1  0.88424184  0.36997445  0.73568235  1  0  0.236094  0  3.877406  0  0  0.211983  0  4.14955  0  0  0.22089  0  4.167796  0  0.958359  0  0.185016  0.206426  0  4.136636  0
C  C62  1  0.36991504  0.88433022  0.23575919  1  0  0.236745  0  3.873447  0  0  0.213148  0  4.145565  0  0  0.222028  0  4.163696  0  0.9956  0  0.185202  0.207529  0  4.132743  0
C  C63  1  0.11575559  0.63002500  0.26431868  1  0  0.236085  0  3.877527  0  0  0.211946  0  4.149703  0  0  0.220852  0  4.167951  0  0.958485  0  0.185015  0.206389  0  4.136788  0
C  C64  1  0.74842892  0.99171014  0.68732510  1  0  0.309187  0  3.836068  0  0  0.290177  0  4.108268  0  0  0.301638  0  4.125346  0  0.979588  0  0.197777  0.283056  0  4.095847  0
C  C65  1  0.00817311  0.25229149  0.81284165  1  0  0.307021  0  3.840813  0  0  0.287231  0  4.114003  0  0  0.298726  0  4.130973  0  0.989008  0  0.196436  0.280086  0  4.101496  0
C  C66  1  0.25156901  0.00828620  0.31267301  1  0  0.309046  0  3.836149  0  0  0.290043  0  4.108346  0  0  0.301504  0  4.125427  0  0.979567  0  0.197741  0.282924  0  4.095926  0
C  C67  1  0.99182463  0.74771006  0.18716079  1  0  0.306877  0  3.840917  0  0  0.287116  0  4.114112  0  0  0.298613  0  4.131081  0  0.988995  0  0.196393  0.279971  0  4.101603  0
C  C68  1  0.81544099  0.92541639  0.61176492  1  0  -0.101338  0  3.842028  0  0  -0.087059  0  4.099109  0  0  -0.095683  0  4.122709  0  0.027264  0  -0.026781  -0.081337  0  4.081815  0
C  C69  1  0.07483744  0.18579564  0.88872176  1  0  -0.101863  0  3.844481  0  0  -0.086529  0  4.100162  0  0  -0.095187  0  4.12371  0  0.037249  0  -0.025831  -0.080882  0  4.082986  0
C  C70  1  0.18455612  0.07458099  0.38823471  1  0  -0.101203  0  3.841865  0  0  -0.086941  0  4.098948  0  0  -0.095563  0  4.122545  0  0.027275  0  -0.026773  -0.081221  0  4.081658  0
C  C71  1  0.92516195  0.81420382  0.11127908  1  0  -0.101723  0  3.844388  0  0  -0.086474  0  4.100153  0  0  -0.095128  0  4.123696  0  0.037211  0  -0.025817  -0.080829  0  4.082979  0
C  C72  1  0.91423591  0.84045942  0.62849317  1  0  0.018987  0  3.71303  0  0  -0.033843  0  3.99462  0  0  -0.025401  0  4.009591  0  0.426176  0  0.018252  -0.038658  0  3.983484  0
C  C73  1  0.16331652  0.08939697  0.87354674  1  0  0.019407  0  3.716338  0  0  -0.032591  0  3.995228  0  0  -0.024273  0  4.010485  0  0.425711  0  0.019249  -0.037332  0  3.983753  0
C  C74  1  0.08576513  0.15953795  0.37150609  1  0  0.018915  0  3.713069  0  0  -0.033906  0  3.994667  0  0  -0.025462  0  4.009638  0  0.426144  0  0.018235  -0.038718  0  3.983531  0
C  C75  1  0.83668561  0.91060770  0.12645633  1  0  0.019374  0  3.716369  0  0  -0.032632  0  3.995271  0  0  -0.024315  0  4.01053  0  0.425741  0  0.019269  -0.037372  0  3.983796  0
C  C76  1  0.80309275  0.93703415  0.51011646  1  0  0.041278  0  3.611942  0  0  -0.016434  0  3.878063  0  0  -0.00689  0  3.890539  0  0.431779  0  0.029243  -0.022336  0  3.869245  0
C  C77  1  0.06201403  0.19681959  0.98968087  1  0  0.043895  0  3.610632  0  0  -0.013334  0  3.876502  0  0  -0.003605  0  3.888533  0  0.416124  0  0.030988  -0.019433  0  3.86804  0
C  C78  1  0.19690452  0.06296427  0.48988423  1  0  0.041208  0  3.611899  0  0  -0.01648  0  3.878032  0  0  -0.006926  0  3.890507  0  0.431808  0  0.029274  -0.022381  0  3.869215  0
C  C79  1  0.93798536  0.80317987  0.01032218  1  0  0.043853  0  3.61065  0  0  -0.013286  0  3.876513  0  0  -0.003559  0  3.888547  0  0.415761  0  0.031022  -0.019387  0  3.868054  0
N  N80  1  0.52257856  0.22522956  0.89190188  1  0  -0.377942  0  3.255083  0  0  -0.304381  0  3.5101  0  0  -0.32386  0  3.528434  0  -1.244478  0  -0.332307  -0.290789  0  3.496943  0
N  N81  1  0.77545850  0.47789713  0.60826686  1  0  -0.37949  0  3.252145  0  0  -0.306497  0  3.507372  0  0  -0.325925  0  3.525602  0  -1.255633  0  -0.332241  -0.292696  0  3.494217  0
N  N82  1  0.47742619  0.77477302  0.10809841  1  0  -0.377885  0  3.255024  0  0  -0.304333  0  3.51002  0  0  -0.323814  0  3.528352  0  -1.244443  0  -0.33226  -0.290743  0  3.496863  0
N  N83  1  0.22454073  0.52210129  0.39173365  1  0  -0.379589  0  3.252169  0  0  -0.306603  0  3.507401  0  0  -0.326032  0  3.525627  0  -1.255415  0  -0.332281  -0.292801  0  3.494247  0
N  N84  1  0.69792165  0.05586360  0.83472810  1  0  -0.329992  0  3.257616  0  0  -0.266401  0  3.543374  0  0  -0.284363  0  3.564761  0  -0.754971  0  -0.273274  -0.2544  0  3.528953  0
N  N85  1  0.94398812  0.30132319  0.66502894  1  0  -0.32965  0  3.265236  0  0  -0.265484  0  3.550149  0  0  -0.283547  0  3.571713  0  -0.765727  0  -0.273109  -0.253553  0  3.535721  0
N  N86  1  0.30208083  0.94413690  0.16527317  1  0  -0.330037  0  3.257719  0  0  -0.266445  0  3.543475  0  0  -0.284407  0  3.56486  0  -0.755042  0  -0.273291  -0.254444  0  3.529055  0
N  N87  1  0.05601127  0.69867627  0.33497118  1  0  -0.32967  0  3.265262  0  0  -0.265494  0  3.550173  0  0  -0.283558  0  3.571737  0  -0.765794  0  -0.273108  -0.253562  0  3.535743  0
N  N88  1  0.77419462  0.97548465  0.78656570  1  0  -0.303917  0  2.992865  0  0  -0.275292  0  3.26211  0  0  -0.287465  0  3.281445  0  -0.702689  0  -0.231681  -0.267514  0  3.249241  0
N  N89  1  0.02450275  0.22561606  0.71343030  1  0  -0.305749  0  2.994256  0  0  -0.277145  0  3.263935  0  0  -0.289292  0  3.283239  0  -0.692926  0  -0.232966  -0.26942  0  3.251056  0
N  N90  1  0.22580610  0.02451064  0.21343436  1  0  -0.303861  0  2.993034  0  0  -0.275238  0  3.262274  0  0  -0.287407  0  3.281608  0  -0.702607  0  -0.231697  -0.267461  0  3.249404  0
N  N91  1  0.97549597  0.77438549  0.28657094  1  0  -0.305752  0  2.994336  0  0  -0.277151  0  3.264007  0  0  -0.289299  0  3.28331  0  -0.693022  0  -0.233007  -0.269424  0  3.251126  0
N  N92  1  0.65826339  0.07800006  0.66972100  1  0  -0.471753  0  2.895209  0  0  -0.448906  0  3.161288  0  0  -0.462517  0  3.172188  0  -1.172614  0  -0.355411  -0.439563  0  3.153331  0
N  N93  1  0.92180794  0.34273543  0.83043077  1  0  -0.468985  0  2.89327  0  0  -0.445795  0  3.159545  0  0  -0.459404  0  3.170519  0  -1.17287  0  -0.353537  -0.436174  0  3.151198  0
N  N94  1  0.34173682  0.92199836  0.33027832  1  0  -0.471759  0  2.895196  0  0  -0.448911  0  3.161275  0  0  -0.462525  0  3.172177  0  -1.172602  0  -0.355389  -0.439569  0  3.153318  0
N  N95  1  0.07818980  0.65726611  0.16957020  1  0  -0.468877  0  2.893211  0  0  -0.445675  0  3.159474  0  0  -0.459284  0  3.170447  0  -1.172734  0  -0.35346  -0.436053  0  3.151124  0
N  N96  1  0.88991247  0.86338762  0.47250616  1  0  -0.137013  0  3.486705  0  0  -0.074151  0  3.724287  0  0  -0.086903  0  3.743733  0  -0.852193  0  -0.273769  -0.065628  0  3.711243  0
N  N97  1  0.13873014  0.11183346  0.02858152  1  0  -0.140372  0  3.488739  0  0  -0.077213  0  3.724842  0  0  -0.090099  0  3.744332  0  -0.848539  0  -0.27444  -0.068562  0  3.711751  0
N  N98  1  0.11008758  0.13660975  0.52749430  1  0  -0.136984  0  3.486699  0  0  -0.074126  0  3.724285  0  0  -0.086879  0  3.743729  0  -0.852258  0  -0.273796  -0.065607  0  3.711242  0
N  N99  1  0.86126842  0.88816704  0.97142085  1  0  -0.140415  0  3.488936  0  0  -0.077304  0  3.725048  0  0  -0.090206  0  3.74452  0  -0.848476  0  -0.274477  -0.068651  0  3.71196  0
N  N100  1  0.95866591  0.80404661  0.54380954  1  0  -0.257638  0  3.194944  0  0  -0.198067  0  3.478058  0  0  -0.214378  0  3.498367  0  -0.75227  0  -0.263999  -0.186949  0  3.463875  0
N  N101  1  0.20130192  0.04561055  0.95882044  1  0  -0.258058  0  3.192779  0  0  -0.198486  0  3.475577  0  0  -0.214853  0  3.495907  0  -0.740397  0  -0.264562  -0.187259  0  3.461372  0
N  N102  1  0.04133641  0.19595284  0.45618993  1  0  -0.257608  0  3.194942  0  0  -0.198033  0  3.478054  0  0  -0.214343  0  3.498361  0  -0.752204  0  -0.263964  -0.186914  0  3.463871  0
N  N103  1  0.79870087  0.95439203  0.04118223  1  0  -0.258002  0  3.19281  0  0  -0.198407  0  3.475595  0  0  -0.214773  0  3.49593  0  -0.740059  0  -0.264546  -0.187182  0  3.46139  0
Cl  Cl104  1  0.55389971  0.14039865  0.14319612  1  0  -0.58011  0  0.985705  0  0  -0.513061  0  1.262853  0  0  -0.531447  0  1.23945  0  -0.648837  0  -0.279237  -0.499785  0  1.27791  0
Cl  Cl105  1  0.86308841  0.44821829  0.35799216  1  0  -0.579047  0  0.988291  0  0  -0.511764  0  1.264567  0  0  -0.530085  0  1.241309  0  -0.648116  0  -0.27975  -0.498575  0  1.279813  0
Cl  Cl106  1  0.44609819  0.85960393  0.85680226  1  0  -0.580119  0  0.985674  0  0  -0.513068  0  1.262821  0  0  -0.531459  0  1.239417  0  -0.648828  0  -0.279249  -0.499789  0  1.277867  0
Cl  Cl107  1  0.13691263  0.55177909  0.64200930  1  0  -0.579055  0  0.988292  0  0  -0.51177  0  1.264562  0  0  -0.530093  0  1.241306  0  -0.648061  0  -0.279746  -0.498583  0  1.279812  0
O  O108  1  0.83210052  0.29601019  0.10669924  1  0  -0.794835  0  1.850084  0  0  -0.741591  0  2.031384  0  0  -0.760114  0  2.003385  0  -1.210458  0  -0.572147  -0.728562  0  2.050879  0
O  O109  1  0.70522417  0.16532600  0.39099207  1  0  -0.79359  0  1.849447  0  0  -0.739949  0  2.030016  0  0  -0.758506  0  2.002044  0  -1.223752  0  -0.571357  -0.726931  0  2.049494  0
O  O110  1  0.16790228  0.70399239  0.89330197  1  0  -0.794846  0  1.850125  0  0  -0.741586  0  2.03143  0  0  -0.760112  0  2.003427  0  -1.210492  0  -0.572161  -0.728556  0  2.050928  0
O  O111  1  0.29477521  0.83467346  0.60900658  1  0  -0.793555  0  1.84947  0  0  -0.739912  0  2.030027  0  0  -0.758472  0  2.00205  0  -1.22386  0  -0.571348  -0.726895  0  2.049505  0
