# generated using pymatgen
data_AlH12C15(NO2)3
_symmetry_space_group_name_H-M   'P 1'
_cell_length_a   3.92038274
_cell_length_b   17.21833101
_cell_length_c   17.21835080
_cell_angle_alpha   120.00013924
_cell_angle_beta   90.00026973
_cell_angle_gamma   89.99986852
_symmetry_Int_Tables_number   1
_chemical_formula_structural   AlH12C15(NO2)3
_chemical_formula_sum   'Al2 H24 C30 N6 O12'
_cell_volume   1006.56330763
_cell_formula_units_Z   2
loop_
 _symmetry_equiv_pos_site_id
 _symmetry_equiv_pos_as_xyz
  1  'x, y, z'
loop_
 _atom_site_type_symbol
 _atom_site_label
 _atom_site_symmetry_multiplicity
 _atom_site_fract_x
 _atom_site_fract_y
 _atom_site_fract_z
 _atom_site_occupancy
 _atom_site_pbe_bader_charge
 _atom_site_pbe_bader_spin_density
 _atom_site_pbe_cm5_charge
 _atom_site_pbe_ddec_charge
 _atom_site_pbe_ddec_spin_density
 _atom_site_pbe_ddec_sum_bond_order
 _atom_site_pbe_magmom
Al  Al0  1  0.98368210  0.49999915  0.49999996  1  2.500133  0  0.419726  1.581908  0  2.583891  0
Al  Al1  1  0.01604951  0.16666786  0.83333343  1  2.499063  0  0.419305  1.580226  0  2.586623  0
H  H2  1  0.27002187  0.11275976  0.52974568  1  0.041981  0  0.086777  0.088922  0  1.020756  0
H  H3  1  0.72541364  0.11197992  0.52973126  1  0.037113  0  0.087209  0.089417  0  1.017906  0
H  H4  1  0.72996038  0.19630961  0.44607083  1  0.05121  0  0.086832  0.089117  0  1.020708  0
H  H5  1  0.27455841  0.19635030  0.44534341  1  0.034317  0  0.087242  0.08991  0  1.018284  0
H  H6  1  0.27001898  0.91698638  0.88723905  1  0.056123  0  0.08678  0.088945  0  1.020745  0
H  H7  1  0.72541074  0.91775135  0.88802036  1  0.027833  0  0.087214  0.089427  0  1.017908  0
H  H8  1  0.72995874  0.74976128  0.80369049  1  0.050649  0  0.08684  0.089121  0  1.020678  0
H  H9  1  0.27455678  0.74899367  0.80364824  1  0.034702  0  0.087227  0.089868  0  1.018352  0
H  H10  1  0.27001551  0.47025263  0.08301265  1  0.046829  0  0.08677  0.088944  0  1.020729  0
H  H11  1  0.72541236  0.47026892  0.08224858  1  0.033722  0  0.087209  0.089424  0  1.017902  0
H  H12  1  0.72995659  0.55392963  0.25023856  1  0.052254  0  0.086846  0.089139  0  1.020711  0
H  H13  1  0.27455463  0.55465514  0.25100540  1  0.050264  0  0.087243  0.089907  0  1.018346  0
H  H14  1  0.44235950  0.55619153  0.73201896  1  0.429025  0  0.298359  0.298393  0  0.963142  0
H  H15  1  0.62832184  0.55305979  0.81889414  1  0.4222  0  0.292018  0.278765  0  0.975754  0
H  H16  1  0.55754708  0.39870028  0.88958193  1  0.439026  0  0.298418  0.298419  0  0.963184  0
H  H17  1  0.37160559  0.48557440  0.88641756  1  0.436068  0  0.291935  0.278578  0  0.976036  0
H  H18  1  0.44236360  0.67582842  0.44380846  1  0.422011  0  0.298376  0.298424  0  0.963186  0
H  H19  1  0.62832717  0.76583564  0.44694069  1  0.423246  0  0.291999  0.278721  0  0.975741  0
H  H20  1  0.55755393  0.99088279  0.60130143  1  0.441834  0  0.298466  0.298454  0  0.963184  0
H  H21  1  0.37161246  0.90084398  0.51442725  1  0.437867  0  0.291938  0.278588  0  0.975982  0
H  H22  1  0.44236186  0.26798090  0.32417165  1  0.47405  0  0.29837  0.298392  0  0.963177  0
H  H23  1  0.62832025  0.18110576  0.23416421  1  0.42619  0  0.292025  0.278764  0  0.975739  0
H  H24  1  0.55755225  0.11041736  0.00911748  1  0.442791  0  0.298428  0.298398  0  0.963249  0
H  H25  1  0.37160702  0.11358237  0.09915540  1  0.397417  0  0.291964  0.278622  0  0.975968  0
C  C26  1  0.48482413  0.42872939  0.36165307  1  1.507745  0  0.277702  0.676361  0  4.051172  0
C  C27  1  0.48482626  0.43292386  0.57127036  1  1.546896  0  0.277658  0.676334  0  4.0512  0
C  C28  1  0.48482774  0.63834669  0.56707547  1  1.554348  0  0.277727  0.676569  0  4.050977  0
C  C29  1  0.51506863  0.23793144  0.76629022  1  1.523814  0  0.277129  0.675794  0  4.053125  0
C  C30  1  0.51507218  0.02835925  0.76206993  1  1.59686  0  0.277149  0.675818  0  4.052995  0
C  C31  1  0.51507330  0.23371074  0.97164081  1  1.497416  0  0.277144  0.675863  0  4.052978  0
C  C32  1  0.51340733  0.28899831  0.71835385  1  -0.003141  0  -0.020937  -0.184089  0  3.986805  0
C  C33  1  0.48674010  0.38500335  0.62234437  1  -0.009423  0  -0.020758  -0.183481  0  3.984488  0
C  C34  1  0.49940285  0.24518200  0.62490350  1  0.124835  0  -0.021093  0.041484  0  3.956353  0
C  C35  1  0.48348351  0.43145726  0.71711453  1  0.442796  0  0.094545  0.184946  0  4.004407  0
C  C36  1  0.50083568  0.29156189  0.57851559  1  -0.052808  0  -0.020736  0.042011  0  3.954895  0
C  C37  1  0.51652437  0.38377190  0.76482651  1  0.377944  0  0.095074  0.18539  0  4.005485  0
C  C38  1  0.49882597  0.15381001  0.54032901  1  -0.023113  0  -0.153336  -0.184702  0  3.870237  0
C  C39  1  0.50119482  0.20693564  0.48715704  1  -0.052248  0  -0.153228  -0.185904  0  3.871087  0
C  C40  1  0.51341171  0.92935533  0.71100182  1  0.056044  0  -0.020951  -0.184097  0  3.986852  0
C  C41  1  0.48675102  0.73734123  0.61499673  1  0.075468  0  -0.020741  -0.183512  0  3.984434  0
C  C42  1  0.49940612  0.87972183  0.75481814  1  -0.106004  0  -0.021114  0.04143  0  3.95643  0
C  C43  1  0.48349552  0.78565949  0.56854404  1  0.439189  0  0.094595  0.185021  0  4.004384  0
C  C44  1  0.50083964  0.78695435  0.70843830  1  -0.002297  0  -0.020749  0.042001  0  3.954882  0
C  C45  1  0.51652547  0.88105664  0.61622841  1  0.347413  0  0.095028  0.185319  0  4.00563  0
C  C46  1  0.49882545  0.88651912  0.84618953  1  -0.023625  0  -0.15332  -0.184719  0  3.870253  0
C  C47  1  0.50119255  0.78022183  0.79306457  1  -0.045775  0  -0.153212  -0.185826  0  3.871047  0
C  C48  1  0.51340837  0.28164653  0.07064419  1  0.088878  0  -0.020954  -0.184142  0  3.986871  0
C  C49  1  0.48674410  0.37765478  0.26265721  1  0.137285  0  -0.020765  -0.183467  0  3.984447  0
C  C50  1  0.49940468  0.37509577  0.12027761  1  0.038962  0  -0.021091  0.041513  0  3.95645  0
C  C51  1  0.48348674  0.28288410  0.21434057  1  0.402073  0  0.094567  0.18499  0  4.004439  0
C  C52  1  0.50083128  0.42148461  0.21304528  1  -0.053889  0  -0.020774  0.041961  0  3.954918  0
C  C53  1  0.51652870  0.23517298  0.11894361  1  0.335307  0  0.095043  0.185321  0  4.005574  0
C  C54  1  0.49882517  0.45966989  0.11348013  1  -0.020492  0  -0.15331  -0.184733  0  3.870222  0
C  C55  1  0.50119056  0.51284455  0.21977872  1  -0.062603  0  -0.153211  -0.185877  0  3.87106  0
N  N56  1  0.45223152  0.52478855  0.76869417  1  -1.183242  0  -0.604814  -0.618322  0  3.307116  0
N  N57  1  0.54766744  0.43535512  0.85814719  1  -1.215881  0  -0.604621  -0.617863  0  3.308047  0
N  N58  1  0.45223762  0.74390719  0.47521223  1  -1.182609  0  -0.604832  -0.618333  0  3.307108  0
N  N59  1  0.54767730  0.92279389  0.56464595  1  -1.226802  0  -0.604641  -0.617857  0  3.308135  0
N  N60  1  0.45223283  0.23130602  0.25609294  1  -1.233164  0  -0.604823  -0.618316  0  3.307162  0
N  N61  1  0.54767110  0.14185242  0.07720669  1  -1.191539  0  -0.604655  -0.617865  0  3.3081  0
O  O62  1  0.71776968  0.59909662  0.58672089  1  -1.258489  0  -0.238364  -0.596332  0  2.343213  0
O  O63  1  0.71776323  0.48762421  0.40090278  1  -1.259707  0  -0.238355  -0.596269  0  2.343326  0
O  O64  1  0.71776730  0.41327752  0.51237603  1  -1.253711  0  -0.238333  -0.596256  0  2.34333  0
O  O65  1  0.25126086  0.59729151  0.50845058  1  -1.259684  0  -0.23886  -0.603232  0  2.356917  0
O  O66  1  0.25125456  0.49155028  0.58884182  1  -1.256458  0  -0.238805  -0.603071  0  2.356868  0
O  O67  1  0.25125561  0.41115747  0.40270678  1  -1.259099  0  -0.238821  -0.603071  0  2.356858  0
O  O68  1  0.74862435  0.17507128  0.93059461  1  -1.2591  0  -0.238407  -0.602484  0  2.356765  0
O  O69  1  0.74861521  0.25552514  0.82492943  1  -1.262032  0  -0.238373  -0.602433  0  2.356751  0
O  O70  1  0.74862042  0.06940486  0.74447513  1  -1.26321  0  -0.238393  -0.602453  0  2.356764  0
O  O71  1  0.28206749  0.25338439  0.93243441  1  -1.25891  0  -0.237826  -0.595412  0  2.343565  0
O  O72  1  0.28206728  0.06756606  0.82094927  1  -1.260647  0  -0.237858  -0.595415  0  2.34355  0
O  O73  1  0.28206341  0.17905247  0.74661773  1  -1.261486  0  -0.237819  -0.595384  0  2.343623  0
