# generated using pymatgen
data_PrH9C9(NO3)3
_symmetry_space_group_name_H-M   'P 1'
_cell_length_a   6.24908654
_cell_length_b   7.73952299
_cell_length_c   13.56031187
_cell_angle_alpha   81.23018760
_cell_angle_beta   85.67471785
_cell_angle_gamma   76.75824736
_symmetry_Int_Tables_number   1
_chemical_formula_structural   PrH9C9(NO3)3
_chemical_formula_sum   'Pr2 H18 C18 N6 O18'
_cell_volume   630.38345600
_cell_formula_units_Z   2
loop_
 _symmetry_equiv_pos_site_id
 _symmetry_equiv_pos_as_xyz
  1  'x, y, z'
loop_
 _atom_site_type_symbol
 _atom_site_label
 _atom_site_symmetry_multiplicity
 _atom_site_fract_x
 _atom_site_fract_y
 _atom_site_fract_z
 _atom_site_occupancy
 _atom_site_hle17_bader_spin_density
 _atom_site_hle17_ddec_charge
 _atom_site_hle17_ddec_spin_density
 _atom_site_hle17_ddec_sum_bond_order
 _atom_site_hle17_magmom
 _atom_site_hse06_10hf_bader_spin_density
 _atom_site_hse06_10hf_ddec_charge
 _atom_site_hse06_10hf_ddec_spin_density
 _atom_site_hse06_10hf_ddec_sum_bond_order
 _atom_site_hse06_10hf_magmom
 _atom_site_hse06_bader_spin_density
 _atom_site_hse06_ddec_charge
 _atom_site_hse06_ddec_spin_density
 _atom_site_hse06_ddec_sum_bond_order
 _atom_site_hse06_magmom
 _atom_site_pbe_bader_spin_density
 _atom_site_pbe_cm5_charge
 _atom_site_pbe_ddec_charge
 _atom_site_pbe_ddec_spin_density
 _atom_site_pbe_ddec_sum_bond_order
 _atom_site_pbe_magmom
Pr  Pr0  1  0.22229819  0.70896871  0.23139512  1  0  2.284856  0  1.64892  0  0  2.103929  0  2.132075  0  0  2.195776  0  1.986046  0  0  1.479917  2.07371  0  2.16628  0
Pr  Pr1  1  0.77769255  0.29103052  0.76860096  1  0  2.284908  0  1.64882  0  0  2.104033  0  2.131925  0  0  2.195854  0  1.985947  0  0  1.479915  2.073789  0  2.16615  0
H  H2  1  0.89802462  0.40332292  0.50397417  1  0  0.102677  0  0.95412  0  0  0.103017  0  1.029455  0  0  0.107548  0  1.024315  0  0  0.129626  0.099552  0  1.033583  0
H  H3  1  0.10197538  0.59668756  0.49601858  1  0  0.102677  0  0.954218  0  0  0.103008  0  1.029554  0  0  0.107541  0  1.024409  0  0  0.129642  0.099546  0  1.03368  0
H  H4  1  0.11975440  0.60935410  0.83167081  1  0  0.113528  0  0.941515  0  0  0.116591  0  1.009682  0  0  0.120608  0  1.006018  0  0  0.133034  0.113661  0  1.012317  0
H  H5  1  0.88025177  0.39064702  0.16832540  1  0  0.113615  0  0.941509  0  0  0.116666  0  1.009699  0  0  0.120681  0  1.006039  0  0  0.133084  0.113738  0  1.012333  0
H  H6  1  0.43916591  0.29414511  0.31053800  1  0  0.40217  0  0.913679  0  0  0.360883  0  0.995624  0  0  0.372181  0  0.979498  0  0  0.285999  0.353045  0  1.00684  0
H  H7  1  0.56083676  0.70585168  0.68946233  1  0  0.402184  0  0.913666  0  0  0.360935  0  0.99556  0  0  0.372233  0  0.979433  0  0  0.286028  0.353102  0  1.006768  0
H  H8  1  0.49565529  0.33283047  0.19471906  1  0  0.429211  0  0.877664  0  0  0.396919  0  0.944407  0  0  0.407382  0  0.929398  0  0  0.294592  0.389523  0  0.955127  0
H  H9  1  0.50433830  0.66716472  0.80527944  1  0  0.429288  0  0.877561  0  0  0.396921  0  0.944408  0  0  0.407388  0  0.929394  0  0  0.29463  0.389526  0  0.955126  0
H  H10  1  0.80479778  0.00891400  0.13631829  1  0  0.444782  0  0.845711  0  0  0.416796  0  0.90262  0  0  0.426723  0  0.888295  0  0  0.303812  0.409965  0  0.91252  0
H  H11  1  0.19519460  0.99108546  0.86367330  1  0  0.444799  0  0.845669  0  0  0.416805  0  0.902595  0  0  0.426735  0  0.888264  0  0  0.303808  0.409971  0  0.912499  0
H  H12  1  0.76509076  0.81319173  0.16982433  1  0  0.435928  0  0.864619  0  0  0.407758  0  0.923308  0  0  0.418883  0  0.907173  0  0  0.302877  0.399761  0  0.935068  0
H  H13  1  0.23490043  0.18680625  0.83016962  1  0  0.436017  0  0.864495  0  0  0.407795  0  0.923267  0  0  0.41892  0  0.907131  0  0  0.302894  0.399796  0  0.93503  0
H  H14  1  0.35584912  0.09933525  0.15806131  1  0  0.455746  0  0.817135  0  0  0.426201  0  0.875517  0  0  0.437136  0  0.859378  0  0  0.314418  0.418561  0  0.886841  0
H  H15  1  0.64413114  0.90066604  0.84194231  1  0  0.455732  0  0.817137  0  0  0.426173  0  0.875535  0  0  0.437139  0  0.859359  0  0  0.314428  0.418516  0  0.886879  0
H  H16  1  0.14609864  0.10998726  0.23685595  1  0  0.433465  0  0.862193  0  0  0.400587  0  0.92965  0  0  0.412147  0  0.912707  0  0  0.299875  0.392267  0  0.941957  0
H  H17  1  0.85390370  0.89001433  0.76316026  1  0  0.433552  0  0.862107  0  0  0.400648  0  0.929605  0  0  0.412218  0  0.912642  0  0  0.299921  0.392324  0  0.941918  0
H  H18  1  0.84454750  0.79343455  0.54405857  1  0  0.100707  0  0.941701  0  0  0.107754  0  1.007138  0  0  0.111189  0  1.004485  0  0  0.124534  0.105277  0  1.009075  0
H  H19  1  0.15546042  0.20655538  0.45594948  1  0  0.100748  0  0.941597  0  0  0.107863  0  1.007013  0  0  0.111313  0  1.004309  0  0  0.124553  0.105385  0  1.008953  0
C  C20  1  0.74100365  0.59109687  0.32091447  1  0  0.67028  0  3.904809  0  0  0.615332  0  4.203908  0  0  0.650242  0  4.196564  0  0  0.237875  0.591498  0  4.211181  0
C  C21  1  0.25898831  0.40890398  0.67907555  1  0  0.670421  0  3.904493  0  0  0.615444  0  4.203662  0  0  0.65039  0  4.196271  0  0  0.237753  0.591584  0  4.210976  0
C  C22  1  0.61576592  0.53740024  0.41518483  1  0  0.070823  0  3.711065  0  0  0.074288  0  3.959192  0  0  0.072797  0  3.976831  0  0  0.135763  0.074944  0  3.948741  0
C  C23  1  0.38423769  0.46260900  0.58480864  1  0  0.070788  0  3.711044  0  0  0.074287  0  3.959108  0  0  0.072765  0  3.976778  0  0  0.135906  0.074947  0  3.948663  0
C  C24  1  0.72035155  0.44730001  0.50183062  1  0  0.118147  0  3.625823  0  0  0.079493  0  3.890615  0  0  0.083513  0  3.905602  0  0  0.081183  0.076592  0  3.88227  0
C  C25  1  0.27964283  0.55271298  0.49816211  1  0  0.11819  0  3.625709  0  0  0.079562  0  3.890448  0  0  0.08359  0  3.905441  0  0  0.081188  0.076642  0  3.882145  0
C  C26  1  0.32198588  0.71455940  0.98311676  1  0  0.661339  0  3.894955  0  0  0.604357  0  4.200593  0  0  0.637864  0  4.193706  0  0  0.23452  0.581731  0  4.205836  0
C  C27  1  0.67801452  0.28544961  0.01687978  1  0  0.661411  0  3.894848  0  0  0.604463  0  4.200482  0  0  0.637964  0  4.193597  0  0  0.234542  0.581844  0  4.20572  0
C  C28  1  0.15001125  0.60205308  0.99098048  1  0  0.061992  0  3.688398  0  0  0.066346  0  3.937169  0  0  0.064511  0  3.956215  0  0  0.132784  0.067203  0  3.925734  0
C  C29  1  0.84998799  0.39795453  0.00901620  1  0  0.062135  0  3.688545  0  0  0.066456  0  3.937365  0  0  0.064617  0  3.956417  0  0  0.132827  0.067312  0  3.925928  0
C  C30  1  0.06650837  0.55950544  0.90686304  1  0  0.116005  0  3.602711  0  0  0.082085  0  3.857893  0  0  0.08624  0  3.873081  0  0  0.081045  0.07919  0  3.848873  0
C  C31  1  0.93349058  0.44049810  0.09313395  1  0  0.115841  0  3.602754  0  0  0.081916  0  3.857968  0  0  0.08607  0  3.873166  0  0  0.080984  0.079023  0  3.848946  0
C  C32  1  0.87787930  0.02206408  0.36733331  1  0  0.630623  0  3.947358  0  0  0.579395  0  4.249882  0  0  0.61297  0  4.243435  0  0  0.213601  0.556554  0  4.254575  0
C  C33  1  0.12213132  0.97792719  0.63267752  1  0  0.630747  0  3.94683  0  0  0.579585  0  4.249262  0  0  0.613161  0  4.242807  0  0  0.213769  0.556738  0  4.253962  0
C  C34  1  0.67808241  0.01406729  0.43784555  1  0  0.078623  0  3.65817  0  0  0.081789  0  3.907624  0  0  0.081425  0  3.922809  0  0  0.129264  0.081678  0  3.897419  0
C  C35  1  0.32193095  0.98592544  0.56216508  1  0  0.078501  0  3.658071  0  0  0.081661  0  3.907658  0  0  0.081293  0  3.922841  0  0  0.129153  0.081554  0  3.89745  0
C  C36  1  0.68945852  0.88508005  0.52322670  1  0  0.084392  0  3.631657  0  0  0.04652  0  3.889034  0  0  0.04956  0  3.903732  0  0  0.064827  0.044434  0  3.879188  0
C  C37  1  0.31055327  0.11491268  0.47678250  1  0  0.08452  0  3.631412  0  0  0.046488  0  3.888893  0  0  0.04954  0  3.903613  0  0  0.064903  0.044405  0  3.879044  0
N  N38  1  0.39557257  0.58881237  0.41390814  1  0  -0.327075  0  3.20329  0  0  -0.282366  0  3.463439  0  0  -0.294479  0  3.479812  0  0  -0.337771  -0.277452  0  3.45364  0
N  N39  1  0.60442022  0.41120056  0.58608465  1  0  -0.327037  0  3.203542  0  0  -0.28232  0  3.463693  0  0  -0.294419  0  3.480075  0  0  -0.337784  -0.277399  0  3.45388  0
N  N40  1  0.08214477  0.54269871  0.08380023  1  0  -0.317314  0  3.172091  0  0  -0.270843  0  3.43067  0  0  -0.283422  0  3.447123  0  0  -0.313021  -0.265229  0  3.420356  0
N  N41  1  0.91785653  0.45730773  0.91619352  1  0  -0.317416  0  3.172155  0  0  -0.270944  0  3.430755  0  0  -0.283518  0  3.447203  0  0  -0.313014  -0.265329  0  3.420441  0
N  N42  1  0.48616713  0.12948833  0.41594012  1  0  -0.251861  0  3.125624  0  0  -0.200606  0  3.370205  0  0  -0.208529  0  3.384592  0  0  -0.270926  -0.195013  0  3.360421  0
N  N43  1  0.51384740  0.87050582  0.58406964  1  0  -0.251679  0  3.125643  0  0  -0.20053  0  3.37026  0  0  -0.208443  0  3.384643  0  0  -0.270824  -0.194939  0  3.36047  0
O  O44  1  0.62516764  0.68218530  0.24923111  1  0  -0.708581  0  2.095153  0  0  -0.65023  0  2.339901  0  0  -0.681564  0  2.328414  0  0  -0.359012  -0.632689  0  2.347416  0
O  O45  1  0.37482956  0.31779965  0.75075551  1  0  -0.70873  0  2.095078  0  0  -0.650317  0  2.339823  0  0  -0.681655  0  2.328313  0  0  -0.35896  -0.632771  0  2.347354  0
O  O46  1  0.94793606  0.54916477  0.32064833  1  0  -0.663233  0  2.038189  0  0  -0.613542  0  2.298352  0  0  -0.643589  0  2.2867  0  0  -0.366812  -0.596517  0  2.304869  0
O  O47  1  0.05205417  0.45084144  0.67934135  1  0  -0.66318  0  2.03782  0  0  -0.613615  0  2.298151  0  0  -0.643663  0  2.286479  0  0  -0.366833  -0.596583  0  2.304673  0
O  O48  1  0.39592946  0.73434170  0.06395662  1  0  -0.67593  0  1.996846  0  0  -0.62615  0  2.245757  0  0  -0.65563  0  2.232767  0  0  -0.385823  -0.609873  0  2.252766  0
O  O49  1  0.60406384  0.26566429  0.93604183  1  0  -0.676007  0  1.996738  0  0  -0.626228  0  2.245637  0  0  -0.655703  0  2.232648  0  0  -0.38583  -0.609953  0  2.25265  0
O  O50  1  0.38103514  0.78140105  0.89653621  1  0  -0.637066  0  2.006065  0  0  -0.568991  0  2.219455  0  0  -0.593132  0  2.206538  0  0  -0.297491  -0.551936  0  2.22744  0
O  O51  1  0.61896814  0.21860400  0.10346054  1  0  -0.637116  0  2.006033  0  0  -0.56912  0  2.219467  0  0  -0.593243  0  2.206522  0  0  -0.297572  -0.552066  0  2.227465  0
O  O52  1  0.01655338  0.87206370  0.36780559  1  0  -0.751205  0  2.072091  0  0  -0.696925  0  2.330664  0  0  -0.730959  0  2.323085  0  0  -0.396175  -0.676591  0  2.334118  0
O  O53  1  0.98343890  0.12792058  0.63219450  1  0  -0.751263  0  2.071908  0  0  -0.697022  0  2.330486  0  0  -0.731053  0  2.322903  0  0  -0.396252  -0.676685  0  2.333938  0
O  O54  1  0.89268784  0.16830710  0.31573710  1  0  -0.586954  0  1.940499  0  0  -0.537589  0  2.163667  0  0  -0.561426  0  2.155269  0  0  -0.296074  -0.520412  0  2.168844  0
O  O55  1  0.10734628  0.83168987  0.68428809  1  0  -0.58705  0  1.940142  0  0  -0.537647  0  2.163208  0  0  -0.561497  0  2.154833  0  0  -0.296163  -0.520474  0  2.16839  0
O  O56  1  0.39822663  0.38360733  0.24944007  1  0  -0.935131  0  1.926918  0  0  -0.886765  0  2.144065  0  0  -0.9119  0  2.109103  0  0  -0.661813  -0.873046  0  2.166042  0
O  O57  1  0.60176780  0.61638510  0.75056084  1  0  -0.93528  0  1.926909  0  0  -0.886889  0  2.144122  0  0  -0.91204  0  2.109191  0  0  -0.661913  -0.873138  0  2.166014  0
O  O58  1  0.88098253  0.88125258  0.14624163  1  0  -0.925026  0  1.83636  0  0  -0.873783  0  2.015603  0  0  -0.898365  0  1.98078  0  0  -0.652483  -0.860481  0  2.03695  0
O  O59  1  0.11901091  0.11874800  0.85375722  1  0  -0.925114  0  1.836177  0  0  -0.873846  0  2.015482  0  0  -0.898422  0  1.980657  0  0  -0.65251  -0.860544  0  2.036832  0
O  O60  1  0.25951756  0.03033554  0.19887115  1  0  -0.916003  0  1.838177  0  0  -0.862195  0  2.024507  0  0  -0.885666  0  1.985286  0  0  -0.642171  -0.849849  0  2.049089  0
O  O61  1  0.74047415  0.96966448  0.80114107  1  0  -0.916118  0  1.838175  0  0  -0.862286  0  2.024541  0  0  -0.885791  0  1.985232  0  0  -0.64225  -0.849917  0  2.04916  0
