# generated using pymatgen
data_CuH4C2IN2
_symmetry_space_group_name_H-M   'P 1'
_cell_length_a   7.72797231
_cell_length_b   8.23528504
_cell_length_c   8.63654915
_cell_angle_alpha   108.04860102
_cell_angle_beta   97.10248904
_cell_angle_gamma   102.99532809
_symmetry_Int_Tables_number   1
_chemical_formula_structural   CuH4C2IN2
_chemical_formula_sum   'Cu4 H16 C8 I4 N8'
_cell_volume   498.00794551
_cell_formula_units_Z   4
loop_
 _symmetry_equiv_pos_site_id
 _symmetry_equiv_pos_as_xyz
  1  'x, y, z'
loop_
 _atom_site_type_symbol
 _atom_site_label
 _atom_site_symmetry_multiplicity
 _atom_site_fract_x
 _atom_site_fract_y
 _atom_site_fract_z
 _atom_site_occupancy
 _atom_site_pbe_bader_spin_density
 _atom_site_pbe_cm5_charge
 _atom_site_pbe_ddec_charge
 _atom_site_pbe_ddec_spin_density
 _atom_site_pbe_ddec_sum_bond_order
 _atom_site_pbe_magmom
Cu  Cu0  1  0.59914469  0.51485020  0.64019460  1  0  0.245765  0.157685  0  2.71263  0
Cu  Cu1  1  0.40084912  0.48514380  0.35980344  1  0  0.245762  0.157671  0  2.712578  0
Cu  Cu2  1  0.84325439  0.51376881  0.44237020  1  0  0.24274  0.13995  0  2.701067  0
Cu  Cu3  1  0.15674444  0.48621981  0.55762227  1  0  0.242715  0.139916  0  2.701121  0
H  H4  1  0.30715237  0.13311875  0.05081486  1  0  0.271975  0.241478  0  1.039661  0
H  H5  1  0.69284311  0.86687654  0.94918141  1  0  0.271953  0.241452  0  1.039746  0
H  H6  1  0.28678900  0.96180103  0.87502180  1  0  0.26945  0.244809  0  1.026735  0
H  H7  1  0.71321151  0.03819826  0.12497616  1  0  0.269462  0.244841  0  1.026682  0
H  H8  1  0.73706070  0.39158152  0.92486274  1  0  0.088184  0.150142  0  1.028705  0
H  H9  1  0.26293930  0.60842064  0.07514639  1  0  0.088171  0.150173  0  1.028663  0
H  H10  1  0.65027493  0.15895030  0.88308312  1  0  0.088272  0.145065  0  1.02005  0
H  H11  1  0.34972765  0.84105176  0.11692048  1  0  0.088257  0.145053  0  1.020073  0
H  H12  1  0.62328763  0.31401328  0.06780235  1  0  0.081758  0.131649  0  1.075382  0
H  H13  1  0.37671031  0.68598617  0.93220347  1  0  0.081795  0.131707  0  1.075387  0
H  H14  1  0.88775680  0.18799401  0.62324348  1  0  0.089352  0.144278  0  1.030835  0
H  H15  1  0.11224371  0.81200526  0.37675332  1  0  0.089357  0.144298  0  1.030865  0
H  H16  1  0.91198898  0.15242345  0.81850002  1  0  0.096372  0.153235  0  1.011685  0
H  H17  1  0.08801528  0.84757990  0.18150181  1  0  0.096374  0.153245  0  1.011716  0
H  H18  1  0.93306224  0.98855774  0.63987723  1  0  0.09675  0.155444  0  1.001389  0
H  H19  1  0.06694555  0.01144425  0.36012231  1  0  0.096747  0.155426  0  1.001451  0
C  C20  1  0.62560661  0.28954212  0.93572723  1  0  -0.245847  -0.463598  0  3.941017  0
C  C21  1  0.37439598  0.71045999  0.06427870  1  0  -0.245863  -0.463658  0  3.941039  0
C  C22  1  0.45248134  0.29070826  0.84386561  1  0  0.228649  0.316466  0  3.950345  0
C  C23  1  0.54752199  0.70929648  0.15613998  1  0  0.228696  0.316548  0  3.950276  0
C  C24  1  0.15783484  0.22198116  0.74015244  1  0  0.234899  0.327184  0  3.92397  0
C  C25  1  0.84216939  0.77802209  0.25984473  1  0  0.23491  0.327295  0  3.924286  0
C  C26  1  0.96122590  0.13304479  0.70209914  1  0  -0.235942  -0.459671  0  3.930884  0
C  C27  1  0.03877667  0.86695718  0.29789980  1  0  -0.235954  -0.459728  0  3.930952  0
I  I28  1  0.54390253  0.21826291  0.36376635  1  0  -0.173688  -0.314166  0  2.016636  0
I  I29  1  0.45609333  0.78173373  0.63623151  1  0  -0.173682  -0.314143  0  2.016552  0
I  I30  1  0.94489139  0.62872899  0.76228048  1  0  -0.153854  -0.245941  0  2.287878  0
I  I31  1  0.05510168  0.37126235  0.23771674  1  0  -0.15385  -0.245926  0  2.287948  0
N  N32  1  0.42879590  0.38454481  0.74754601  1  0  -0.287979  -0.197686  0  3.54585  0
N  N33  1  0.57120537  0.61545722  0.25245627  1  0  -0.287958  -0.197633  0  3.54567  0
N  N34  1  0.24417965  0.34193070  0.68266407  1  0  -0.284902  -0.199576  0  3.543842  0
N  N35  1  0.75582534  0.65807523  0.31733510  1  0  -0.284949  -0.199677  0  3.54394  0
N  N36  1  0.28493296  0.18883639  0.84292912  1  0  -0.147331  0.051734  0  3.741459  0
N  N37  1  0.71507092  0.81116563  0.15707230  1  0  -0.147314  0.051593  0  3.741676  0
N  N38  1  0.24251166  0.07098860  0.92787187  1  0  -0.504626  -0.478484  0  3.212916  0
N  N39  1  0.75748550  0.92900803  0.07212497  1  0  -0.504625  -0.47845  0  3.212989  0
