# generated using pymatgen
data_FeAg2H20C31N8O
_symmetry_space_group_name_H-M   'P 1'
_cell_length_a   13.69814707
_cell_length_b   15.38380260
_cell_length_c   17.40062198
_cell_angle_alpha   114.90900791
_cell_angle_beta   112.65218598
_cell_angle_gamma   90.73228855
_symmetry_Int_Tables_number   1
_chemical_formula_structural   FeAg2H20C31N8O
_chemical_formula_sum   'Fe4 Ag8 H80 C124 N32 O4'
_cell_volume   3001.35776456
_cell_formula_units_Z   4
loop_
 _symmetry_equiv_pos_site_id
 _symmetry_equiv_pos_as_xyz
  1  'x, y, z'
loop_
 _atom_site_type_symbol
 _atom_site_label
 _atom_site_symmetry_multiplicity
 _atom_site_fract_x
 _atom_site_fract_y
 _atom_site_fract_z
 _atom_site_occupancy
 _atom_site_pbe_bader_charge
 _atom_site_pbe_bader_spin_density
 _atom_site_pbe_cm5_charge
 _atom_site_pbe_ddec_charge
 _atom_site_pbe_ddec_spin_density
 _atom_site_pbe_ddec_sum_bond_order
 _atom_site_pbe_magmom
Fe  Fe0  1  0.19239819  0.44028374  0.38163781  1  1.234054  0.002213  0.913581  0.56031  0.000948  3.992024  0.002
Fe  Fe1  1  0.80760097  0.55971689  0.61836200  1  1.234034  0.002213  0.913569  0.5603  0.000948  3.992035  0.002
Fe  Fe2  1  0.69063609  0.93959715  0.38138005  1  1.454736  3.672209  0.791286  0.810961  3.926223  2.889999  3.643
Fe  Fe3  1  0.30936511  0.06040201  0.61861984  1  1.45479  3.672202  0.791269  0.81095  3.926221  2.890034  3.643
Ag  Ag4  1  0.46634052  0.70380011  0.43022786  1  0.393462  0.003117  0.322473  0.170482  0.002273  2.464737  0.003
Ag  Ag5  1  0.53366238  0.29619613  0.56977030  1  0.393435  0.003117  0.322488  0.170532  0.002273  2.464757  0.003
Ag  Ag6  1  0.96331400  0.70015119  0.41615802  1  0.414268  0.002706  0.326866  0.183125  0.001779  2.383757  0.002
Ag  Ag7  1  0.03669216  0.29985236  0.58384675  1  0.414245  0.002707  0.326864  0.183177  0.001779  2.383686  0.002
Ag  Ag8  1  0.93196980  0.18775353  0.36005505  1  0.383818  0.003053  0.323122  0.153267  0.002087  2.426294  0.003
Ag  Ag9  1  0.06802873  0.81224783  0.63994541  1  0.383848  0.003054  0.323117  0.153249  0.002087  2.426299  0.003
Ag  Ag10  1  0.42446769  0.18448760  0.35727067  1  0.385228  0.002649  0.322531  0.16033  0.001783  2.472472  0.003
Ag  Ag11  1  0.57553244  0.81551376  0.64272799  1  0.385104  0.002649  0.32254  0.160333  0.001783  2.472494  0.003
H  H12  1  0.23627655  0.33110443  0.48851604  1  0.153356  5.7e-05  0.123863  0.097072  4.1e-05  1.006758  0.0
H  H13  1  0.76371894  0.66889400  0.51148239  1  0.153037  5.7e-05  0.123868  0.097097  4.1e-05  1.006737  0.0
H  H14  1  0.30031466  0.36758616  0.65544208  1  0.114488  0.000224  0.110259  0.121092  0.000107  1.024458  0.0
H  H15  1  0.69968303  0.63241154  0.34455676  1  0.114484  0.000224  0.110294  0.121134  0.000107  1.024458  0.0
H  H16  1  0.34616621  0.67585543  0.72930099  1  0.124959  -1e-06  0.110886  0.121555  -1.2e-05  1.014591  0.0
H  H17  1  0.65383640  0.32414299  0.27069963  1  0.124921  -1e-06  0.110864  0.121543  -1.2e-05  1.01465  0.0
H  H18  1  0.27694429  0.62636024  0.55807693  1  0.107277  3.3e-05  0.124636  0.09652  2.6e-05  0.999736  0.0
H  H19  1  0.72305453  0.37363892  0.44192337  1  0.107224  3.3e-05  0.124625  0.096519  2.6e-05  0.999807  0.0
H  H20  1  0.49348204  0.59634919  0.10300853  1  0.112228  0.000776  0.11334  0.118801  0.000306  1.040764  0.0
H  H21  1  0.50651776  0.40365071  0.89699005  1  0.112237  0.000776  0.113329  0.118787  0.000306  1.040774  0.0
H  H22  1  0.59919916  0.72365333  0.26847847  1  0.084217  0.002064  0.113869  0.080757  0.000587  1.021741  0.001
H  H23  1  0.40080142  0.27634657  0.73152036  1  0.084209  0.002064  0.113858  0.080751  0.000587  1.021724  0.001
H  H24  1  0.61120653  0.93922424  0.18704983  1  0.12253  0.00182  0.111834  0.081295  0.000444  1.02925  0.001
H  H25  1  0.38879168  0.06077566  0.81294884  1  0.122541  0.00182  0.111838  0.081299  0.000444  1.02925  0.001
H  H26  1  0.50924570  0.82008536  0.01743831  1  0.090552  0.000919  0.109621  0.12044  0.000389  1.010194  0.0
H  H27  1  0.49075330  0.17991454  0.98256060  1  0.090597  0.000919  0.10962  0.120426  0.000389  1.010236  0.0
H  H28  1  0.75570808  0.16085613  0.49408127  1  0.11574  0.001974  0.116294  0.085921  0.000481  1.006381  0.001
H  H29  1  0.24429199  0.83914156  0.50591772  1  0.115717  0.001974  0.116288  0.085897  0.000481  1.006425  0.001
H  H30  1  0.85791048  0.29055299  0.65970383  1  0.111466  0.000879  0.107397  0.115311  0.0004  1.03229  0.0
H  H31  1  0.14208896  0.70944544  0.34029524  1  0.111431  0.000879  0.107411  0.115323  0.0004  1.032267  0.0
H  H32  1  0.89230073  0.06115227  0.74409104  1  0.080539  0.000921  0.108143  0.117132  0.000415  1.024116  0.0
H  H33  1  0.10769984  0.93884762  0.25591007  1  0.080569  0.000921  0.108136  0.117123  0.000415  1.024117  0.0
H  H34  1  0.79062663  0.94033396  0.57378143  1  0.078568  0.001966  0.11823  0.087163  0.000465  0.997291  0.001
H  H35  1  0.20937536  0.05966520  0.42621870  1  0.078472  0.001966  0.118237  0.087163  0.000465  0.997263  0.001
H  H36  1  0.10637746  0.50810211  0.10719952  1  0.138182  -2.5e-05  0.114788  0.120259  -4.7e-05  1.043748  0.0
H  H37  1  0.89362221  0.49190071  0.89280184  1  0.138183  -2.5e-05  0.114809  0.120285  -4.7e-05  1.043775  0.0
H  H38  1  0.16769085  0.54700231  0.27407389  1  0.121066  2.9e-05  0.121432  0.091377  2.8e-05  1.019136  0.0
H  H39  1  0.83231086  0.45299905  0.72592698  1  0.121126  2.9e-05  0.121441  0.091378  2.8e-05  1.019137  0.0
H  H40  1  0.08945477  0.25401570  0.20384054  1  0.121807  4e-06  0.11739  0.087481  6e-06  1.035596  0.0
H  H41  1  0.91054615  0.74598566  0.79615779  1  0.121803  4e-06  0.117413  0.087484  6e-06  1.035586  0.0
H  H42  1  0.01974594  0.20341406  0.03344685  1  0.103939  -1.2e-05  0.111483  0.122982  -2.1e-05  1.005525  0.0
H  H43  1  0.98025374  0.79658878  0.96655222  1  0.103772  -1.2e-05  0.111473  0.122947  -2.1e-05  1.005549  0.0
H  H44  1  0.64717310  0.51534923  0.95962820  1  0.072169  2.3e-05  0.097438  0.095169  1.1e-05  1.062795  0.0
H  H45  1  0.35282606  0.48465139  0.04037276  1  0.072143  2.3e-05  0.097426  0.09514  1.1e-05  1.062835  0.0
H  H46  1  0.57521809  0.46156991  0.78754803  1  0.054066  0.0  0.089415  0.083992  -8e-06  1.027219  0.0
H  H47  1  0.42478249  0.53842999  0.21245194  1  0.05405  0.0  0.089438  0.084027  -8e-06  1.027202  0.0
H  H48  1  0.59769050  0.58171935  0.73084369  1  0.046599  -3e-06  0.095368  0.100056  -4e-06  1.008667  0.0
H  H49  1  0.40231008  0.41828055  0.26915628  1  0.046587  -3e-06  0.095366  0.100065  -4e-06  1.00867  0.0
H  H50  1  0.69376809  0.75304156  0.84436394  1  0.053432  -5e-06  0.093183  0.093166  -7e-06  1.020819  0.0
H  H51  1  0.30623328  0.24695834  0.15563627  1  0.053438  -5e-06  0.093175  0.093156  -7e-06  1.020846  0.0
H  H52  1  0.80175804  0.88089915  0.01095753  1  0.039989  -2e-06  0.09005  0.085596  -1e-06  1.052864  0.0
H  H53  1  0.19824316  0.11910001  0.98904293  1  0.040077  -2e-06  0.090064  0.085627  -1e-06  1.052761  0.0
H  H54  1  0.87248493  0.93267813  0.18117486  1  0.053623  -1e-05  0.089542  0.082847  -3.1e-05  1.033097  0.0
H  H55  1  0.12751548  0.06732103  0.81882478  1  0.053632  -1e-05  0.089525  0.082827  -3.1e-05  1.033107  0.0
H  H56  1  0.84332452  0.81429033  0.23731135  1  0.098907  -8.4e-05  0.097668  0.104298  -0.000213  1.004859  0.0
H  H57  1  0.15667543  0.18571030  0.76268871  1  0.098909  -8.4e-05  0.097666  0.104281  -0.000213  1.004866  0.0
H  H58  1  0.74522363  0.64258545  0.12246895  1  0.096976  -4e-05  0.103215  0.113633  -4.8e-05  1.006818  0.0
H  H59  1  0.25477474  0.35741517  0.87753176  1  0.096718  -4e-05  0.103211  0.113617  -4.8e-05  1.006839  0.0
H  H60  1  0.72065112  0.03668002  0.11373734  1  0.062407  -3.8e-05  0.098955  0.09697  -4.8e-05  1.022987  0.0
H  H61  1  0.27934929  0.96331914  0.88626231  1  0.062422  -3.8e-05  0.098949  0.096958  -4.8e-05  1.022978  0.0
H  H62  1  0.68132020  0.15001452  0.24415867  1  0.061742  0.000102  0.091617  0.085755  4.5e-05  1.035888  0.0
H  H63  1  0.31867942  0.84998464  0.75584016  1  0.061712  0.000102  0.09162  0.085763  4.5e-05  1.035856  0.0
H  H64  1  0.49221129  0.17311868  0.21473733  1  0.06362  1.1e-05  0.087878  0.081855  4e-06  1.049517  0.0
H  H65  1  0.50778930  0.82688122  0.78526149  1  0.063549  1.1e-05  0.087858  0.081833  4e-06  1.049515  0.0
H  H66  1  0.65672769  0.91960368  0.94427719  1  0.059149  3e-06  0.095865  0.092203  2e-06  1.053697  0.0
H  H67  1  0.34327209  0.08039622  0.05572196  1  0.059151  3e-06  0.095869  0.092205  2e-06  1.053748  0.0
H  H68  1  0.80896561  0.44125287  0.94930594  1  0.084872  -1e-06  0.09708  0.095493  1e-05  1.061673  0.0
H  H69  1  0.19103479  0.55874629  0.05069370  1  0.084864  -1e-06  0.097086  0.095506  1e-05  1.061679  0.0
H  H70  1  0.70835435  0.32273118  0.77904691  1  0.049838  2.7e-05  0.089804  0.084022  7e-06  1.026362  0.0
H  H71  1  0.29164605  0.67726797  0.22095387  1  0.049805  2.7e-05  0.089795  0.084016  7e-06  1.026364  0.0
H  H72  1  0.63008539  0.15029320  0.73045454  1  0.086277  1.2e-05  0.099138  0.105799  -0.00011  1.000661  0.0
H  H73  1  0.36991641  0.84970522  0.26954698  1  0.086256  1.2e-05  0.099152  0.105805  -0.00011  1.000659  0.0
H  H74  1  0.65064839  0.09668580  0.85017600  1  0.028451  -9.1e-05  0.095116  0.096784  -0.000126  1.01291  0.0
H  H75  1  0.34935375  0.90331409  0.14982674  1  0.02843  -9.1e-05  0.095114  0.096798  -0.000126  1.01289  0.0
H  H76  1  0.71349670  0.13748162  0.01923383  1  0.035162  1e-06  0.090154  0.085782  7e-06  1.05416  0.0
H  H77  1  0.28650737  0.86251973  0.98076833  1  0.03519  1e-06  0.090156  0.085748  7e-06  1.054251  0.0
H  H78  1  0.81378811  0.25597239  0.18756045  1  0.032743  -5e-06  0.086797  0.07797  -5e-06  1.044104  0.0
H  H79  1  0.18621471  0.74403043  0.81244303  1  0.032805  -5e-06  0.086749  0.077925  -5e-06  1.044126  0.0
H  H80  1  0.89584584  0.42674276  0.23565461  1  0.116014  -2.6e-05  0.097449  0.104344  -2.7e-05  1.00711  0.0
H  H81  1  0.10415461  0.57326006  0.76434757  1  0.116012  -2.6e-05  0.097458  0.104346  -2.7e-05  1.007083  0.0
H  H82  1  0.87598562  0.47938762  0.11459820  1  0.087248  -1.3e-05  0.103673  0.114  -1.2e-05  1.010848  0.0
H  H83  1  0.12401529  0.52061374  0.88540242  1  0.08721  -1.3e-05  0.103682  0.114013  -1.2e-05  1.010849  0.0
H  H84  1  0.09905228  0.91212904  0.88140471  1  0.057492  -1e-05  0.097372  0.09436  -1.1e-05  1.028313  0.0
H  H85  1  0.90094417  0.08787012  0.11859372  1  0.057487  -1e-05  0.097377  0.094356  -1.1e-05  1.028313  0.0
H  H86  1  0.92778819  0.89781192  0.75212572  1  0.076122  -4e-06  0.093075  0.087984  -1.2e-05  1.030479  0.0
H  H87  1  0.07220983  0.10218724  0.24787434  1  0.07611  -4e-06  0.093058  0.08795  -1.2e-05  1.030466  0.0
H  H88  1  0.77364705  0.96022818  0.78592778  1  0.068129  -2.2e-05  0.089847  0.083767  -2.4e-05  1.045399  0.0
H  H89  1  0.22635019  0.03977098  0.21407147  1  0.068182  -2.2e-05  0.089854  0.083799  -2.4e-05  1.045371  0.0
H  H90  1  0.79097243  0.03425062  0.94838145  1  0.037279  -1e-06  0.096421  0.092792  4e-06  1.054367  0.0
H  H91  1  0.20902559  0.96574853  0.05161976  1  0.037321  -1e-06  0.09642  0.092818  4e-06  1.054354  0.0
C  C92  1  0.36953722  0.59551266  0.42002475  1  0.748405  4.5e-05  -0.035293  -0.062657  1.2e-05  3.75739  0.0
C  C93  1  0.63046535  0.40448212  0.57997105  1  0.748223  4.5e-05  -0.03527  -0.062605  1.2e-05  3.757439  0.0
C  C94  1  0.05446973  0.59623096  0.40774102  1  0.745157  6.3e-05  -0.030471  -0.060094  2.3e-05  3.731269  0.0
C  C95  1  0.94552403  0.40376675  0.59225203  1  0.745743  6.3e-05  -0.030489  -0.060197  2.3e-05  3.731462  0.0
C  C96  1  0.02025011  0.29019381  0.35578008  1  0.735856  4.7e-05  -0.035467  -0.066567  1.8e-05  3.767072  0.0
C  C97  1  0.97974888  0.70980609  0.64421883  1  0.735842  4.7e-05  -0.03552  -0.066652  1.8e-05  3.767074  0.0
C  C98  1  0.33076384  0.28535463  0.35725707  1  0.756404  0.000104  -0.035594  -0.064881  4.8e-05  3.749796  0.0
C  C99  1  0.66923596  0.71464527  0.64274094  1  0.756991  0.000104  -0.035622  -0.064974  4.8e-05  3.749831  0.0
C  C100  1  0.26037516  0.40624106  0.54375529  1  0.365123  0.00028  0.051669  0.08579  0.000114  3.921578  0.0
C  C101  1  0.73962032  0.59375736  0.45624487  1  0.365151  0.00028  0.051682  0.085799  0.000114  3.921611  0.0
C  C102  1  0.29641167  0.42698697  0.63668209  1  0.067932  -0.000878  -0.079648  -0.165954  -0.000943  3.966747  -0.001
C  C103  1  0.70358382  0.57301145  0.36331635  1  0.067985  -0.000878  -0.079693  -0.166026  -0.000943  3.9668  -0.001
C  C104  1  0.32723777  0.52516674  0.70606043  1  -0.007427  0.000543  0.010645  0.048366  0.000107  4.038927  0.001
C  C105  1  0.67276150  0.47483095  0.29393946  1  -0.007453  0.000543  0.010661  0.048394  0.000107  4.038954  0.001
C  C106  1  0.32202562  0.59867795  0.67796969  1  -0.039239  -0.001249  -0.07634  -0.151405  -0.001262  3.927589  -0.001
C  C107  1  0.67797365  0.40131974  0.32202906  1  -0.039181  -0.001249  -0.076313  -0.151391  -0.001262  3.927494  -0.001
C  C108  1  0.28383158  0.57169904  0.58302171  1  0.493382  0.000499  0.055095  0.091322  0.000195  3.895923  0.0
C  C109  1  0.71616784  0.42829938  0.41698023  1  0.493361  0.000499  0.055084  0.091349  0.000195  3.896019  0.0
C  C110  1  0.36135280  0.54480722  0.80222765  1  1.059347  -0.003512  0.219886  0.289013  -0.003895  4.018295  -0.002
C  C111  1  0.63864726  0.45519047  0.19777191  1  1.058963  -0.003513  0.219889  0.289063  -0.003895  4.018253  -0.002
C  C112  1  0.43207465  0.62136710  0.95210483  1  1.028057  -0.001163  0.229944  0.304374  -0.001289  3.969423  0.001
C  C113  1  0.56792480  0.37863133  0.04789425  1  1.02805  -0.001163  0.229946  0.304371  -0.001289  3.96936  0.001
C  C114  1  0.49106453  0.69825573  0.04706660  1  0.049058  -0.016683  0.012874  0.041209  -0.017557  4.026102  -0.011
C  C115  1  0.50893526  0.30174416  0.95293313  1  0.049037  -0.016684  0.012883  0.041194  -0.017559  4.026096  -0.011
C  C116  1  0.51698609  0.67181824  0.11930824  1  0.053032  0.005659  -0.068469  -0.129538  0.002019  3.914063  0.005
C  C117  1  0.48301387  0.32818239  0.88069067  1  0.053034  0.005659  -0.06848  -0.129532  0.002019  3.914053  0.005
C  C118  1  0.57611449  0.74237739  0.21105088  1  0.468076  -0.010619  0.048917  0.10022  -0.011071  3.944506  -0.006
C  C119  1  0.42388608  0.25762250  0.78894909  1  0.468218  -0.010618  0.048921  0.100211  -0.011071  3.944537  -0.006
C  C120  1  0.58336296  0.86239177  0.16531679  1  0.489875  -0.010769  0.050043  0.102197  -0.011181  3.927289  -0.006
C  C121  1  0.41663683  0.13760813  0.83468294  1  0.490078  -0.01077  0.050027  0.102158  -0.011181  3.927346  -0.006
C  C122  1  0.52603630  0.79595794  0.07092612  1  -0.016063  0.006283  -0.073349  -0.139747  0.002321  3.915732  0.005
C  C123  1  0.47396269  0.20404195  0.92907279  1  -0.016308  0.006283  -0.073334  -0.139702  0.002321  3.915758  0.005
C  C124  1  0.51678151  0.08231058  0.35564664  1  0.788333  0.013384  -0.021663  -0.0189  0.007399  3.760626  0.016
C  C125  1  0.48321862  0.91769079  0.64435259  1  0.788478  0.013383  -0.021653  -0.018861  0.007399  3.760668  0.016
C  C126  1  0.84178493  0.07878058  0.35467774  1  0.78034  0.016804  -0.021415  -0.018226  0.0092  3.782742  0.018
C  C127  1  0.15821660  0.92122005  0.64532394  1  0.780355  0.016805  -0.021392  -0.018132  0.009201  3.782622  0.018
C  C128  1  0.86626727  0.79836854  0.41093467  1  0.77508  0.013242  -0.017887  -0.012591  0.007364  3.746737  0.015
C  C129  1  0.13374434  0.20164160  0.58907711  1  0.774991  0.013246  -0.017822  -0.012518  0.007365  3.747062  0.015
C  C130  1  0.55089584  0.80679164  0.42349655  1  0.773123  0.016978  -0.020886  -0.014002  0.009396  3.772454  0.018
C  C131  1  0.44910756  0.19320678  0.57650373  1  0.77313  0.016977  -0.020887  -0.013989  0.009396  3.772426  0.018
C  C132  1  0.78809227  0.14187682  0.55145023  1  0.456365  -0.014474  0.046917  0.094195  -0.014916  3.952941  -0.008
C  C133  1  0.21190859  0.85812088  0.44854958  1  0.456347  -0.014475  0.046898  0.094218  -0.014917  3.952897  -0.008
C  C134  1  0.84440046  0.21367806  0.64331353  1  0.005217  0.006415  -0.080404  -0.163008  0.002052  3.959752  0.006
C  C135  1  0.15559898  0.78632037  0.35668555  1  0.005297  0.006415  -0.080448  -0.163088  0.002052  3.959713  0.006
C  C136  1  0.88420711  0.18574973  0.71508650  1  -0.050904  -0.02411  0.009501  0.046513  -0.025142  4.034942  -0.016
C  C137  1  0.11579312  0.81424870  0.28491339  1  -0.051008  -0.024109  0.00952  0.046556  -0.025141  4.034858  -0.016
C  C138  1  0.86368095  0.08588487  0.69059022  1  0.057512  0.005901  -0.076859  -0.149783  0.001735  3.921727  0.005
C  C139  1  0.13631945  0.91411429  0.30941000  1  0.057523  0.0059  -0.076868  -0.149825  0.001735  3.921704  0.005
C  C140  1  0.80725533  0.01883585  0.59630914  1  0.508767  -0.015129  0.051791  0.10401  -0.015654  3.926237  -0.009
C  C141  1  0.19274569  0.98116257  0.40369099  1  0.508952  -0.015127  0.051827  0.104102  -0.015652  3.926159  -0.009
C  C142  1  0.94518117  0.26137283  0.81020798  1  1.045302  -0.001045  0.219946  0.288035  -0.001503  4.020362  0.001
C  C143  1  0.05481879  0.73862780  0.18979150  1  1.045299  -0.001045  0.219949  0.28801  -0.001503  4.020325  0.001
C  C144  1  0.02380695  0.33401806  0.96022818  1  1.03062  -0.005461  0.229721  0.303769  -0.006048  3.972448  -0.004
C  C145  1  0.97619194  0.66598477  0.03977122  1  1.030375  -0.005461  0.229735  0.303796  -0.006048  3.972457  -0.004
C  C146  1  0.06036866  0.35234980  0.05642319  1  0.059034  0.000552  0.01383  0.042457  4.1e-05  4.025542  0.001
C  C147  1  0.93963101  0.64765302  0.94357702  1  0.059079  0.000552  0.013754  0.042381  4.1e-05  4.025583  0.001
C  C148  1  0.10301746  0.44982271  0.12613604  1  0.027573  -0.001667  -0.065102  -0.126171  -0.001723  3.917605  -0.001
C  C149  1  0.89698221  0.55018012  0.87386417  1  0.027651  -0.001667  -0.065115  -0.126243  -0.001723  3.917708  -0.001
C  C150  1  0.13671826  0.47183231  0.21902609  1  0.446247  0.000298  0.052111  0.087914  8.2e-05  3.906588  0.0
C  C151  1  0.86328186  0.52816905  0.78097428  1  0.44604  0.000298  0.052123  0.08798  8.2e-05  3.906598  0.0
C  C152  1  0.09175740  0.30809932  0.17947501  1  0.461007  0.000577  0.052202  0.089909  0.000215  3.895007  0.0
C  C153  1  0.90824194  0.69190204  0.82052398  1  0.461102  0.000577  0.052119  0.089787  0.000215  3.895087  0.0
C  C154  1  0.05363122  0.28024855  0.08434023  1  0.008631  -0.001879  -0.070277  -0.137379  -0.001883  3.918018  -0.001
C  C155  1  0.94636829  0.71975355  0.91565909  1  0.00866  -0.001879  -0.07021  -0.137224  -0.001884  3.917936  -0.001
C  C156  1  0.65621856  0.56652937  0.93333655  1  -0.011707  -0.000115  -0.095924  -0.132393  -0.000138  3.966241  0.0
C  C157  1  0.34377981  0.43347125  0.06666359  1  -0.011678  -0.000115  -0.095932  -0.132436  -0.000138  3.966311  0.0
C  C158  1  0.61609535  0.53754660  0.83835346  1  -0.124555  2.4e-05  -0.10436  -0.093186  -0.0  4.036382  0.0
C  C159  1  0.38390381  0.46245403  0.16164635  1  -0.124543  2.4e-05  -0.104333  -0.093121  -0.0  4.036301  0.0
C  C160  1  0.62869526  0.60559133  0.80600980  1  -0.007338  -6.2e-05  -0.099159  -0.087353  -6.3e-05  4.025962  0.0
C  C161  1  0.37130532  0.39440856  0.19399017  1  -0.007323  -6.2e-05  -0.0992  -0.087439  -6.3e-05  4.025866  0.0
C  C162  1  0.68221520  0.70124673  0.86943242  1  -0.138575  3.1e-05  -0.094897  -0.132179  1.2e-05  3.989141  0.0
C  C163  1  0.31778459  0.29875316  0.13056673  1  -0.138576  3.1e-05  -0.094895  -0.132205  1.2e-05  3.989128  0.0
C  C164  1  0.72599231  0.73323102  0.96776239  1  0.049577  8e-06  -0.016831  0.061147  7e-06  4.008087  0.0
C  C165  1  0.27400685  0.26676961  0.03223799  1  0.049725  8e-06  -0.016825  0.061268  7e-06  4.007885  0.0
C  C166  1  0.78609534  0.82975734  0.03529722  1  -0.003723  4.1e-05  -0.103193  -0.153358  1.8e-05  4.017033  0.0
C  C167  1  0.21390444  0.17024256  0.96470308  1  -0.00399  4.1e-05  -0.103222  -0.153459  1.8e-05  4.01688  0.0
C  C168  1  0.82700421  0.85810300  0.13012340  1  -0.126935  -0.000122  -0.101586  -0.086433  -0.000156  4.040928  0.0
C  C169  1  0.17299574  0.14189763  0.86987722  1  -0.126909  -0.000122  -0.101565  -0.086419  -0.000156  4.040913  0.0
C  C170  1  0.81143766  0.79064861  0.16214752  1  -0.050215  -0.000131  -0.098479  -0.084296  -0.000312  4.007107  0.0
C  C171  1  0.18856150  0.20935202  0.83785229  1  -0.050223  -0.000131  -0.09848  -0.084256  -0.000312  4.007075  0.0
C  C172  1  0.75620695  0.69547965  0.09847219  1  -0.07991  -0.000163  -0.089475  -0.121636  -0.000234  3.948082  0.0
C  C173  1  0.24379141  0.30452097  0.90152852  1  -0.07965  -0.000163  -0.089456  -0.121631  -0.000234  3.94809  0.0
C  C174  1  0.71204327  0.66443740  0.00031287  1  -0.008413  -8e-05  -0.013435  0.066053  -0.000104  3.986776  0.0
C  C175  1  0.28795493  0.33556249  0.99968694  1  -0.008422  -8e-05  -0.01342  0.066091  -0.000104  3.986692  0.0
C  C176  1  0.63835777  0.04770788  0.10065242  1  -0.030434  0.000123  -0.089084  -0.131471  3.6e-05  3.975752  0.0
C  C177  1  0.36164281  0.95229202  0.89934697  1  -0.030454  0.000123  -0.089096  -0.131524  3.6e-05  3.975779  0.0
C  C178  1  0.61625793  0.11088282  0.17334563  1  -0.042295  0.000234  -0.095836  -0.082185  0.0001  4.023772  0.0
C  C179  1  0.38374169  0.88911635  0.82665263  1  -0.042264  0.000234  -0.09583  -0.082139  0.0001  4.023678  0.0
C  C180  1  0.50907739  0.12299511  0.15689428  1  0.007443  6.7e-05  -0.094437  -0.080883  9e-06  4.027097  0.0
C  C181  1  0.49092319  0.87700479  0.84310454  1  0.007462  6.7e-05  -0.094411  -0.080874  9e-06  4.027123  0.0
C  C182  1  0.57425756  0.92889991  0.93167235  1  -0.100975  -0.000123  -0.09162  -0.133574  -0.000143  3.983348  0.0
C  C183  1  0.42574222  0.07109999  0.06832680  1  -0.100986  -0.000123  -0.091598  -0.13356  -0.000143  3.983359  0.0
C  C184  1  0.55449709  0.99415091  0.00825751  1  -0.104615  1.8e-05  -0.008218  0.068476  -2e-06  3.992058  0.0
C  C185  1  0.44550270  0.00584899  0.99174107  1  -0.063829  1.8e-05  -0.008197  0.068536  -2e-06  3.992058  0.0
C  C186  1  0.77489377  0.36546434  0.92650562  1  -0.025875  -2.3e-05  -0.096248  -0.135031  -2.6e-05  3.96698  0.0
C  C187  1  0.22510601  0.63453555  0.07349468  1  -0.026078  -2.3e-05  -0.096274  -0.135074  -2.6e-05  3.967002  0.0
C  C188  1  0.71945561  0.29944326  0.83257203  1  -0.099473  -0.000243  -0.103473  -0.092256  -0.000287  4.033558  0.0
C  C189  1  0.28054479  0.70055589  0.16742876  1  -0.099484  -0.000243  -0.103403  -0.092166  -0.000287  4.033556  0.0
C  C190  1  0.67524122  0.20150109  0.80480121  1  -0.062855  -0.000109  -0.099021  -0.085728  -0.000264  4.022254  0.0
C  C191  1  0.32475917  0.79849806  0.19520073  1  -0.06245  -0.000109  -0.099034  -0.085748  -0.000264  4.022181  0.0
C  C192  1  0.68696014  0.17156015  0.87168917  1  -0.006624  -5.4e-05  -0.095063  -0.13343  -0.000132  3.988697  0.0
C  C193  1  0.31304201  0.82843974  0.12831300  1  -0.007027  -5.4e-05  -0.09513  -0.133541  -0.000132  3.988566  0.0
C  C194  1  0.74279034  0.23787850  0.96903830  1  -0.049825  -5.1e-05  -0.014813  0.064232  -7.7e-05  4.006698  0.0
C  C195  1  0.25721119  0.76212212  0.03096338  1  -0.049658  -5.1e-05  -0.014777  0.064303  -7.7e-05  4.006677  0.0
C  C196  1  0.75242114  0.21116492  0.04003938  1  -0.06741  -7.9e-05  -0.103601  -0.154356  -8.6e-05  4.016147  0.0
C  C197  1  0.24758135  0.78883644  0.95996287  1  -0.067632  -7.9e-05  -0.10362  -0.154359  -8.6e-05  4.016312  0.0
C  C198  1  0.80667644  0.27771598  0.13380502  1  -0.061902  3.4e-05  -0.103037  -0.087329  1.3e-05  4.044363  0.0
C  C199  1  0.19332606  0.72228538  0.86619666  1  -0.061712  3.4e-05  -0.102978  -0.087248  1.3e-05  4.044414  0.0
C  C200  1  0.85257073  0.37501652  0.16129271  1  -0.050571  -0.000211  -0.100617  -0.088037  -0.000214  4.010003  0.0
C  C201  1  0.14743052  0.62498631  0.83870914  1  -0.050744  -0.000211  -0.100602  -0.088021  -0.000214  4.009972  0.0
C  C202  1  0.84230449  0.40421267  0.09417670  1  -0.082393  -3.2e-05  -0.091328  -0.123622  -5.6e-05  3.954494  0.0
C  C203  1  0.15769642  0.59578869  0.90582449  1  -0.082318  -3.2e-05  -0.091336  -0.123637  -5.6e-05  3.954496  0.0
C  C204  1  0.78794660  0.33690054  0.99698507  1  -5.7e-05  -7.9e-05  -0.012985  0.066914  -0.000104  3.985753  0.0
C  C205  1  0.21205351  0.66310082  0.00301588  1  0.000154  -7.9e-05  -0.01301  0.066869  -0.000104  3.98578  0.0
C  C206  1  0.03222093  0.94033089  0.89626373  1  -0.050152  2.3e-05  -0.086354  -0.126386  6e-06  3.971411  0.0
C  C207  1  0.96777692  0.05966753  0.10373601  1  -0.050204  2.3e-05  -0.08633  -0.126349  6e-06  3.97151  0.0
C  C208  1  0.93655649  0.93226049  0.82422415  1  -0.030748  1.4e-05  -0.096192  -0.086921  2e-06  4.02724  0.0
C  C209  1  0.06344058  0.06773794  0.17577534  1  -0.030779  1.4e-05  -0.096127  -0.086775  2e-06  4.027208  0.0
C  C210  1  0.84894245  0.96650671  0.84321411  1  -0.010484  2.3e-05  -0.09546  -0.080938  1.5e-05  4.028436  0.0
C  C211  1  0.15105399  0.03349244  0.15678661  1  -0.010408  2.3e-05  -0.095545  -0.081109  1.5e-05  4.028496  0.0
C  C212  1  0.85816993  0.00747300  0.93369228  1  -0.082023  2.1e-05  -0.090923  -0.133901  1.5e-05  3.982194  0.0
C  C213  1  0.14182792  0.99252542  0.06630803  1  -0.082069  2.1e-05  -0.090887  -0.133872  1.5e-05  3.9822  0.0
C  C214  1  0.95536624  0.01705555  0.00957856  1  -0.092424  2e-06  -0.009616  0.066265  0.0  3.99591  0.0
C  C215  1  0.04463066  0.98294214  0.99042061  1  -0.047227  1e-06  -0.009627  0.066333  0.0  3.995788  0.0
N  N216  1  0.30446337  0.53433237  0.40684558  1  -1.305309  0.000254  -0.383244  -0.262249  7.1e-05  3.681769  0.0
N  N217  1  0.69553879  0.46566752  0.59315487  1  -1.305113  0.000254  -0.383272  -0.262338  7.1e-05  3.6818  0.0
N  N218  1  0.10677482  0.53614377  0.39819076  1  -1.305319  0.000203  -0.379044  -0.261452  5.2e-05  3.656281  0.0
N  N219  1  0.89322367  0.46385393  0.60180660  1  -1.305732  0.000203  -0.378997  -0.261356  5.2e-05  3.656434  0.0
N  N220  1  0.08172614  0.34787451  0.36037907  1  -1.293295  0.000231  -0.380593  -0.251995  5e-05  3.664886  0.0
N  N221  1  0.91827286  0.65212539  0.63961984  1  -1.293282  0.000231  -0.380567  -0.251918  5e-05  3.664825  0.0
N  N222  1  0.27773797  0.34489695  0.36482843  1  -1.309629  0.00016  -0.378248  -0.253132  1.2e-05  3.658694  0.0
N  N223  1  0.72226181  0.65510294  0.63517129  1  -1.310219  0.00016  -0.378233  -0.253046  1.2e-05  3.658685  0.0
N  N224  1  0.25230894  0.47708262  0.51623992  1  -1.154118  -0.000951  -0.320953  -0.130057  -0.001026  3.577767  -0.001
N  N225  1  0.74768671  0.52291654  0.48375884  1  -1.153771  -0.000951  -0.320961  -0.130159  -0.001026  3.578048  -0.001
N  N226  1  0.34854863  0.48072679  0.83080827  1  -0.720168  0.000677  -0.212804  -0.242892  0.000156  3.213516  0.001
N  N227  1  0.65145081  0.51927163  0.16919138  1  -0.7201  0.000677  -0.212792  -0.242901  0.000156  3.213585  0.001
N  N228  1  0.39380720  0.52995924  0.92712373  1  -0.659247  -0.007112  -0.202878  -0.223861  -0.0073  3.22149  -0.006
N  N229  1  0.60619241  0.47003992  0.07287625  1  -0.659189  -0.007113  -0.202841  -0.223812  -0.007301  3.221522  -0.006
N  N230  1  0.60817963  0.83671469  0.23472011  1  -1.224136  0.062549  -0.326476  -0.240644  0.029166  3.567149  0.05
N  N231  1  0.39182016  0.16328521  0.76527904  1  -1.224309  0.062552  -0.326481  -0.240629  0.029167  3.567201  0.05
N  N232  1  0.57412362  0.02694821  0.35933311  1  -1.360572  0.057715  -0.354717  -0.319802  0.026783  3.389252  0.033
N  N233  1  0.42587695  0.97305169  0.64066743  1  -1.360646  0.057719  -0.354733  -0.319823  0.026784  3.38932  0.033
N  N234  1  0.78773623  0.01825746  0.35349175  1  -1.353077  0.055952  -0.354735  -0.318305  0.025938  3.404284  0.031
N  N235  1  0.21226530  0.98174317  0.64650878  1  -1.35308  0.055951  -0.354717  -0.318344  0.025937  3.404231  0.031
N  N236  1  0.80652882  0.85128055  0.40363773  1  -1.355012  0.057502  -0.35662  -0.330149  0.026812  3.390958  0.033
N  N237  1  0.19347813  0.14872300  0.59636614  1  -1.355085  0.057508  -0.356692  -0.330253  0.026812  3.391217  0.033
N  N238  1  0.59891766  0.86309701  0.41511219  1  -1.347528  0.057573  -0.358395  -0.32775  0.0267  3.4177  0.032
N  N239  1  0.40108399  0.13690069  0.58488671  1  -1.347515  0.057568  -0.358404  -0.327793  0.0267  3.417653  0.032
N  N240  1  0.77039916  0.04553465  0.52733299  1  -1.205  0.055944  -0.322217  -0.221884  0.025551  3.532105  0.046
N  N241  1  0.22960107  0.95446378  0.47266632  1  -1.205019  0.055944  -0.322213  -0.221898  0.025552  3.532092  0.046
N  N242  1  0.98466813  0.35257880  0.83597882  1  -0.691396  -0.010136  -0.213529  -0.243831  -0.010417  3.218956  -0.008
N  N243  1  0.01533007  0.64742110  0.16401927  1  -0.691305  -0.010136  -0.213497  -0.243749  -0.010417  3.21894  -0.008
N  N244  1  0.03533678  0.39921527  0.93236983  1  -0.693117  0.00099  -0.205779  -0.227961  0.000305  3.228762  0.002
N  N245  1  0.96466194  0.60078683  0.06762925  1  -0.69301  0.000991  -0.205836  -0.228059  0.000305  3.228812  0.002
N  N246  1  0.13332046  0.40231424  0.24647256  1  -1.178614  -0.001668  -0.323374  -0.14386  -0.001759  3.598784  -0.001
N  N247  1  0.86668045  0.59768713  0.75352748  1  -1.178559  -0.001668  -0.32334  -0.143834  -0.001759  3.59886  -0.001
O  O248  1  0.41290802  0.63629557  0.87568838  1  -1.043023  -0.002218  -0.088323  -0.164383  -0.002238  2.511425  -0.002
O  O249  1  0.58709301  0.36370287  0.12431061  1  -1.042731  -0.002218  -0.088354  -0.16443  -0.002238  2.511391  -0.002
O  O250  1  0.96807546  0.24396628  0.88577060  1  -1.036985  -0.003084  -0.088249  -0.162733  -0.003072  2.509902  -0.003
O  O251  1  0.03192483  0.75603582  0.11423011  1  -1.036871  -0.003084  -0.088222  -0.16271  -0.003072  2.50997  -0.003
