# generated using pymatgen
data_CdH36C50SN4O7
_symmetry_space_group_name_H-M   'P 1'
_cell_length_a   9.98308369
_cell_length_b   10.51956836
_cell_length_c   20.93245108
_cell_angle_alpha   90.78679128
_cell_angle_beta   99.27026837
_cell_angle_gamma   100.83189209
_symmetry_Int_Tables_number   1
_chemical_formula_structural   CdH36C50SN4O7
_chemical_formula_sum   'Cd2 H72 C100 S2 N8 O14'
_cell_volume   2128.71528486
_cell_formula_units_Z   2
loop_
 _symmetry_equiv_pos_site_id
 _symmetry_equiv_pos_as_xyz
  1  'x, y, z'
loop_
 _atom_site_type_symbol
 _atom_site_label
 _atom_site_symmetry_multiplicity
 _atom_site_fract_x
 _atom_site_fract_y
 _atom_site_fract_z
 _atom_site_occupancy
 _atom_site_pbe_bader_charge
 _atom_site_pbe_bader_spin_density
 _atom_site_pbe_cm5_charge
 _atom_site_pbe_ddec_charge
 _atom_site_pbe_ddec_spin_density
 _atom_site_pbe_ddec_sum_bond_order
 _atom_site_pbe_magmom
Cd  Cd0  1  0.53162176  0.94763341  0.11615035  1  1.26496  0  0.7634  0.88787  0  2.180518  0
Cd  Cd1  1  0.46837834  0.05236636  0.88385006  1  1.264888  0  0.763433  0.887882  0  2.180545  0
H  H2  1  0.39835541  0.09099960  0.22461434  1  0.14116  0  0.114386  0.094455  0  1.030816  0
H  H3  1  0.60163597  0.90899354  0.77538402  1  0.141293  0  0.114406  0.094634  0  1.030707  0
H  H4  1  0.23758906  0.03301652  0.30341093  1  0.069731  0  0.10008  0.105258  0  1.039588  0
H  H5  1  0.76240534  0.96697270  0.69658564  1  0.069746  0  0.100119  0.10528  0  1.039419  0
H  H6  1  0.28851652  0.63581786  0.27978076  1  0.080731  0  0.102017  0.10871  0  1.028668  0
H  H7  1  0.71147363  0.36417434  0.72021751  1  0.080856  0  0.102043  0.108691  0  1.028656  0
H  H8  1  0.44529910  0.71273621  0.20132492  1  0.16808  0  0.117297  0.102581  0  1.02542  0
H  H9  1  0.55468925  0.28725699  0.79867326  1  0.168108  0  0.117314  0.102609  0  1.025426  0
H  H10  1  0.36732920  0.12181943  0.62234475  1  0.0463  0  0.106499  0.071627  0  1.004388  0
H  H11  1  0.63266509  0.87818243  0.37765295  1  0.046216  0  0.106455  0.071537  0  1.004425  0
H  H12  1  0.56474886  0.05329355  0.58451084  1  0.073227  0  0.102621  0.107767  0  1.029628  0
H  H13  1  0.43524576  0.94670925  0.41548833  1  0.073086  0  0.102619  0.107803  0  1.029534  0
H  H14  1  0.30492236  0.67469604  0.53800218  1  0.081763  0  0.10351  0.108143  0  1.026116  0
H  H15  1  0.69508156  0.32530269  0.46199843  1  0.081764  0  0.103531  0.10815  0  1.026147  0
H  H16  1  0.11654978  0.76180707  0.57355961  1  0.057418  0  0.10537  0.069168  0  1.011335  0
H  H17  1  0.88345691  0.23818963  0.42644354  1  0.05736  0  0.105373  0.069181  0  1.011252  0
H  H18  1  0.71351672  0.01889752  0.26637516  1  0.088198  0  0.10976  0.076251  0  1.018222  0
H  H19  1  0.28648528  0.98110898  0.73363023  1  0.088307  0  0.109729  0.07617  0  1.018269  0
H  H20  1  0.93530696  0.15016248  0.31795626  1  0.042703  0  0.099055  0.09849  0  1.059533  0
H  H21  1  0.06469544  0.84984696  0.68204584  1  0.04282  0  0.09912  0.098589  0  1.05953  0
H  H22  1  0.05647182  0.17344315  0.12767598  1  0.085478  0  0.11542  0.126433  0  0.988879  0
H  H23  1  0.94353329  0.82655553  0.87232710  1  0.085387  0  0.115478  0.126532  0  0.988945  0
H  H24  1  0.83165844  0.02916499  0.08576684  1  0.155116  0  0.126675  0.109752  0  0.987455  0
H  H25  1  0.16834242  0.97083666  0.91423794  1  0.155045  0  0.12669  0.109867  0  0.987296  0
H  H26  1  0.06746026  0.88820061  0.10303769  1  0.081946  0  0.116901  0.086763  0  0.983806  0
H  H27  1  0.93254065  0.11179530  0.89695840  1  0.08192  0  0.116893  0.086767  0  0.983765  0
H  H28  1  0.89896743  0.82022346  0.17548460  1  0.06895  0  0.103686  0.108255  0  1.0433  0
H  H29  1  0.10103789  0.17977332  0.82451369  1  0.069038  0  0.10372  0.108293  0  1.043328  0
H  H30  1  0.03024797  0.44997070  0.18320772  1  0.072783  0  0.097857  0.09892  0  1.051154  0
H  H31  1  0.96974970  0.55002717  0.81679299  1  0.072805  0  0.097869  0.098937  0  1.051151  0
H  H32  1  0.19363317  0.53541003  0.11028567  1  0.098547  0  0.114099  0.083876  0  0.987595  0
H  H33  1  0.80636907  0.46458481  0.88971766  1  0.098572  0  0.114074  0.083828  0  0.987689  0
H  H34  1  0.78825877  0.59622651  0.99949514  1  0.087039  0  0.104217  0.117184  0  0.999428  0
H  H35  1  0.21172956  0.40377359  0.00049596  1  0.086596  0  0.104259  0.117183  0  0.999431  0
H  H36  1  0.76277202  0.34052851  0.00603536  1  0.097663  0  0.102891  0.110754  0  1.034864  0
H  H37  1  0.23721505  0.65947164  0.99395232  1  0.09799  0  0.102938  0.110793  0  1.034885  0
H  H38  1  0.32540957  0.41462613  0.39878754  1  0.09313  0  0.099468  0.1118  0  1.029203  0
H  H39  1  0.67459324  0.58537550  0.60121640  1  0.09325  0  0.099462  0.111739  0  1.029336  0
H  H40  1  0.09343869  0.30035780  0.34817991  1  0.052873  0  0.098521  0.097441  0  1.022158  0
H  H41  1  0.90656663  0.69964184  0.65182319  1  0.052778  0  0.098537  0.097501  0  1.022148  0
H  H42  1  0.25120639  0.24535525  0.17095565  1  0.087944  0  0.113126  0.116046  0  0.994731  0
H  H43  1  0.74879653  0.75464737  0.82904687  1  0.087827  0  0.113121  0.116044  0  0.994707  0
H  H44  1  0.47650884  0.36257771  0.21994865  1  0.143094  0  0.10044  0.116273  0  1.075802  0
H  H45  1  0.52349337  0.63742588  0.78005480  1  0.143109  0  0.100463  0.116316  0  1.075785  0
H  H46  1  0.60332059  0.68806626  0.30511908  1  0.072819  0  0.10151  0.109005  0  1.029514  0
H  H47  1  0.39668406  0.31193637  0.69487972  1  0.072673  0  0.101463  0.108946  0  1.029527  0
H  H48  1  0.77882372  0.76618177  0.23709450  1  0.086003  0  0.103897  0.102908  0  1.022031  0
H  H49  1  0.22117768  0.23381995  0.76290409  1  0.086044  0  0.103886  0.102918  0  1.022063  0
H  H50  1  0.88658361  0.38686048  0.23723348  1  0.070699  0  0.097518  0.094823  0  1.043601  0
H  H51  1  0.11341826  0.61314116  0.76277136  1  0.070634  0  0.097522  0.094851  0  1.04356  0
H  H52  1  0.70926425  0.31067945  0.30458650  1  0.07662  0  0.10518  0.12091  0  1.003473  0
H  H53  1  0.29073788  0.68932315  0.69541884  1  0.0763  0  0.105185  0.120935  0  1.003521  0
H  H54  1  0.04090702  0.94232417  0.33140780  1  0.057212  0  0.100671  0.098832  0  1.025502  0
H  H55  1  0.95908673  0.05767376  0.66859411  1  0.057178  0  0.100678  0.098838  0  1.025489  0
H  H56  1  0.88725310  0.87350974  0.40916604  1  0.116151  0  0.098533  0.106162  0  1.083875  0
H  H57  1  0.11274238  0.12649107  0.59083697  1  0.116213  0  0.098547  0.106193  0  1.083885  0
H  H58  1  0.07927600  0.54111199  0.44944488  1  0.093758  0  0.104007  0.120489  0  1.014835  0
H  H59  1  0.92071882  0.45888691  0.55055520  1  0.093894  0  0.103995  0.120515  0  1.014773  0
H  H60  1  0.23900764  0.61473022  0.37236526  1  0.065941  0  0.095828  0.090085  0  1.046512  0
H  H61  1  0.76097958  0.38526302  0.62763142  1  0.066291  0  0.09589  0.090135  0  1.046478  0
H  H62  1  0.92194841  0.88003494  0.54453801  1  0.083338  0  0.110297  0.126823  0  0.998982  0
H  H63  1  0.07805517  0.11997058  0.45546459  1  0.08318  0  0.110329  0.126943  0  0.998905  0
H  H64  1  0.73138613  0.96436483  0.58026671  1  0.074686  0  0.099818  0.094462  0  1.047993  0
H  H65  1  0.26861157  0.03564279  0.41973222  1  0.074769  0  0.099838  0.094465  0  1.048003  0
H  H66  1  0.43718146  0.64467131  0.47713550  1  0.076169  0  0.101129  0.098366  0  1.023904  0
H  H67  1  0.56282151  0.35533718  0.52286376  1  0.07617  0  0.101127  0.098357  0  1.023834  0
H  H68  1  0.62899378  0.56002987  0.44179661  1  0.136854  0  0.106056  0.121943  0  1.048782  0
H  H69  1  0.37101035  0.43997858  0.55820462  1  0.136642  0  0.106074  0.121988  0  1.048616  0
H  H70  1  0.25946670  0.82417057  0.06803494  1  0.619988  0  0.271881  0.321668  0  1.054104  0
H  H71  1  0.74053989  0.17581941  0.93196045  1  0.621434  0  0.27193  0.32171  0  1.054013  0
H  H72  1  0.33446146  0.88864963  0.01054827  1  0.642108  0  0.282246  0.382498  0  0.962305  0
H  H73  1  0.66554875  0.11133446  0.98944583  1  0.641594  0  0.282273  0.38234  0  0.962495  0
C  C74  1  0.37117059  0.99145442  0.23894642  1  0.469889  0  0.043797  0.094119  0  3.95363  0
C  C75  1  0.62881815  0.00853685  0.76104937  1  0.469582  0  0.043726  0.093896  0  3.953706  0
C  C76  1  0.28106321  0.95748438  0.28277605  1  -0.013329  0  -0.091902  -0.19068  0  3.960565  0
C  C77  1  0.71892788  0.04250781  0.71722132  1  -0.01347  0  -0.091969  -0.190699  0  3.960616  0
C  C78  1  0.24868915  0.82784337  0.30002432  1  -0.052263  0  0.007266  0.106349  0  4.003596  0
C  C79  1  0.75130081  0.17214785  0.69997441  1  -0.052658  0  0.007272  0.106489  0  4.003581  0
C  C80  1  0.31142642  0.73870690  0.27072542  1  -0.0529  0  -0.090635  -0.184174  0  3.957815  0
C  C81  1  0.68856402  0.26128626  0.72927384  1  -0.052955  0  -0.090643  -0.184208  0  3.957796  0
C  C82  1  0.39913860  0.78008154  0.22684385  1  0.423552  0  0.04087  0.085225  0  3.96057  0
C  C83  1  0.60084646  0.21991076  0.77315365  1  0.423513  0  0.040878  0.08531  0  3.960494  0
C  C84  1  0.35651995  0.02266125  0.60301568  1  0.526106  0  0.037373  0.090172  0  4.004141  0
C  C85  1  0.64347809  0.97733857  0.39698412  1  0.526067  0  0.037486  0.090444  0  4.00393  0
C  C86  1  0.46849416  0.98344349  0.58210721  1  -0.016062  0  -0.086659  -0.17333  0  3.950901  0
C  C87  1  0.53150364  0.01656024  0.41789119  1  -0.015848  0  -0.08665  -0.173431  0  3.950707  0
C  C88  1  0.45442613  0.85634813  0.55685575  1  -0.010988  0  0.007715  0.105062  0  3.97315  0
C  C89  1  0.54556895  0.14365173  0.44314483  1  -0.010952  0  0.007673  0.104946  0  3.973097  0
C  C90  1  0.32437804  0.77567527  0.55505584  1  0.009322  0  -0.087976  -0.174595  0  3.956018  0
C  C91  1  0.67562212  0.22432349  0.44494838  1  0.009183  0  -0.087992  -0.174534  0  3.955947  0
C  C92  1  0.21805327  0.82452614  0.57602616  1  0.44662  0  0.034072  0.081181  0  4.030035  0
C  C93  1  0.78194487  0.17547366  0.42397509  1  0.446789  0  0.034087  0.081193  0  4.02994  0
C  C94  1  0.79324688  0.05416529  0.23733258  1  0.531388  0  0.042005  0.0934  0  3.99312  0
C  C95  1  0.20675216  0.94584226  0.76267074  1  0.531333  0  0.041971  0.093523  0  3.993141  0
C  C96  1  0.91822943  0.13053081  0.26582949  1  -0.046873  0  -0.095671  -0.197337  0  3.980333  0
C  C97  1  0.08176903  0.86947482  0.73417185  1  -0.046877  0  -0.095824  -0.197752  0  3.980496  0
C  C98  1  0.01848013  0.17841198  0.22740925  1  -0.092887  0  0.005786  0.102221  0  4.015201  0
C  C99  1  0.98152505  0.82159544  0.77259538  1  -0.089366  0  0.00595  0.102622  0  4.014803  0
C  C100  1  0.98518208  0.14119723  0.16104000  1  -0.042785  0  -0.08344  -0.180545  0  3.929264  0
C  C101  1  0.01482279  0.85880436  0.83896453  1  -0.042862  0  -0.0835  -0.180769  0  3.929579  0
C  C102  1  0.85912341  0.06175729  0.13668612  1  0.493866  0  0.053498  0.108152  0  3.942087  0
C  C103  1  0.14087925  0.93824336  0.86331875  1  0.493668  0  0.05352  0.108104  0  3.942406  0
C  C104  1  0.05604865  0.79141340  0.12221262  1  0.512606  0  0.047979  0.099988  0  3.962465  0
C  C105  1  0.94395602  0.20858536  0.87778469  1  0.512496  0  0.047924  0.09989  0  3.962379  0
C  C106  1  0.96237490  0.75267562  0.16377749  1  -0.032014  0  -0.083553  -0.168204  0  3.939294  0
C  C107  1  0.03762782  0.24732315  0.83622066  1  -0.032092  0  -0.083537  -0.168211  0  3.939231  0
C  C108  1  0.94871555  0.62785258  0.18792884  1  -0.035382  0  0.012604  0.110879  0  3.966925  0
C  C109  1  0.05128379  0.37214918  0.81206916  1  -0.035381  0  0.012616  0.110945  0  3.966764  0
C  C110  1  0.03365021  0.54837050  0.16726883  1  -0.00881  0  -0.08805  -0.176027  0  3.948925  0
C  C111  1  0.96634869  0.45162832  0.83273197  1  -0.008755  0  -0.088034  -0.176007  0  3.948762  0
C  C112  1  0.12535295  0.59541782  0.12576003  1  0.476013  0  0.043975  0.089335  0  3.990555  0
C  C113  1  0.87464467  0.40457518  0.87424109  1  0.476137  0  0.043942  0.089296  0  3.990646  0
C  C114  1  0.62599309  0.72170682  0.07637119  1  1.585594  0  0.177476  0.560529  0  4.307553  0
C  C115  1  0.37401221  0.27829871  0.92362769  1  1.585738  0  0.177615  0.560718  0  4.307225  0
C  C116  1  0.64301321  0.58629167  0.06664584  1  -0.212553  0  -0.024907  -0.108956  0  3.974959  0
C  C117  1  0.35698747  0.41371202  0.93335083  1  -0.213026  0  -0.024964  -0.109093  0  3.975184  0
C  C118  1  0.72320168  0.53529262  0.02860543  1  -0.005859  0  -0.102689  -0.125079  0  4.032846  0
C  C119  1  0.27679138  0.46471030  0.97138647  1  -0.004749  0  -0.102693  -0.124982  0  4.032967  0
C  C120  1  0.70932790  0.39958220  0.03236152  1  -0.009209  0  -0.103287  -0.11355  0  3.99762  0
C  C121  1  0.29066697  0.60042072  0.96762762  1  -0.009643  0  -0.103377  -0.113662  0  3.997702  0
C  C122  1  0.61924489  0.34889625  0.07385648  1  -0.181876  0  -0.029651  -0.124975  0  3.984486  0
C  C123  1  0.38075491  0.65110458  0.92613723  1  -0.181769  0  -0.029678  -0.124898  0  3.984395  0
C  C124  1  0.57749591  0.21407976  0.09209583  1  1.569447  0  0.190509  0.579389  0  4.251635  0
C  C125  1  0.42250335  0.78591915  0.90789639  1  1.569154  0  0.190582  0.579293  0  4.251732  0
C  C126  1  0.41582998  0.39537452  0.31316926  1  0.353455  0  0.086924  0.268843  0  4.032174  0
C  C127  1  0.58417680  0.60462704  0.68683396  1  0.352897  0  0.086897  0.268792  0  4.032097  0
C  C128  1  0.30653648  0.37860868  0.34847777  1  -0.091861  0  -0.109114  -0.207583  0  4.029858  0
C  C129  1  0.69347108  0.62139190  0.65152548  1  -0.091426  0  -0.109103  -0.207449  0  4.029936  0
C  C130  1  0.17672594  0.31228862  0.31967062  1  -0.006505  0  -0.090881  -0.104853  0  4.000671  0
C  C131  1  0.82328095  0.68771292  0.68033404  1  -0.006262  0  -0.090986  -0.10508  0  4.001026  0
C  C132  1  0.15232682  0.26005805  0.25559276  1  0.003209  0  -0.024114  0.014266  0  4.03442  0
C  C133  1  0.84767993  0.73994739  0.74441194  1  0.000513  0  -0.024107  0.014261  0  4.034446  0
C  C134  1  0.26285926  0.28376745  0.22056324  1  0.030186  0  -0.076624  -0.085146  0  3.960085  0
C  C135  1  0.73714574  0.71623024  0.77944125  1  0.029508  0  -0.076666  -0.085165  0  3.96002  0
C  C136  1  0.39320509  0.35090187  0.24839253  1  -0.041463  0  -0.102793  -0.204933  0  3.987359  0
C  C137  1  0.60680031  0.64909777  0.75161153  1  -0.041456  0  -0.102815  -0.205001  0  3.987352  0
C  C138  1  0.64742287  0.49601678  0.30860772  1  0.340594  0  0.076538  0.244018  0  4.043752  0
C  C139  1  0.35258001  0.50398584  0.69139432  1  0.340489  0  0.076517  0.244084  0  4.043735  0
C  C140  1  0.66798927  0.62400619  0.29046779  1  -0.013444  0  -0.099031  -0.19046  0  4.009823  0
C  C141  1  0.33201047  0.37599651  0.70953263  1  -0.013223  0  -0.098983  -0.190417  0  4.009911  0
C  C142  1  0.76765575  0.66682388  0.25226584  1  -0.040336  0  -0.078862  -0.08224  0  3.957538  0
C  C143  1  0.23234576  0.33317781  0.74773419  1  -0.040007  0  -0.078878  -0.082305  0  3.957657  0
C  C144  1  0.84847716  0.58320790  0.23170942  1  0.025394  0  -0.005955  0.048127  0  3.976333  0
C  C145  1  0.15152999  0.41679561  0.76829288  1  0.025026  0  -0.005979  0.048135  0  3.976272  0
C  C146  1  0.82745851  0.45537700  0.25245544  1  -0.004005  0  -0.081861  -0.092444  0  3.956222  0
C  C147  1  0.17254402  0.54462855  0.74754662  1  -0.004332  0  -0.081813  -0.092431  0  3.956018  0
C  C148  1  0.72777770  0.41109713  0.29066016  1  0.003212  0  -0.097557  -0.187479  0  3.996895  0
C  C149  1  0.27222450  0.58890646  0.70934329  1  0.003897  0  -0.097579  -0.187529  0  3.996849  0
C  C150  1  0.15466225  0.78596125  0.34650151  1  0.005393  0  -0.022297  0.023866  0  4.013591  0
C  C151  1  0.84533241  0.21403280  0.65349754  1  0.005853  0  -0.022253  0.023723  0  4.013478  0
C  C152  1  0.05381153  0.85613207  0.35827954  1  -0.048748  0  -0.082665  -0.084949  0  3.963586  0
C  C153  1  0.94618451  0.14386391  0.64171866  1  -0.048697  0  -0.082712  -0.084921  0  3.963454  0
C  C154  1  0.96423682  0.81606280  0.40191172  1  -0.002868  0  -0.107876  -0.211932  0  3.999935  0
C  C155  1  0.03576144  0.18393798  0.59808811  1  -0.002714  0  -0.107875  -0.211975  0  3.999972  0
C  C156  1  0.97477819  0.70239404  0.43441841  1  0.410345  0  0.087623  0.268973  0  4.04078  0
C  C157  1  0.02522058  0.29760767  0.56558528  1  0.410443  0  0.087648  0.269094  0  4.040592  0
C  C158  1  0.07352540  0.62969997  0.42350886  1  -0.049333  0  -0.104572  -0.199285  0  3.99935  0
C  C159  1  0.92646592  0.37029705  0.57649051  1  -0.049561  0  -0.10457  -0.199423  0  3.9993  0
C  C160  1  0.16214712  0.67180272  0.38018928  1  -0.038079  0  -0.087874  -0.098085  0  3.989473  0
C  C161  1  0.83784134  0.32819147  0.61980748  1  -0.03834  0  -0.087916  -0.098006  0  3.989295  0
C  C162  1  0.78639072  0.71273289  0.49247352  1  0.414699  0  0.082543  0.25013  0  4.044384  0
C  C163  1  0.21362019  0.28727447  0.50752715  1  0.414485  0  0.082556  0.250079  0  4.044566  0
C  C164  1  0.81553025  0.82839062  0.53007034  1  -0.028276  0  -0.092936  -0.186655  0  3.979609  0
C  C165  1  0.18447089  0.17161787  0.46993120  1  -0.028504  0  -0.093035  -0.186837  0  3.979641  0
C  C166  1  0.70680491  0.87531883  0.55004409  1  0.006817  0  -0.080317  -0.09111  0  3.956522  0
C  C167  1  0.29318960  0.12468198  0.44995934  1  0.007098  0  -0.080294  -0.09105  0  3.956402  0
C  C168  1  0.56889801  0.80934308  0.53326280  1  -0.033521  0  -0.010159  0.044616  0  3.998163  0
C  C169  1  0.43109830  0.19065773  0.46673787  1  -0.033466  0  -0.010124  0.044719  0  3.998062  0
C  C170  1  0.54294073  0.69611943  0.49319781  1  -0.063418  0  -0.084747  -0.101887  0  3.971392  0
C  C171  1  0.45706303  0.30388908  0.50679863  1  -0.063502  0  -0.084779  -0.101936  0  3.971452  0
C  C172  1  0.65030396  0.64755313  0.47300005  1  -0.051969  0  -0.101131  -0.199241  0  3.999365  0
C  C173  1  0.34970469  0.35244642  0.52700707  1  -0.051586  0  -0.101131  -0.19924  0  3.999413  0
S  S174  1  0.55209576  0.46799391  0.10719885  1  0.249773  0  0.096079  0.160355  0  2.999647  0
S  S175  1  0.44790949  0.53200776  0.89279758  1  0.249931  0  0.096076  0.160378  0  2.999669  0
N  N176  1  0.42964230  0.90469470  0.21117093  1  -1.215548  0  -0.329534  -0.245114  0  3.479824  0
N  N177  1  0.57034593  0.09529365  0.78882670  1  -1.21546  0  -0.329519  -0.245206  0  3.479824  0
N  N178  1  0.23143325  0.94628589  0.59994161  1  -1.246827  0  -0.327299  -0.281445  0  3.35377  0
N  N179  1  0.76856644  0.05371194  0.40005922  1  -1.246732  0  -0.327365  -0.281599  0  3.353703  0
N  N180  1  0.76322490  0.01963882  0.17398966  1  -1.224266  0  -0.329772  -0.256406  0  3.501605  0
N  N181  1  0.23677183  0.98036781  0.82601255  1  -1.224253  0  -0.329742  -0.256359  0  3.501757  0
N  N182  1  0.13772566  0.71532048  0.10322493  1  -1.223147  0  -0.311539  -0.249496  0  3.396218  0
N  N183  1  0.86227661  0.28467048  0.89677691  1  -1.223181  0  -0.311514  -0.249461  0  3.396265  0
O  O184  1  0.53988156  0.73491967  0.11516111  1  -1.165043  0  -0.354991  -0.593702  0  2.286632  0
O  O185  1  0.46013483  0.26508852  0.88484276  1  -1.165139  0  -0.355038  -0.593763  0  2.286522  0
O  O186  1  0.69163704  0.81262920  0.04902984  1  -1.171903  0  -0.335899  -0.545071  0  2.082242  0
O  O187  1  0.30837234  0.18737625  0.95096975  1  -1.171959  0  -0.335967  -0.545191  0  2.082187  0
O  O188  1  0.60721256  0.12313723  0.05803355  1  -1.165036  0  -0.318182  -0.544222  0  2.299987  0
O  O189  1  0.39279525  0.87686245  0.94196253  1  -1.16491  0  -0.318203  -0.544227  0  2.29998  0
O  O190  1  0.51725057  0.19126428  0.14069297  1  -1.177356  0  -0.336686  -0.565263  0  2.127541  0
O  O191  1  0.48274838  0.80872880  0.85929915  1  -1.177537  0  -0.336656  -0.565159  0  2.127739  0
O  O192  1  0.31329922  0.90670929  0.05454535  1  -1.249644  0  -0.600125  -0.744928  0  2.099508  0
O  O193  1  0.68670555  0.09327782  0.94544799  1  -1.250675  0  -0.600191  -0.74476  0  2.099577  0
O  O194  1  0.89048097  0.65161423  0.47780166  1  -1.117471  0  -0.157381  -0.230177  0  2.582065  0
O  O195  1  0.10952588  0.34838733  0.52220252  1  -1.11762  0  -0.157394  -0.230228  0  2.581949  0
O  O196  1  0.54388398  0.45503508  0.34590092  1  -1.1148  0  -0.159341  -0.230439  0  2.570944  0
O  O197  1  0.45611849  0.54497435  0.65410214  1  -1.114636  0  -0.15924  -0.230418  0  2.57092  0
