# generated using pymatgen
data_VZnPH8C10(NO3)2
_symmetry_space_group_name_H-M   'P 1'
_cell_length_a   7.81090234
_cell_length_b   9.62633335
_cell_length_c   17.19915229
_cell_angle_alpha   90.00053786
_cell_angle_beta   89.99969653
_cell_angle_gamma   103.75937746
_symmetry_Int_Tables_number   1
_chemical_formula_structural   VZnPH8C10(NO3)2
_chemical_formula_sum   'V4 Zn4 P4 H32 C40 N8 O24'
_cell_volume   1256.09922079
_cell_formula_units_Z   4
loop_
 _symmetry_equiv_pos_site_id
 _symmetry_equiv_pos_as_xyz
  1  'x, y, z'
loop_
 _atom_site_type_symbol
 _atom_site_label
 _atom_site_symmetry_multiplicity
 _atom_site_fract_x
 _atom_site_fract_y
 _atom_site_fract_z
 _atom_site_occupancy
 _atom_site_hle17_bader_spin_density
 _atom_site_hle17_ddec_charge
 _atom_site_hle17_ddec_spin_density
 _atom_site_hle17_ddec_sum_bond_order
 _atom_site_hle17_magmom
 _atom_site_hse06_10hf_bader_spin_density
 _atom_site_hse06_10hf_ddec_charge
 _atom_site_hse06_10hf_ddec_spin_density
 _atom_site_hse06_10hf_ddec_sum_bond_order
 _atom_site_hse06_10hf_magmom
 _atom_site_hse06_bader_spin_density
 _atom_site_hse06_ddec_charge
 _atom_site_hse06_ddec_spin_density
 _atom_site_hse06_ddec_sum_bond_order
 _atom_site_hse06_magmom
 _atom_site_pbe_bader_spin_density
 _atom_site_pbe_cm5_charge
 _atom_site_pbe_ddec_charge
 _atom_site_pbe_ddec_spin_density
 _atom_site_pbe_ddec_sum_bond_order
 _atom_site_pbe_magmom
V  V0  1  0.88304551  0.50640557  0.37758224  1  0  1.942225  0  2.950728  0  0  1.983289  0  3.349878  0  0  2.065472  0  3.339291  0  0  1.493333  1.914921  0  3.380422  0
V  V1  1  0.88304518  0.00641729  0.12242126  1  0  1.942344  0  2.950478  0  0  1.983313  0  3.34981  0  0  2.065603  0  3.339045  0  0  1.493352  1.914957  0  3.380349  0
V  V2  1  0.11694914  0.49359412  0.62241904  1  0  1.942139  0  2.950967  0  0  1.983298  0  3.349996  0  0  2.065375  0  3.339552  0  0  1.493342  1.914884  0  3.380608  0
V  V3  1  0.11695598  0.99359950  0.87758292  1  0  1.942149  0  2.950892  0  0  1.983258  0  3.349997  0  0  2.065407  0  3.339452  0  0  1.493298  1.914871  0  3.380603  0
Zn  Zn4  1  0.53157901  0.27658566  0.44900303  1  0  1.101705  0  1.876299  0  0  0.930206  0  2.349549  0  0  0.97378  0  2.294774  0  0  0.714408  0.90039  0  2.385893  0
Zn  Zn5  1  0.53157417  0.77659041  0.05099984  1  0  1.10178  0  1.876308  0  0  0.930267  0  2.349553  0  0  0.97386  0  2.294773  0  0  0.714433  0.900447  0  2.385894  0
Zn  Zn6  1  0.46842264  0.72341183  0.55099942  1  0  1.101751  0  1.876273  0  0  0.930246  0  2.349507  0  0  0.973831  0  2.29473  0  0  0.714432  0.900436  0  2.385851  0
Zn  Zn7  1  0.46842434  0.22341354  0.94899970  1  0  1.101781  0  1.876339  0  0  0.930228  0  2.349584  0  0  0.973828  0  2.294808  0  0  0.714434  0.900408  0  2.385913  0
P  P8  1  0.76082406  0.52416990  0.54345864  1  0  1.754791  0  4.936112  0  0  1.582805  0  5.460213  0  0  1.648218  0  5.39762  0  0  0.401178  1.53736  0  5.500468  0
P  P9  1  0.76081995  0.02416964  0.95654106  1  0  1.754615  0  4.936349  0  0  1.582604  0  5.460478  0  0  1.648032  0  5.397879  0  0  0.401121  1.537163  0  5.500732  0
P  P10  1  0.23917697  0.47582973  0.45654148  1  0  1.754603  0  4.936153  0  0  1.582616  0  5.460266  0  0  1.648022  0  5.397678  0  0  0.401118  1.537172  0  5.500521  0
P  P11  1  0.23917670  0.97584076  0.04345964  1  0  1.754822  0  4.936207  0  0  1.582847  0  5.460288  0  0  1.648269  0  5.397683  0  0  0.401172  1.537415  0  5.500552  0
H  H12  1  0.07439814  0.81721266  0.51081676  1  0  0.128327  0  0.952465  0  0  0.137446  0  1.011287  0  0  0.140981  0  1.009712  0  0  0.112679  0.134821  0  1.01264  0
H  H13  1  0.07439606  0.31721610  0.98918147  1  0  0.128349  0  0.952512  0  0  0.137507  0  1.011275  0  0  0.141047  0  1.009694  0  0  0.112684  0.134881  0  1.012626  0
H  H14  1  0.92560763  0.18278156  0.48918161  1  0  0.128345  0  0.952467  0  0  0.137513  0  1.011211  0  0  0.141051  0  1.009633  0  0  0.112706  0.134888  0  1.012564  0
H  H15  1  0.92560690  0.68278566  0.01081574  1  0  0.128347  0  0.952523  0  0  0.137501  0  1.011289  0  0  0.141041  0  1.009709  0  0  0.112688  0.134877  0  1.012642  0
H  H16  1  0.43062107  0.26050144  0.62595485  1  0  0.085015  0  0.922711  0  0  0.095764  0  0.983127  0  0  0.097921  0  0.981435  0  0  0.12323  0.094122  0  0.984463  0
H  H17  1  0.43062695  0.76050356  0.87404862  1  0  0.085026  0  0.922698  0  0  0.095816  0  0.983062  0  0  0.097975  0  0.981367  0  0  0.123238  0.094172  0  0.984404  0
H  H18  1  0.56937037  0.73949614  0.37404469  1  0  0.084988  0  0.9227  0  0  0.095792  0  0.983076  0  0  0.097949  0  0.981382  0  0  0.123251  0.094145  0  0.984412  0
H  H19  1  0.56938017  0.23949924  0.12595150  1  0  0.085076  0  0.922719  0  0  0.095854  0  0.983087  0  0  0.098012  0  0.981393  0  0  0.123256  0.094207  0  0.98443  0
H  H20  1  0.21669053  0.08871823  0.71152806  1  0  0.111234  0  0.96668  0  0  0.118411  0  1.03175  0  0  0.121876  0  1.030314  0  0  0.111393  0.116077  0  1.032536  0
H  H21  1  0.21670406  0.58872110  0.78847212  1  0  0.111275  0  0.966671  0  0  0.118517  0  1.031643  0  0  0.121977  0  1.030221  0  0  0.111449  0.11618  0  1.032435  0
H  H22  1  0.78330310  0.91127397  0.28847206  1  0  0.111281  0  0.966614  0  0  0.118455  0  1.031657  0  0  0.121919  0  1.030221  0  0  0.111422  0.116114  0  1.032469  0
H  H23  1  0.78330915  0.41128485  0.21152742  1  0  0.111206  0  0.966711  0  0  0.118391  0  1.03177  0  0  0.121852  0  1.030343  0  0  0.111386  0.116056  0  1.032563  0
H  H24  1  0.03896745  0.86284591  0.65182678  1  0  0.110101  0  0.926026  0  0  0.124315  0  0.977834  0  0  0.127276  0  0.975482  0  0  0.114075  0.12196  0  0.98002  0
H  H25  1  0.03897213  0.36284926  0.84817061  1  0  0.110069  0  0.925959  0  0  0.124279  0  0.977793  0  0  0.127243  0  0.975436  0  0  0.114061  0.121921  0  0.979981  0
H  H26  1  0.96103001  0.13714625  0.34817101  1  0  0.110079  0  0.926052  0  0  0.124289  0  0.97788  0  0  0.12727  0  0.975502  0  0  0.114075  0.121938  0  0.980067  0
H  H27  1  0.96103660  0.63715459  0.15182485  1  0  0.110077  0  0.926003  0  0  0.124313  0  0.977794  0  0  0.127259  0  0.975461  0  0  0.114084  0.121958  0  0.979984  0
H  H28  1  0.10154099  0.80699761  0.39027064  1  0  0.111419  0  0.971225  0  0  0.116222  0  1.041166  0  0  0.119294  0  1.039872  0  0  0.110704  0.114217  0  1.041894  0
H  H29  1  0.10154003  0.30699842  0.10972702  1  0  0.111369  0  0.97124  0  0  0.116208  0  1.04114  0  0  0.119279  0  1.039848  0  0  0.110699  0.114203  0  1.041871  0
H  H30  1  0.89845271  0.19300316  0.60972598  1  0  0.111398  0  0.971193  0  0  0.116231  0  1.041096  0  0  0.119302  0  1.039804  0  0  0.110715  0.114225  0  1.041822  0
H  H31  1  0.89845589  0.69300127  0.89027194  1  0  0.111398  0  0.971127  0  0  0.116193  0  1.041075  0  0  0.119265  0  1.039781  0  0  0.110695  0.114188  0  1.041804  0
H  H32  1  0.17376150  0.79351296  0.25126367  1  0  0.108579  0  0.933077  0  0  0.122207  0  0.985696  0  0  0.125272  0  0.983252  0  0  0.11278  0.119911  0  0.987699  0
H  H33  1  0.17376302  0.29351052  0.24873375  1  0  0.108572  0  0.93305  0  0  0.12218  0  0.985694  0  0  0.125245  0  0.98325  0  0  0.112771  0.119884  0  0.987695  0
H  H34  1  0.82623924  0.20648989  0.74873296  1  0  0.10856  0  0.933129  0  0  0.122173  0  0.98576  0  0  0.125237  0  0.983315  0  0  0.112767  0.119873  0  0.987759  0
H  H35  1  0.82623575  0.70648592  0.75126637  1  0  0.108629  0  0.933043  0  0  0.12225  0  0.985667  0  0  0.125314  0  0.983224  0  0  0.112794  0.119952  0  0.987668  0
H  H36  1  0.42397019  0.98038314  0.19404418  1  0  0.125442  0  0.978327  0  0  0.133456  0  1.037131  0  0  0.137102  0  1.035538  0  0  0.111224  0.130747  0  1.038433  0
H  H37  1  0.42396587  0.48038056  0.30595652  1  0  0.125485  0  0.978377  0  0  0.133495  0  1.037165  0  0  0.137138  0  1.035574  0  0  0.111268  0.130795  0  1.038453  0
H  H38  1  0.57604551  0.01961422  0.80595768  1  0  0.125399  0  0.978522  0  0  0.133433  0  1.037274  0  0  0.137084  0  1.035674  0  0  0.111242  0.130721  0  1.038574  0
H  H39  1  0.57603673  0.51961585  0.69404301  1  0  0.125475  0  0.978405  0  0  0.133483  0  1.037197  0  0  0.137129  0  1.035603  0  0  0.111236  0.1308  0  1.038462  0
H  H40  1  0.58239775  0.18137654  0.28197879  1  0  0.095457  0  0.942015  0  0  0.108738  0  0.997284  0  0  0.111477  0  0.994904  0  0  0.120926  0.10665  0  0.99928  0
H  H41  1  0.58239041  0.68137960  0.21802520  1  0  0.095461  0  0.94194  0  0  0.1087  0  0.997276  0  0  0.111423  0  0.994937  0  0  0.120927  0.106622  0  0.999241  0
H  H42  1  0.41761853  0.81861437  0.71802424  1  0  0.095401  0  0.942065  0  0  0.10864  0  0.997403  0  0  0.111374  0  0.995034  0  0  0.120927  0.106566  0  0.999368  0
H  H43  1  0.41760486  0.31861795  0.78197550  1  0  0.095423  0  0.942021  0  0  0.108684  0  0.997335  0  0  0.11141  0  0.994988  0  0  0.120929  0.106606  0  0.999296  0
C  C44  1  0.14979355  0.91521236  0.53754150  1  0  -0.138518  0  3.669684  0  0  -0.155869  0  3.922675  0  0  -0.162538  0  3.94244  0  0  -0.075831  -0.151673  0  3.909612  0
C  C45  1  0.14979293  0.41521537  0.96245764  1  0  -0.138604  0  3.669695  0  0  -0.155956  0  3.922659  0  0  -0.162624  0  3.942427  0  0  -0.07588  -0.151764  0  3.909589  0
C  C46  1  0.85020617  0.08478299  0.46245513  1  0  -0.138682  0  3.669644  0  0  -0.156008  0  3.922578  0  0  -0.162681  0  3.94236  0  0  -0.075893  -0.151808  0  3.909516  0
C  C47  1  0.85020876  0.58478640  0.03753957  1  0  -0.138747  0  3.669703  0  0  -0.156093  0  3.922666  0  0  -0.162763  0  3.94243  0  0  -0.075924  -0.151901  0  3.9096  0
C  C48  1  0.34734090  0.16151022  0.60323380  1  0  0.159219  0  3.677925  0  0  0.125231  0  3.93384  0  0  0.132404  0  3.95149  0  0  0.058169  0.120023  0  3.922291  0
C  C49  1  0.34734375  0.66151164  0.89676760  1  0  0.159308  0  3.677821  0  0  0.125279  0  3.933725  0  0  0.132455  0  3.951371  0  0  0.058228  0.120071  0  3.922179  0
C  C50  1  0.65265564  0.83848731  0.39676515  1  0  0.159471  0  3.678006  0  0  0.12542  0  3.933892  0  0  0.132594  0  3.951533  0  0  0.058263  0.12022  0  3.922333  0
C  C51  1  0.65266272  0.33848901  0.10323251  1  0  0.159173  0  3.678  0  0  0.125134  0  3.933882  0  0  0.13231  0  3.951527  0  0  0.058182  0.11993  0  3.922331  0
C  C52  1  0.22888304  0.06641750  0.65000228  1  0  -0.107764  0  3.700338  0  0  -0.118076  0  3.947743  0  0  -0.125039  0  3.96941  0  0  -0.072261  -0.11323  0  3.933265  0
C  C53  1  0.22888527  0.56641928  0.84999950  1  0  -0.107897  0  3.700508  0  0  -0.118256  0  3.947941  0  0  -0.125223  0  3.969606  0  0  -0.072348  -0.113406  0  3.93345  0
C  C54  1  0.77111380  0.93357681  0.34999725  1  0  -0.107957  0  3.700671  0  0  -0.118257  0  3.948133  0  0  -0.125221  0  3.96981  0  0  -0.072318  -0.113409  0  3.933635  0
C  C55  1  0.77111868  0.43358569  0.15000120  1  0  -0.107653  0  3.700345  0  0  -0.117971  0  3.947759  0  0  -0.124933  0  3.969415  0  0  -0.072244  -0.113128  0  3.933287  0
C  C56  1  0.12965621  0.94100955  0.61635013  1  0  0.011529  0  3.688826  0  0  -0.008994  0  3.938491  0  0  -0.005397  0  3.956429  0  0  -0.058281  -0.011567  0  3.926761  0
C  C57  1  0.12966064  0.44101344  0.88364978  1  0  0.01155  0  3.68894  0  0  -0.008998  0  3.938653  0  0  -0.005394  0  3.956577  0  0  -0.058316  -0.011574  0  3.926917  0
C  C58  1  0.87033902  0.05898371  0.38364708  1  0  0.01169  0  3.68889  0  0  -0.008879  0  3.938592  0  0  -0.00529  0  3.956519  0  0  -0.058259  -0.01146  0  3.926879  0
C  C59  1  0.87034491  0.55899258  0.11634859  1  0  0.011616  0  3.688776  0  0  -0.008962  0  3.938477  0  0  -0.005353  0  3.956418  0  0  -0.058284  -0.011535  0  3.926752  0
C  C60  1  0.27045510  0.01648737  0.49403511  1  0  0.172881  0  3.762856  0  0  0.166104  0  4.007425  0  0  0.172447  0  4.028132  0  0  0.118517  0.161995  0  3.993708  0
C  C61  1  0.27045630  0.51648923  0.00596586  1  0  0.172984  0  3.762644  0  0  0.166139  0  4.007256  0  0  0.172492  0  4.027968  0  0  0.118611  0.162026  0  3.993535  0
C  C62  1  0.72954050  0.98351124  0.50596326  1  0  0.172929  0  3.762841  0  0  0.166087  0  4.007427  0  0  0.172441  0  4.028141  0  0  0.118526  0.161982  0  3.993712  0
C  C63  1  0.72954378  0.48351149  0.99403426  1  0  0.173019  0  3.762716  0  0  0.16618  0  4.007316  0  0  0.172519  0  4.02802  0  0  0.11859  0.162072  0  3.993589  0
C  C64  1  0.30287303  0.00079986  0.40999484  1  0  0.171571  0  3.760044  0  0  0.166719  0  3.999207  0  0  0.172559  0  4.021219  0  0  0.119283  0.162972  0  3.984589  0
C  C65  1  0.30287235  0.50080303  0.09000596  1  0  0.171631  0  3.759877  0  0  0.166794  0  3.999056  0  0  0.172597  0  4.02112  0  0  0.119303  0.163044  0  3.984438  0
C  C66  1  0.69712669  0.99919550  0.59000469  1  0  0.171523  0  3.760041  0  0  0.166714  0  3.999164  0  0  0.17251  0  4.021246  0  0  0.119286  0.162965  0  3.984551  0
C  C67  1  0.69712678  0.49919877  0.90999357  1  0  0.171668  0  3.75977  0  0  0.16675  0  3.999036  0  0  0.172599  0  4.021037  0  0  0.119304  0.162999  0  3.984417  0
C  C68  1  0.20732510  0.88819103  0.36488460  1  0  -0.118676  0  3.688297  0  0  -0.137041  0  3.936683  0  0  -0.1438  0  3.958669  0  0  -0.071373  -0.132919  0  3.922  0
C  C69  1  0.20732268  0.38819224  0.13511557  1  0  -0.118683  0  3.688197  0  0  -0.137066  0  3.936547  0  0  -0.143809  0  3.958543  0  0  -0.07138  -0.132938  0  3.921867  0
C  C70  1  0.79267561  0.11180754  0.63511378  1  0  -0.118587  0  3.688214  0  0  -0.136973  0  3.936554  0  0  -0.143717  0  3.958556  0  0  -0.071336  -0.132852  0  3.921875  0
C  C71  1  0.79267197  0.61180746  0.86488397  1  0  -0.118622  0  3.688083  0  0  -0.136931  0  3.936445  0  0  -0.143688  0  3.958426  0  0  -0.07135  -0.132807  0  3.921765  0
C  C72  1  0.24902905  0.88091338  0.28651904  1  0  0.014634  0  3.67827  0  0  -0.004372  0  3.924543  0  0  -0.001078  0  3.942851  0  0  -0.055325  -0.006511  0  3.912351  0
C  C73  1  0.24902703  0.38091472  0.21348099  1  0  0.014718  0  3.678161  0  0  -0.004275  0  3.924432  0  0  -0.00098  0  3.942736  0  0  -0.055281  -0.006409  0  3.91224  0
C  C74  1  0.75097420  0.11908516  0.71348108  1  0  0.014673  0  3.67835  0  0  -0.004325  0  3.9246  0  0  -0.001031  0  3.942913  0  0  -0.055305  -0.006459  0  3.912388  0
C  C75  1  0.75096696  0.61908284  0.78651739  1  0  0.014552  0  3.678142  0  0  -0.004462  0  3.924409  0  0  -0.001167  0  3.942714  0  0  -0.055345  -0.006603  0  3.912232  0
C  C76  1  0.38612209  0.98528133  0.25473676  1  0  -0.112858  0  3.692009  0  0  -0.126587  0  3.942215  0  0  -0.134046  0  3.964115  0  0  -0.076813  -0.121458  0  3.927579  0
C  C77  1  0.38611919  0.48528103  0.24526464  1  0  -0.112953  0  3.692076  0  0  -0.126682  0  3.942279  0  0  -0.134141  0  3.964173  0  0  -0.076879  -0.121561  0  3.927646  0
C  C78  1  0.61388689  0.01471501  0.74526510  1  0  -0.112932  0  3.69222  0  0  -0.126662  0  3.942398  0  0  -0.134114  0  3.964268  0  0  -0.076892  -0.121528  0  3.927755  0
C  C79  1  0.61387510  0.51471331  0.75473432  1  0  -0.112877  0  3.691914  0  0  -0.126583  0  3.942116  0  0  -0.134038  0  3.964001  0  0  -0.076804  -0.121469  0  3.927463  0
C  C80  1  0.47418154  0.09583532  0.30263087  1  0  0.139547  0  3.69516  0  0  0.109884  0  3.939574  0  0  0.11638  0  3.958546  0  0  0.053972  0.105556  0  3.926814  0
C  C81  1  0.47417307  0.59583807  0.19737002  1  0  0.139568  0  3.695039  0  0  0.109935  0  3.939438  0  0  0.116436  0  3.958398  0  0  0.053983  0.105609  0  3.926685  0
C  C82  1  0.52583124  0.90415670  0.69737041  1  0  0.13971  0  3.695075  0  0  0.110045  0  3.939496  0  0  0.116554  0  3.958465  0  0  0.054038  0.105718  0  3.926742  0
C  C83  1  0.52581739  0.40415630  0.80263068  1  0  0.13957  0  3.695107  0  0  0.109893  0  3.939522  0  0  0.116394  0  3.958486  0  0  0.053959  0.105563  0  3.926763  0
N  N84  1  0.43269475  0.10356673  0.37795733  1  0  -0.373898  0  3.313085  0  0  -0.294418  0  3.576451  0  0  -0.313748  0  3.592876  0  0  -0.327664  -0.28155  0  3.565261  0
N  N85  1  0.43269163  0.60357149  0.12204428  1  0  -0.373927  0  3.31297  0  0  -0.294441  0  3.576297  0  0  -0.313766  0  3.592739  0  0  -0.327689  -0.281573  0  3.565104  0
N  N86  1  0.56731070  0.89642643  0.62204453  1  0  -0.373933  0  3.312991  0  0  -0.294454  0  3.576325  0  0  -0.313786  0  3.592779  0  0  -0.32773  -0.281589  0  3.565141  0
N  N87  1  0.56730462  0.39642926  0.87795525  1  0  -0.373956  0  3.313004  0  0  -0.294446  0  3.576391  0  0  -0.313782  0  3.592814  0  0  -0.327715  -0.281574  0  3.565186  0
N  N88  1  0.36740768  0.13647304  0.52755324  1  0  -0.365429  0  3.27968  0  0  -0.293115  0  3.549129  0  0  -0.310869  0  3.563988  0  0  -0.323406  -0.281469  0  3.539647  0
N  N89  1  0.36740903  0.63647672  0.97244915  1  0  -0.365508  0  3.279637  0  0  -0.293141  0  3.54907  0  0  -0.310894  0  3.563922  0  0  -0.32343  -0.281483  0  3.539578  0
N  N90  1  0.63258854  0.86352342  0.47244630  1  0  -0.365573  0  3.279731  0  0  -0.293216  0  3.549178  0  0  -0.31096  0  3.564019  0  0  -0.323472  -0.281569  0  3.539692  0
N  N91  1  0.63259586  0.36352717  0.02755213  1  0  -0.365556  0  3.27977  0  0  -0.293129  0  3.549128  0  0  -0.310877  0  3.563977  0  0  -0.323421  -0.281474  0  3.539631  0
O  O92  1  0.71260012  0.36281272  0.52909652  1  0  -0.913886  0  2.020144  0  0  -0.835937  0  2.326505  0  0  -0.865705  0  2.300766  0  0  -0.373157  -0.813578  0  2.341674  0
O  O93  1  0.71259412  0.86281322  0.97090681  1  0  -0.913906  0  2.020269  0  0  -0.835909  0  2.326542  0  0  -0.865723  0  2.300904  0  0  -0.373178  -0.813545  0  2.341701  0
O  O94  1  0.28740441  0.63718581  0.47090535  1  0  -0.913857  0  2.020206  0  0  -0.835874  0  2.326502  0  0  -0.865673  0  2.300832  0  0  -0.37315  -0.813511  0  2.341657  0
O  O95  1  0.28740727  0.13719177  0.02909505  1  0  -0.913943  0  2.020412  0  0  -0.835951  0  2.326687  0  0  -0.865762  0  2.301037  0  0  -0.373156  -0.813593  0  2.341848  0
O  O96  1  0.71473910  0.36911277  0.35825148  1  0  -0.838383  0  1.459824  0  0  -0.837517  0  1.765  0  0  -0.870144  0  1.755405  0  0  -0.601932  -0.812352  0  1.773327  0
O  O97  1  0.71473869  0.86911459  0.14174968  1  0  -0.838505  0  1.459847  0  0  -0.837639  0  1.765093  0  0  -0.870289  0  1.755475  0  0  -0.60194  -0.812469  0  1.773414  0
O  O98  1  0.28526098  0.63088795  0.64175096  1  0  -0.838406  0  1.459847  0  0  -0.837583  0  1.765017  0  0  -0.870171  0  1.75544  0  0  -0.601929  -0.812413  0  1.773359  0
O  O99  1  0.28526139  0.13088613  0.85824927  1  0  -0.838336  0  1.459914  0  0  -0.837465  0  1.765078  0  0  -0.870071  0  1.755485  0  0  -0.601906  -0.812294  0  1.773416  0
O  O100  1  0.61289244  0.58495554  0.57437736  1  0  -0.86933  0  2.037086  0  0  -0.772179  0  2.317285  0  0  -0.800965  0  2.287408  0  0  -0.367799  -0.752038  0  2.337507  0
O  O101  1  0.61289208  0.08495798  0.92562592  1  0  -0.86925  0  2.037192  0  0  -0.772032  0  2.317308  0  0  -0.800868  0  2.287497  0  0  -0.367754  -0.751886  0  2.337517  0
O  O102  1  0.38710885  0.41503659  0.42562392  1  0  -0.869241  0  2.037047  0  0  -0.772126  0  2.31729  0  0  -0.800863  0  2.287343  0  0  -0.367776  -0.751949  0  2.337454  0
O  O103  1  0.38710194  0.91504387  0.07437827  1  0  -0.869313  0  2.036976  0  0  -0.772198  0  2.317246  0  0  -0.800953  0  2.287291  0  0  -0.367776  -0.752014  0  2.337392  0
O  O104  1  0.83644672  0.60380234  0.46450602  1  0  -0.877903  0  1.936877  0  0  -0.839232  0  2.228342  0  0  -0.872547  0  2.21372  0  0  -0.437596  -0.813261  0  2.238297  0
O  O105  1  0.83644344  0.10380525  0.03549520  1  0  -0.877916  0  1.936885  0  0  -0.839222  0  2.228378  0  0  -0.872561  0  2.213752  0  0  -0.437613  -0.813253  0  2.23834  0
O  O106  1  0.16355208  0.39619838  0.53549409  1  0  -0.877839  0  1.936903  0  0  -0.839193  0  2.228367  0  0  -0.872482  0  2.213757  0  0  -0.437571  -0.813214  0  2.238323  0
O  O107  1  0.16355258  0.89620730  0.96450783  1  0  -0.877875  0  1.936873  0  0  -0.839225  0  2.22835  0  0  -0.872522  0  2.213711  0  0  -0.437607  -0.813261  0  2.238329  0
O  O108  1  0.91898853  0.56258980  0.60234633  1  0  -0.88234  0  1.952847  0  0  -0.837607  0  2.24033  0  0  -0.870648  0  2.223407  0  0  -0.44051  -0.811203  0  2.251787  0
O  O109  1  0.91899027  0.06258965  0.89765667  1  0  -0.882315  0  1.952938  0  0  -0.837607  0  2.240484  0  0  -0.870654  0  2.223537  0  0  -0.440509  -0.811215  0  2.251947  0
O  O110  1  0.08101155  0.43741092  0.39765379  1  0  -0.882364  0  1.95284  0  0  -0.837592  0  2.240314  0  0  -0.870662  0  2.223385  0  0  -0.4405  -0.811197  0  2.251767  0
O  O111  1  0.08101093  0.93743144  0.10234810  1  0  -0.882375  0  1.952808  0  0  -0.837601  0  2.240284  0  0  -0.870692  0  2.223332  0  0  -0.440528  -0.811217  0  2.25175  0
O  O112  1  0.91413100  0.61564723  0.30426202  1  0  -0.744659  0  1.246376  0  0  -0.759854  0  1.492974  0  0  -0.785926  0  1.488826  0  0  -0.593934  -0.73894  0  1.49881  0
O  O113  1  0.91410910  0.11566243  0.19574141  1  0  -0.744678  0  1.246177  0  0  -0.759823  0  1.492765  0  0  -0.785915  0  1.488571  0  0  -0.593938  -0.738912  0  1.498615  0
O  O114  1  0.08586686  0.38435457  0.69573519  1  0  -0.744615  0  1.246467  0  0  -0.759836  0  1.493045  0  0  -0.78587  0  1.48892  0  0  -0.593968  -0.738906  0  1.498886  0
O  O115  1  0.08587000  0.88434921  0.80426394  1  0  -0.744682  0  1.246328  0  0  -0.759898  0  1.492917  0  0  -0.785961  0  1.488778  0  0  -0.593936  -0.738977  0  1.498771  0
