# generated using pymatgen
data_CdH12(C2N)10
_symmetry_space_group_name_H-M   'P 1'
_cell_length_a   8.23489049
_cell_length_b   11.30144639
_cell_length_c   11.30126301
_cell_angle_alpha   72.80637597
_cell_angle_beta   78.09029628
_cell_angle_gamma   78.08943545
_symmetry_Int_Tables_number   1
_chemical_formula_structural   CdH12(C2N)10
_chemical_formula_sum   'Cd2 H24 C40 N20'
_cell_volume   971.17114446
_cell_formula_units_Z   2
loop_
 _symmetry_equiv_pos_site_id
 _symmetry_equiv_pos_as_xyz
  1  'x, y, z'
loop_
 _atom_site_type_symbol
 _atom_site_label
 _atom_site_symmetry_multiplicity
 _atom_site_fract_x
 _atom_site_fract_y
 _atom_site_fract_z
 _atom_site_occupancy
 _atom_site_hle17_bader_spin_density
 _atom_site_hle17_ddec_charge
 _atom_site_hle17_ddec_spin_density
 _atom_site_hle17_ddec_sum_bond_order
 _atom_site_hle17_magmom
 _atom_site_hse06_10hf_bader_spin_density
 _atom_site_hse06_10hf_ddec_charge
 _atom_site_hse06_10hf_ddec_spin_density
 _atom_site_hse06_10hf_ddec_sum_bond_order
 _atom_site_hse06_10hf_magmom
 _atom_site_hse06_bader_spin_density
 _atom_site_hse06_ddec_charge
 _atom_site_hse06_ddec_spin_density
 _atom_site_hse06_ddec_sum_bond_order
 _atom_site_hse06_magmom
 _atom_site_pbe_bader_spin_density
 _atom_site_pbe_cm5_charge
 _atom_site_pbe_ddec_charge
 _atom_site_pbe_ddec_spin_density
 _atom_site_pbe_ddec_sum_bond_order
 _atom_site_pbe_magmom
Cd  Cd0  1  0.25000017  0.41010391  0.58989857  1  0  0.928705  0  1.867024  0  0  0.691723  0  2.337607  0  0  0.744426  0  2.297172  0  0  0.80035  0.655131  0  2.364568  0
Cd  Cd1  1  0.74999601  0.58989781  0.41010504  1  0  0.928791  0  1.866971  0  0  0.691849  0  2.337541  0  0  0.74455  0  2.297107  0  0  0.800382  0.655258  0  2.364501  0
H  H2  1  0.56565084  0.26225927  0.66972988  1  0  0.098003  0  0.981788  0  0  0.104151  0  1.052447  0  0  0.107019  0  1.051392  0  0  0.098187  0.102012  0  1.053354  0
H  H3  1  0.93435443  0.33027937  0.73773828  1  0  0.09806  0  0.981739  0  0  0.104206  0  1.052398  0  0  0.107075  0  1.051345  0  0  0.098236  0.102069  0  1.053307  0
H  H4  1  0.43433875  0.73774433  0.33027238  1  0  0.098003  0  0.981742  0  0  0.104174  0  1.052375  0  0  0.107038  0  1.051323  0  0  0.098224  0.102035  0  1.053283  0
H  H5  1  0.06565110  0.66970733  0.26227182  1  0  0.098037  0  0.981595  0  0  0.104168  0  1.052286  0  0  0.107039  0  1.051234  0  0  0.098222  0.102029  0  1.053195  0
H  H6  1  0.81992259  0.12531704  0.74812044  1  0  0.086414  0  0.958364  0  0  0.098857  0  1.015941  0  0  0.100968  0  1.015644  0  0  0.100443  0.097298  0  1.016267  0
H  H7  1  0.68008112  0.25189464  0.87467296  1  0  0.0865  0  0.95843  0  0  0.098882  0  1.016073  0  0  0.100991  0  1.015778  0  0  0.100454  0.097325  0  1.016397  0
H  H8  1  0.18007106  0.87469021  0.25189258  1  0  0.086415  0  0.958435  0  0  0.098887  0  1.015969  0  0  0.100995  0  1.015676  0  0  0.100465  0.097328  0  1.016296  0
H  H9  1  0.31991914  0.74809403  0.12532671  1  0  0.086425  0  0.958524  0  0  0.098884  0  1.016088  0  0  0.100993  0  1.015797  0  0  0.100459  0.097326  0  1.016415  0
H  H10  1  0.85722655  0.89544014  0.78170201  1  0  0.090155  0  0.964985  0  0  0.100059  0  1.027708  0  0  0.102501  0  1.027285  0  0  0.09981  0.098348  0  1.02803  0
H  H11  1  0.64277767  0.21831074  0.10454869  1  0  0.090191  0  0.965  0  0  0.10007  0  1.027767  0  0  0.102508  0  1.027351  0  0  0.099833  0.09836  0  1.028089  0
H  H12  1  0.14276548  0.10456342  0.21830433  1  0  0.090145  0  0.964995  0  0  0.100063  0  1.027708  0  0  0.102503  0  1.027288  0  0  0.099823  0.098348  0  1.028032  0
H  H13  1  0.35722041  0.78168824  0.89544835  1  0  0.090197  0  0.965016  0  0  0.100065  0  1.027798  0  0  0.102502  0  1.027385  0  0  0.099838  0.098356  0  1.028108  0
H  H14  1  0.64118495  0.79870267  0.73239657  1  0  0.097276  0  0.975234  0  0  0.099378  0  1.054027  0  0  0.102649  0  1.051836  0  0  0.100373  0.097108  0  1.055487  0
H  H15  1  0.85881122  0.26761556  0.20129782  1  0  0.097304  0  0.975166  0  0  0.09939  0  1.053995  0  0  0.10266  0  1.051804  0  0  0.100379  0.097119  0  1.055451  0
H  H16  1  0.35881403  0.20130383  0.26759731  1  0  0.097247  0  0.975274  0  0  0.099331  0  1.054099  0  0  0.102602  0  1.051909  0  0  0.100317  0.097061  0  1.055555  0
H  H17  1  0.14117990  0.73239278  0.79869844  1  0  0.097246  0  0.975251  0  0  0.099371  0  1.054029  0  0  0.10264  0  1.051839  0  0  0.10036  0.0971  0  1.055488  0
H  H18  1  0.37338700  0.82524775  0.64994171  1  0  0.108819  0  0.924556  0  0  0.118461  0  0.98583  0  0  0.121331  0  0.98371  0  0  0.112838  0.116457  0  0.987188  0
H  H19  1  0.12661416  0.35006665  0.17475423  1  0  0.108799  0  0.924493  0  0  0.11844  0  0.985784  0  0  0.12131  0  0.983664  0  0  0.112826  0.116435  0  0.987142  0
H  H20  1  0.62662044  0.17475409  0.35004962  1  0  0.108849  0  0.924589  0  0  0.118511  0  0.985858  0  0  0.121379  0  0.983741  0  0  0.11283  0.116506  0  0.987216  0
H  H21  1  0.87337530  0.64994354  0.82524439  1  0  0.108771  0  0.924574  0  0  0.118438  0  0.985861  0  0  0.121306  0  0.983743  0  0  0.112808  0.116435  0  0.987221  0
H  H22  1  0.13016211  0.96886014  0.56095186  1  0  0.119827  0  0.992827  0  0  0.118382  0  1.071266  0  0  0.123216  0  1.068385  0  0  0.107094  0.114877  0  1.073546  0
H  H23  1  0.36984168  0.43905229  0.03114715  1  0  0.119832  0  0.992776  0  0  0.11833  0  1.071272  0  0  0.123165  0  1.068391  0  0  0.10708  0.114829  0  1.073542  0
H  H24  1  0.86984037  0.03114170  0.43904019  1  0  0.119751  0  0.992873  0  0  0.118363  0  1.071272  0  0  0.123197  0  1.068391  0  0  0.107092  0.114857  0  1.07355  0
H  H25  1  0.63015203  0.56094945  0.96885504  1  0  0.119819  0  0.992738  0  0  0.118315  0  1.071245  0  0  0.123149  0  1.068368  0  0  0.107063  0.114813  0  1.073521  0
C  C26  1  0.45618944  0.10834570  0.65880423  1  0  0.210499  0  3.777344  0  0  0.210702  0  4.008017  0  0  0.217117  0  4.030841  0  0  0.109111  0.206417  0  3.992283  0
C  C27  1  0.04382001  0.34120344  0.89165091  1  0  0.21079  0  3.776967  0  0  0.21103  0  4.007625  0  0  0.21745  0  4.03044  0  0  0.109253  0.206744  0  3.991894  0
C  C28  1  0.54381338  0.89165420  0.34119452  1  0  0.210622  0  3.777363  0  0  0.210794  0  4.008045  0  0  0.217212  0  4.030865  0  0  0.109117  0.206509  0  3.99231  0
C  C29  1  0.95618032  0.65879645  0.10834909  1  0  0.210662  0  3.777144  0  0  0.210938  0  4.007749  0  0  0.217364  0  4.030562  0  0  0.109222  0.206652  0  3.992016  0
C  C30  1  0.58099224  0.16076080  0.68669069  1  0  -0.151284  0  3.719522  0  0  -0.171447  0  3.970509  0  0  -0.176715  0  3.991337  0  0  -0.095179  -0.167809  0  3.956203  0
C  C31  1  0.91901057  0.31332393  0.83923524  1  0  -0.151366  0  3.719581  0  0  -0.171536  0  3.970559  0  0  -0.176809  0  3.991391  0  0  -0.095252  -0.167899  0  3.956256  0
C  C32  1  0.41900590  0.83924940  0.31330668  1  0  -0.151362  0  3.719804  0  0  -0.171547  0  3.970831  0  0  -0.176812  0  3.991655  0  0  -0.095255  -0.16791  0  3.956527  0
C  C33  1  0.08099098  0.68667594  0.16076724  1  0  -0.151385  0  3.719214  0  0  -0.171555  0  3.970216  0  0  -0.176831  0  3.991049  0  0  -0.095251  -0.167917  0  3.95591  0
C  C34  1  0.72220240  0.08432092  0.72962767  1  0  -0.039584  0  3.757828  0  0  -0.054515  0  4.005698  0  0  -0.05414  0  4.026209  0  0  -0.084533  -0.054441  0  3.991558  0
C  C35  1  0.77780100  0.27038158  0.91567129  1  0  -0.039685  0  3.757892  0  0  -0.054571  0  4.005778  0  0  -0.054195  0  4.026292  0  0  -0.084522  -0.054497  0  3.99164  0
C  C36  1  0.27780037  0.91567892  0.27037729  1  0  -0.039545  0  3.757686  0  0  -0.054493  0  4.005571  0  0  -0.054117  0  4.026078  0  0  -0.084521  -0.054421  0  3.991434  0
C  C37  1  0.22220121  0.72961556  0.08432391  1  0  -0.039629  0  3.758056  0  0  -0.054576  0  4.005946  0  0  -0.054203  0  4.026459  0  0  -0.084547  -0.054504  0  3.991807  0
C  C38  1  0.74385385  0.95309948  0.74860500  1  0  -0.056688  0  3.755813  0  0  -0.071239  0  4.004095  0  0  -0.073948  0  4.025807  0  0  -0.086158  -0.069515  0  3.989406  0
C  C39  1  0.75614660  0.25140230  0.04689532  1  0  -0.056686  0  3.755662  0  0  -0.07122  0  4.003907  0  0  -0.073927  0  4.025614  0  0  -0.086216  -0.069501  0  3.989222  0
C  C40  1  0.25614628  0.04690693  0.25139847  1  0  -0.056634  0  3.755678  0  0  -0.07121  0  4.003979  0  0  -0.073917  0  4.025689  0  0  -0.086185  -0.069486  0  3.989285  0
C  C41  1  0.24385017  0.74859104  0.95310529  1  0  -0.056657  0  3.755986  0  0  -0.071212  0  4.004276  0  0  -0.073919  0  4.025982  0  0  -0.086217  -0.069487  0  3.989588  0
C  C42  1  0.62444255  0.89940961  0.72207952  1  0  -0.107951  0  3.741886  0  0  -0.127934  0  3.992977  0  0  -0.130464  0  4.015512  0  0  -0.087907  -0.126146  0  3.977911  0
C  C43  1  0.87556829  0.27793504  0.10058307  1  0  -0.108155  0  3.741999  0  0  -0.128104  0  3.993086  0  0  -0.13063  0  4.015623  0  0  -0.087983  -0.126312  0  3.978012  0
C  C44  1  0.37555906  0.10059590  0.27791956  1  0  -0.108077  0  3.741933  0  0  -0.128056  0  3.992998  0  0  -0.130584  0  4.015534  0  0  -0.087937  -0.126266  0  3.977924  0
C  C45  1  0.12443196  0.72207149  0.89940707  1  0  -0.108049  0  3.741997  0  0  -0.128011  0  3.993029  0  0  -0.130532  0  4.015562  0  0  -0.087961  -0.126223  0  3.97796  0
C  C46  1  0.47957131  0.97526422  0.67548580  1  0  0.008295  0  3.790297  0  0  0.026048  0  4.015726  0  0  0.022306  0  4.040745  0  0  -0.00582  0.028316  0  3.998996  0
C  C47  1  0.02043816  0.32452055  0.02473496  1  0  0.0084  0  3.790392  0  0  0.026113  0  4.015873  0  0  0.022368  0  4.040892  0  0  -0.005682  0.028381  0  3.99914  0
C  C48  1  0.52043852  0.02473754  0.32451494  1  0  0.008382  0  3.790187  0  0  0.02622  0  4.015522  0  0  0.022477  0  4.040542  0  0  -0.005682  0.028487  0  3.99879  0
C  C49  1  0.97956571  0.67548030  0.97526248  1  0  0.008375  0  3.790318  0  0  0.026109  0  4.015771  0  0  0.022355  0  4.040791  0  0  -0.005645  0.028377  0  3.999041  0
C  C50  1  0.35787407  0.92577608  0.64024996  1  0  -0.025556  0  3.679682  0  0  -0.049334  0  3.930488  0  0  -0.045313  0  3.947559  0  0  -0.058798  -0.051745  0  3.918694  0
C  C51  1  0.14213184  0.35975439  0.07422240  1  0  -0.025657  0  3.679715  0  0  -0.049465  0  3.930571  0  0  -0.045443  0  3.947644  0  0  -0.058893  -0.051876  0  3.918773  0
C  C52  1  0.64213051  0.07422765  0.35973947  1  0  -0.025747  0  3.679783  0  0  -0.049586  0  3.930647  0  0  -0.045567  0  3.947721  0  0  -0.058869  -0.051995  0  3.918847  0
C  C53  1  0.85786622  0.64024458  0.92577642  1  0  -0.025636  0  3.679763  0  0  -0.049514  0  3.930672  0  0  -0.045487  0  3.947743  0  0  -0.058908  -0.051922  0  3.918869  0
C  C54  1  0.22372126  0.00489398  0.59057622  1  0  -0.14384  0  3.700541  0  0  -0.162936  0  3.951525  0  0  -0.171232  0  3.971431  0  0  -0.083627  -0.157555  0  3.938101  0
C  C55  1  0.27628318  0.40942643  0.99510830  1  0  -0.143758  0  3.700403  0  0  -0.162773  0  3.951381  0  0  -0.171072  0  3.971287  0  0  -0.083579  -0.157389  0  3.937948  0
C  C56  1  0.77628949  0.99510417  0.40941126  1  0  -0.143624  0  3.700077  0  0  -0.162793  0  3.951133  0  0  -0.171091  0  3.971041  0  0  -0.083589  -0.157403  0  3.937713  0
C  C57  1  0.72371528  0.59057625  0.00489382  1  0  -0.143671  0  3.700406  0  0  -0.16269  0  3.951397  0  0  -0.17099  0  3.971308  0  0  -0.083513  -0.157308  0  3.937971  0
C  C58  1  0.21011245  0.13507868  0.57654593  1  0  0.19412  0  3.789424  0  0  0.191792  0  4.028665  0  0  0.201718  0  4.045936  0  0  0.13112  0.185261  0  4.016803  0
C  C59  1  0.28989170  0.42345579  0.86492373  1  0  0.194147  0  3.789235  0  0  0.191846  0  4.028492  0  0  0.20178  0  4.045764  0  0  0.131101  0.185309  0  4.01663  0
C  C60  1  0.78988835  0.86491943  0.42344566  1  0  0.194185  0  3.789036  0  0  0.191869  0  4.028312  0  0  0.201797  0  4.045586  0  0  0.131148  0.185308  0  4.016499  0
C  C61  1  0.71010299  0.57654126  0.13508055  1  0  0.193795  0  3.789572  0  0  0.191537  0  4.028789  0  0  0.201467  0  4.046063  0  0  0.130988  0.185004  0  4.016927  0
C  C62  1  0.07417546  0.22159183  0.51743039  1  0  0.213304  0  3.830864  0  0  0.19006  0  4.100834  0  0  0.197118  0  4.117186  0  0  0.209841  0.185312  0  4.089659  0
C  C63  1  0.42583358  0.48257527  0.77841032  1  0  0.213178  0  3.830802  0  0  0.189836  0  4.10091  0  0  0.196882  0  4.117278  0  0  0.209857  0.185095  0  4.08973  0
C  C64  1  0.92582754  0.77840712  0.48257037  1  0  0.213218  0  3.830897  0  0  0.189999  0  4.100826  0  0  0.197053  0  4.117186  0  0  0.209858  0.185262  0  4.089653  0
C  C65  1  0.57417183  0.51742361  0.22159719  1  0  0.213524  0  3.83072  0  0  0.190206  0  4.100764  0  0  0.197262  0  4.117117  0  0  0.209896  0.185459  0  4.089588  0
N  N66  1  0.31992083  0.18547225  0.61140734  1  0  -0.390347  0  3.164989  0  0  -0.32303  0  3.418156  0  0  -0.342563  0  3.434933  0  0  -0.316197  -0.309566  0  3.406135  0
N  N67  1  0.18009107  0.38859451  0.81452280  1  0  -0.390508  0  3.164873  0  0  -0.3232  0  3.418025  0  0  -0.342737  0  3.434795  0  0  -0.316272  -0.309734  0  3.406008  0
N  N68  1  0.68008221  0.81452674  0.38858987  1  0  -0.39042  0  3.164968  0  0  -0.323109  0  3.418152  0  0  -0.342644  0  3.434926  0  0  -0.31621  -0.309636  0  3.406143  0
N  N69  1  0.81991793  0.61139981  0.18547311  1  0  -0.390277  0  3.164885  0  0  -0.323042  0  3.418052  0  0  -0.342579  0  3.434826  0  0  -0.316208  -0.309575  0  3.40603  0
N  N70  1  0.03575096  0.34303764  0.51797252  1  0  -0.308089  0  3.13839  0  0  -0.256588  0  3.417571  0  0  -0.270268  0  3.433188  0  0  -0.232717  -0.247473  0  3.406881  0
N  N71  1  0.46425296  0.48202774  0.65696614  1  0  -0.307914  0  3.138364  0  0  -0.256373  0  3.41755  0  0  -0.270048  0  3.433173  0  0  -0.232649  -0.247258  0  3.406853  0
N  N72  1  0.96424273  0.65695849  0.48202862  1  0  -0.308078  0  3.138436  0  0  -0.256588  0  3.417614  0  0  -0.270265  0  3.43323  0  0  -0.232718  -0.24747  0  3.406921  0
N  N73  1  0.53574894  0.51797021  0.34304216  1  0  -0.308071  0  3.138407  0  0  -0.256567  0  3.417618  0  0  -0.270243  0  3.433229  0  0  -0.232721  -0.247452  0  3.406927  0
N  N74  1  0.91027147  0.38967107  0.45036014  1  0  -0.112441  0  3.180565  0  0  -0.062536  0  3.483694  0  0  -0.071754  0  3.499725  0  0  -0.119256  -0.056096  0  3.472442  0
N  N75  1  0.58972686  0.54964006  0.61032748  1  0  -0.112468  0  3.180621  0  0  -0.062576  0  3.483765  0  0  -0.071796  0  3.499794  0  0  -0.119293  -0.056136  0  3.472513  0
N  N76  1  0.08972175  0.61032130  0.54964392  1  0  -0.112241  0  3.180472  0  0  -0.062319  0  3.483569  0  0  -0.071535  0  3.499599  0  0  -0.119246  -0.05588  0  3.472316  0
N  N77  1  0.41027383  0.45035791  0.38967743  1  0  -0.112489  0  3.180758  0  0  -0.062574  0  3.48388  0  0  -0.071793  0  3.49991  0  0  -0.119334  -0.056135  0  3.472626  0
N  N78  1  0.87372168  0.30018724  0.41050285  1  0  -0.085249  0  2.939555  0  0  -0.08311  0  3.236763  0  0  -0.081389  0  3.249066  0  0  -0.097605  -0.084074  0  3.228126  0
N  N79  1  0.62627625  0.58950290  0.69980930  1  0  -0.085326  0  2.939606  0  0  -0.083186  0  3.236801  0  0  -0.081463  0  3.249103  0  0  -0.097614  -0.084152  0  3.22817  0
N  N80  1  0.12627422  0.69980418  0.58950197  1  0  -0.085352  0  2.939323  0  0  -0.083228  0  3.236542  0  0  -0.081505  0  3.248843  0  0  -0.097544  -0.084192  0  3.227907  0
N  N81  1  0.37372940  0.41049508  0.30019489  1  0  -0.085204  0  2.939483  0  0  -0.083076  0  3.236677  0  0  -0.081354  0  3.24898  0  0  -0.097483  -0.084042  0  3.22804  0
N  N82  1  0.97527522  0.19341054  0.45158632  1  0  -0.270088  0  2.957474  0  0  -0.241132  0  3.242293  0  0  -0.250414  0  3.255355  0  0  -0.201221  -0.234601  0  3.233294  0
N  N83  1  0.52472786  0.54842165  0.80658833  1  0  -0.270042  0  2.957612  0  0  -0.241024  0  3.242403  0  0  -0.250304  0  3.255471  0  0  -0.201236  -0.234498  0  3.233408  0
N  N84  1  0.02472527  0.80658280  0.54841464  1  0  -0.270078  0  2.95745  0  0  -0.241119  0  3.242259  0  0  -0.250403  0  3.255326  0  0  -0.201286  -0.234589  0  3.233259  0
N  N85  1  0.47528026  0.45157632  0.19341639  1  0  -0.270169  0  2.957336  0  0  -0.241156  0  3.242122  0  0  -0.250439  0  3.255186  0  0  -0.201258  -0.234626  0  3.233123  0
