# generated using pymatgen
data_CoH17C16(NO2)2
_symmetry_space_group_name_H-M   'P 1'
_cell_length_a   7.96737786
_cell_length_b   10.76344398
_cell_length_c   10.99282524
_cell_angle_alpha   99.28859714
_cell_angle_beta   105.05935938
_cell_angle_gamma   113.86637242
_symmetry_Int_Tables_number   1
_chemical_formula_structural   CoH17C16(NO2)2
_chemical_formula_sum   'Co2 H34 C32 N4 O8'
_cell_volume   793.66645436
_cell_formula_units_Z   2
loop_
 _symmetry_equiv_pos_site_id
 _symmetry_equiv_pos_as_xyz
  1  'x, y, z'
loop_
 _atom_site_type_symbol
 _atom_site_label
 _atom_site_symmetry_multiplicity
 _atom_site_fract_x
 _atom_site_fract_y
 _atom_site_fract_z
 _atom_site_occupancy
 _atom_site_hle17_bader_spin_density
 _atom_site_hle17_ddec_charge
 _atom_site_hle17_ddec_spin_density
 _atom_site_hle17_ddec_sum_bond_order
 _atom_site_hle17_magmom
 _atom_site_hse06_10hf_bader_spin_density
 _atom_site_hse06_10hf_ddec_charge
 _atom_site_hse06_10hf_ddec_spin_density
 _atom_site_hse06_10hf_ddec_sum_bond_order
 _atom_site_hse06_10hf_magmom
 _atom_site_hse06_bader_spin_density
 _atom_site_hse06_ddec_charge
 _atom_site_hse06_ddec_spin_density
 _atom_site_hse06_ddec_sum_bond_order
 _atom_site_hse06_magmom
 _atom_site_pbe_bader_spin_density
 _atom_site_pbe_cm5_charge
 _atom_site_pbe_ddec_charge
 _atom_site_pbe_ddec_spin_density
 _atom_site_pbe_ddec_sum_bond_order
 _atom_site_pbe_magmom
Co  Co0  1  0.44366014  0.48360341  0.58778202  1  0  0.605004  0  2.516011  0  0  0.586412  0  2.991371  0  0  0.661057  0  2.919468  0  0  0.509656  0.542327  0  3.039857  0
Co  Co1  1  0.55633453  0.51639079  0.41221016  1  0  0.604812  0  2.516013  0  0  0.586524  0  2.991231  0  0  0.660951  0  2.919445  0  0  0.509609  0.542215  0  3.039829  0
H  H2  1  0.28588573  0.90930458  0.62750862  1  0  0.088648  0  0.953963  0  0  0.101825  0  1.011676  0  0  0.105038  0  1.009807  0  0  0.098268  0.099497  0  1.013123  0
H  H3  1  0.71412318  0.09068931  0.37252802  1  0  0.088729  0  0.953977  0  0  0.101745  0  1.011859  0  0  0.104959  0  1.00999  0  0  0.098231  0.099431  0  1.0133  0
H  H4  1  0.55742487  0.15899193  0.71362111  1  0  0.091477  0  0.950586  0  0  0.102908  0  1.012058  0  0  0.106234  0  1.010053  0  0  0.098685  0.100555  0  1.013501  0
H  H5  1  0.44257882  0.84100198  0.28640546  1  0  0.091429  0  0.950517  0  0  0.102862  0  1.011999  0  0  0.106187  0  1.009996  0  0  0.098653  0.100509  0  1.013439  0
H  H6  1  0.24097800  0.21113949  0.67340280  1  0  0.104937  0  0.958367  0  0  0.114758  0  1.019092  0  0  0.117972  0  1.017054  0  0  0.115207  0.112459  0  1.020557  0
H  H7  1  0.75904821  0.78886378  0.32660410  1  0  0.105019  0  0.958171  0  0  0.114767  0  1.018982  0  0  0.117979  0  1.016946  0  0  0.115202  0.112465  0  1.020447  0
H  H8  1  0.15143230  0.20706161  0.90362733  1  0  0.100616  0  1.010748  0  0  0.111696  0  1.071532  0  0  0.113159  0  1.073295  0  0  0.111301  0.110484  0  1.070665  0
H  H9  1  0.84857680  0.79293705  0.09637467  1  0  0.100627  0  1.010618  0  0  0.111661  0  1.07148  0  0  0.113125  0  1.073243  0  0  0.111293  0.110455  0  1.070605  0
H  H10  1  0.96116662  0.06705074  0.30762877  1  0  0.109071  0  0.928395  0  0  0.124036  0  0.986523  0  0  0.126442  0  0.984846  0  0  0.104775  0.122351  0  0.987414  0
H  H11  1  0.03883783  0.93295744  0.69236125  1  0  0.10902  0  0.928382  0  0  0.123984  0  0.986529  0  0  0.126394  0  0.984848  0  0  0.104773  0.122301  0  0.987415  0
H  H12  1  0.16334610  0.03272811  0.33239768  1  0  0.120366  0  0.923888  0  0  0.134253  0  0.983632  0  0  0.13606  0  0.98467  0  0  0.108787  0.132637  0  0.983104  0
H  H13  1  0.83665251  0.96727691  0.66758161  1  0  0.120326  0  0.923848  0  0  0.134181  0  0.983648  0  0  0.135986  0  0.984691  0  0  0.108764  0.132561  0  0.983121  0
H  H14  1  0.80163629  0.09088180  0.08921107  1  0  0.088463  0  0.946466  0  0  0.102729  0  1.000777  0  0  0.105427  0  0.999917  0  0  0.099226  0.100782  0  1.001643  0
H  H15  1  0.19836480  0.90913586  0.91077176  1  0  0.088532  0  0.946326  0  0  0.102814  0  1.000625  0  0  0.105512  0  0.999763  0  0  0.099274  0.100862  0  1.001499  0
H  H16  1  0.10761619  0.67438852  0.29313474  1  0  0.113245  0  0.942788  0  0  0.123403  0  1.00832  0  0  0.124809  0  1.008714  0  0  0.101734  0.12217  0  1.00816  0
H  H17  1  0.89240122  0.32562804  0.70688006  1  0  0.113292  0  0.942623  0  0  0.12342  0  1.008278  0  0  0.124826  0  1.008672  0  0  0.101676  0.122178  0  1.008126  0
H  H18  1  0.07543150  0.68865892  0.44836089  1  0  0.137763  0  0.915578  0  0  0.148848  0  0.973402  0  0  0.15146  0  0.971911  0  0  0.110499  0.146761  0  0.974605  0
H  H19  1  0.92455647  0.31133490  0.55164272  1  0  0.137718  0  0.915604  0  0  0.148835  0  0.973404  0  0  0.151448  0  0.971912  0  0  0.110494  0.146749  0  0.974606  0
H  H20  1  0.34309527  0.58283296  0.10253532  1  0  0.076017  0  0.940732  0  0  0.090897  0  1.006039  0  0  0.091621  0  1.006009  0  0  0.109673  0.090322  0  1.00615  0
H  H21  1  0.65689404  0.41716523  0.89746019  1  0  0.075963  0  0.940774  0  0  0.090826  0  1.006094  0  0  0.091548  0  1.006066  0  0  0.109634  0.090254  0  1.006207  0
H  H22  1  0.26941823  0.40773618  0.10982052  1  0  0.095043  0  0.929842  0  0  0.107802  0  0.993865  0  0  0.109108  0  0.993365  0  0  0.115417  0.106583  0  0.994643  0
H  H23  1  0.73058362  0.59226127  0.89017811  1  0  0.095029  0  0.929839  0  0  0.107742  0  0.993904  0  0  0.109045  0  0.993411  0  0  0.115414  0.106527  0  0.994685  0
H  H24  1  0.49469056  0.71577045  0.83241382  1  0  0.147197  0  0.96364  0  0  0.164807  0  1.025424  0  0  0.167958  0  1.023858  0  0  0.103313  0.162427  0  1.026731  0
H  H25  1  0.50529351  0.28422774  0.16757252  1  0  0.147236  0  0.963637  0  0  0.164858  0  1.025383  0  0  0.168009  0  1.023816  0  0  0.103313  0.162478  0  1.026684  0
H  H26  1  0.46437406  0.72210922  0.98812171  1  0  0.107916  0  0.969905  0  0  0.124377  0  1.03869  0  0  0.126297  0  1.038413  0  0  0.089307  0.123036  0  1.038817  0
H  H27  1  0.53562184  0.27789127  0.01187359  1  0  0.107864  0  0.969979  0  0  0.124345  0  1.038747  0  0  0.126266  0  1.038468  0  0  0.089274  0.123002  0  1.038878  0
H  H28  1  0.26677779  0.69179932  0.84578263  1  0  0.117276  0  0.939226  0  0  0.138014  0  0.999481  0  0  0.140585  0  0.997759  0  0  0.094023  0.136145  0  1.000754  0
H  H29  1  0.73319438  0.30819206  0.15421397  1  0  0.11733  0  0.939295  0  0  0.138061  0  0.999556  0  0  0.140632  0  0.997835  0  0  0.094054  0.136191  0  1.000829  0
H  H30  1  0.02119640  0.46984074  0.13388062  1  0  0.073163  0  0.947822  0  0  0.093795  0  1.005849  0  0  0.094383  0  1.006489  0  0  0.095352  0.09338  0  1.005376  0
H  H31  1  0.97880935  0.53015664  0.86612964  1  0  0.073111  0  0.947846  0  0  0.093643  0  1.005957  0  0  0.094227  0  1.006596  0  0  0.095289  0.093228  0  1.005483  0
H  H32  1  0.91883170  0.33873541  0.97924081  1  0  0.061446  0  0.933579  0  0  0.082362  0  0.993734  0  0  0.082505  0  0.994837  0  0  0.088924  0.081695  0  0.994026  0
H  H33  1  0.08115835  0.66125116  0.02076012  1  0  0.061314  0  0.933508  0  0  0.082152  0  0.993729  0  0  0.082304  0  0.994824  0  0  0.08885  0.081474  0  0.994037  0
H  H34  1  0.28286164  0.99166234  0.15343390  1  0  0.090742  0  0.953179  0  0  0.102241  0  1.013728  0  0  0.104703  0  1.013212  0  0  0.099923  0.100495  0  1.014162  0
H  H35  1  0.71714207  0.00835963  0.84654651  1  0  0.090777  0  0.953167  0  0  0.102322  0  1.013671  0  0  0.104786  0  1.013156  0  0  0.099906  0.100572  0  1.014107  0
C  C36  1  0.37986425  0.94934993  0.57131435  1  0  -0.127133  0  3.763231  0  0  -0.146445  0  4.011327  0  0  -0.149537  0  4.033053  0  0  -0.095446  -0.144417  0  3.996372  0
C  C37  1  0.62013351  0.05064063  0.42871417  1  0  -0.1272  0  3.763477  0  0  -0.146387  0  4.011521  0  0  -0.149477  0  4.033244  0  0  -0.095403  -0.144377  0  3.996581  0
C  C38  1  0.53379567  0.08853366  0.62050615  1  0  -0.123197  0  3.763266  0  0  -0.145437  0  4.01769  0  0  -0.147732  0  4.038768  0  0  -0.096692  -0.143544  0  4.002995  0
C  C39  1  0.46621523  0.91146140  0.37952741  1  0  -0.123043  0  3.763308  0  0  -0.145252  0  4.017652  0  0  -0.147546  0  4.03873  0  0  -0.096576  -0.14336  0  4.002955  0
C  C40  1  0.28248240  0.61332930  0.42979321  1  0  0.671779  0  3.765873  0  0  0.63777  0  4.063848  0  0  0.677988  0  4.05604  0  0  0.220861  0.608516  0  4.070411  0
C  C41  1  0.71751350  0.38666687  0.57020863  1  0  0.671757  0  3.765898  0  0  0.637823  0  4.063797  0  0  0.678044  0  4.055984  0  0  0.22086  0.608565  0  4.070364  0
C  C42  1  0.25519435  0.29610056  0.74987583  1  0  -0.01167  0  3.786547  0  0  -0.045391  0  4.063815  0  0  -0.042161  0  4.08026  0  0  -0.008653  -0.047714  0  4.05352  0
C  C43  1  0.74482204  0.70389726  0.25012557  1  0  -0.011752  0  3.786487  0  0  -0.04539  0  4.063759  0  0  -0.042159  0  4.080197  0  0  -0.008645  -0.047717  0  4.05345  0
C  C44  1  0.20965285  0.29225267  0.86177286  1  0  -0.091733  0  3.744695  0  0  -0.130684  0  4.004562  0  0  -0.129447  0  4.024228  0  0  -0.013088  -0.131289  0  3.991433  0
C  C45  1  0.79035555  0.70774696  0.13823282  1  0  -0.091505  0  3.744603  0  0  -0.130445  0  4.004457  0  0  -0.129208  0  4.024123  0  0  -0.012998  -0.131059  0  3.991322  0
C  C46  1  0.23801008  0.24904739  0.35841998  1  0  0.668531  0  3.779429  0  0  0.63341  0  4.07818  0  0  0.673536  0  4.070549  0  0  0.221316  0.604589  0  4.083689  0
C  C47  1  0.76199969  0.75096101  0.64156561  1  0  0.668715  0  3.779292  0  0  0.633588  0  4.078036  0  0  0.673714  0  4.070395  0  0  0.221462  0.604767  0  4.083552  0
C  C48  1  0.09573054  0.09247689  0.28510387  1  0  -0.295507  0  3.700628  0  0  -0.339047  0  3.94029  0  0  -0.345893  0  3.946968  0  0  -0.150796  -0.333495  0  3.935224  0
C  C49  1  0.90427198  0.90753029  0.71487925  1  0  -0.295292  0  3.700285  0  0  -0.338851  0  3.939943  0  0  -0.345698  0  3.946618  0  0  -0.150741  -0.333288  0  3.934872  0
C  C50  1  0.04921570  0.04787350  0.13847006  1  0  0.115899  0  3.764641  0  0  0.13324  0  4.004016  0  0  0.134831  0  4.02698  0  0  -0.01237  0.131968  0  3.988166  0
C  C51  1  0.95077761  0.95212919  0.86151422  1  0  0.116016  0  3.764483  0  0  0.133486  0  4.003704  0  0  0.135081  0  4.026665  0  0  -0.01235  0.132211  0  3.987851  0
C  C52  1  0.88955917  0.05120892  0.05035428  1  0  -0.123894  0  3.748564  0  0  -0.143322  0  3.997017  0  0  -0.146492  0  4.018426  0  0  -0.092793  -0.141009  0  3.98286  0
C  C53  1  0.11044001  0.94880130  0.94962966  1  0  -0.124287  0  3.748402  0  0  -0.143767  0  3.996841  0  0  -0.146939  0  4.018247  0  0  -0.093037  -0.141449  0  3.98269  0
C  C54  1  0.18391633  0.70540770  0.40031231  1  0  -0.303227  0  3.676764  0  0  -0.347351  0  3.918191  0  0  -0.354223  0  3.924693  0  0  -0.156925  -0.342324  0  3.91386  0
C  C55  1  0.81607882  0.29458933  0.59970046  1  0  -0.303408  0  3.676743  0  0  -0.347621  0  3.918194  0  0  -0.354508  0  3.924724  0  0  -0.156935  -0.342569  0  3.913848  0
C  C56  1  0.34327758  0.85874535  0.44994816  1  0  0.11748  0  3.747768  0  0  0.136733  0  3.985269  0  0  0.137721  0  4.009772  0  0  -0.009383  0.13631  0  3.968451  0
C  C57  1  0.65672282  0.14124528  0.55007996  1  0  0.117663  0  3.747753  0  0  0.137005  0  3.985108  0  0  0.137993  0  4.009606  0  0  -0.009216  0.136579  0  3.968294  0
C  C58  1  0.32540858  0.51387568  0.84883238  1  0  0.353376  0  3.664108  0  0  0.336263  0  3.933519  0  0  0.352493  0  3.947537  0  0  0.216372  0.325399  0  3.923899  0
C  C59  1  0.67458735  0.48612276  0.15115985  1  0  0.353713  0  3.664221  0  0  0.336448  0  3.933845  0  0  0.352681  0  3.947852  0  0  0.216427  0.325583  0  3.924211  0
C  C60  1  0.23284201  0.47157093  0.04984905  1  0  0.002638  0  3.627157  0  0  -0.057375  0  3.883423  0  0  -0.052911  0  3.893796  0  0  -0.056132  -0.060311  0  3.876441  0
C  C61  1  0.76715393  0.52842318  0.95015063  1  0  0.002711  0  3.627408  0  0  -0.057255  0  3.88348  0  0  -0.052788  0  3.893853  0  0  -0.056072  -0.060183  0  3.876472  0
C  C62  1  0.39108033  0.66956456  0.88111399  1  0  -0.385445  0  3.721419  0  0  -0.467537  0  3.962329  0  0  -0.471617  0  3.966541  0  0  -0.234222  -0.464479  0  3.959331  0
C  C63  1  0.60890825  0.33044101  0.11887899  1  0  -0.385639  0  3.721734  0  0  -0.467712  0  3.962672  0  0  -0.471795  0  3.96688  0  0  -0.234257  -0.464656  0  3.959675  0
C  C64  1  0.02698259  0.45088877  0.03408125  1  0  -0.124711  0  3.69768  0  0  -0.169122  0  3.962926  0  0  -0.170099  0  3.976242  0  0  -0.16641  -0.168154  0  3.954046  0
C  C65  1  0.97301140  0.54909784  0.96592406  1  0  -0.124381  0  3.69768  0  0  -0.168509  0  3.962685  0  0  -0.169485  0  3.975995  0  0  -0.166247  -0.167536  0  3.953806  0
C  C66  1  0.15922695  0.99614547  0.08595614  1  0  -0.116654  0  3.748252  0  0  -0.136891  0  4.000272  0  0  -0.138954  0  4.020488  0  0  -0.090123  -0.135261  0  3.986667  0
C  C67  1  0.84076769  0.00385514  0.91402894  1  0  -0.117025  0  3.74856  0  0  -0.137358  0  4.00056  0  0  -0.139422  0  4.020769  0  0  -0.090202  -0.13572  0  3.986957  0
N  N68  1  0.32734225  0.43380293  0.74333062  1  0  -0.350335  0  3.166442  0  0  -0.311245  0  3.450081  0  0  -0.330725  0  3.460176  0  0  -0.334789  -0.299281  0  3.444647  0
N  N69  1  0.67266027  0.56619562  0.25666649  1  0  -0.350413  0  3.16649  0  0  -0.311294  0  3.450154  0  0  -0.330759  0  3.460233  0  0  -0.334821  -0.299313  0  3.444685  0
N  N70  1  0.25489531  0.43001758  0.92398203  1  0  -0.127081  0  3.538523  0  0  -0.035586  0  3.751882  0  0  -0.051212  0  3.777524  0  0  -0.250646  -0.025117  0  3.734331  0
N  N71  1  0.74509993  0.56998182  0.07601478  1  0  -0.127438  0  3.538863  0  0  -0.035886  0  3.752201  0  0  -0.051515  0  3.777846  0  0  -0.250731  -0.025415  0  3.734653  0
O  O72  1  0.24119753  0.29374319  0.47422832  1  0  -0.518725  0  2.133384  0  0  -0.489041  0  2.405206  0  0  -0.527245  0  2.397666  0  0  -0.286782  -0.46305  0  2.410302  0
O  O73  1  0.75881760  0.70625474  0.52576377  1  0  -0.518885  0  2.133416  0  0  -0.489245  0  2.405275  0  0  -0.527428  0  2.397728  0  0  -0.286867  -0.463235  0  2.410373  0
O  O74  1  0.27468922  0.56822750  0.52962538  1  0  -0.503417  0  2.092989  0  0  -0.475906  0  2.356647  0  0  -0.513697  0  2.348299  0  0  -0.286876  -0.450865  0  2.362843  0
O  O75  1  0.72529754  0.43176007  0.47037238  1  0  -0.503299  0  2.092852  0  0  -0.475828  0  2.356478  0  0  -0.513603  0  2.34814  0  0  -0.286837  -0.450781  0  2.362707  0
O  O76  1  0.37710931  0.59534100  0.35645289  1  0  -0.532552  0  2.129162  0  0  -0.503388  0  2.408704  0  0  -0.542996  0  2.403776  0  0  -0.289717  -0.477131  0  2.412855  0
O  O77  1  0.62289503  0.40466907  0.64355018  1  0  -0.532537  0  2.129216  0  0  -0.503387  0  2.408753  0  0  -0.542995  0  2.40378  0  0  -0.289749  -0.477151  0  2.412913  0
O  O78  1  0.34740797  0.32272302  0.30322703  1  0  -0.52265  0  2.141371  0  0  -0.488803  0  2.409702  0  0  -0.526338  0  2.402845  0  0  -0.28075  -0.463332  0  2.414787  0
O  O79  1  0.65259249  0.67728715  0.69676259  1  0  -0.52276  0  2.1413  0  0  -0.488915  0  2.409684  0  0  -0.526475  0  2.402824  0  0  -0.280794  -0.463462  0  2.414781  0
