# generated using pymatgen
data_MnH8C10N2Cl3
_symmetry_space_group_name_H-M   'P 1'
_cell_length_a   8.10425349
_cell_length_b   8.99316586
_cell_length_c   9.65171047
_cell_angle_alpha   81.17732315
_cell_angle_beta   70.11365142
_cell_angle_gamma   63.21065907
_symmetry_Int_Tables_number   1
_chemical_formula_structural   MnH8C10N2Cl3
_chemical_formula_sum   'Mn2 H16 C20 N4 Cl6'
_cell_volume   590.49888975
_cell_formula_units_Z   2
loop_
 _symmetry_equiv_pos_site_id
 _symmetry_equiv_pos_as_xyz
  1  'x, y, z'
loop_
 _atom_site_type_symbol
 _atom_site_label
 _atom_site_symmetry_multiplicity
 _atom_site_fract_x
 _atom_site_fract_y
 _atom_site_fract_z
 _atom_site_occupancy
 _atom_site_pbe_cm5_charge
 _atom_site_pbe_ddec_charge
 _atom_site_pbe_ddec_spin_density
 _atom_site_pbe_ddec_sum_bond_order
 _atom_site_pbe_magmom
Mn  Mn0  1  0.24366561  0.95610294  0.73221779  1  0.551724  0.818458  -3.75036  3.185607  -3.586
Mn  Mn1  1  0.19984693  0.04388014  0.23217573  1  0.55167  0.8185  -3.749943  3.18561  -3.586
H  H2  1  0.66403286  0.91786185  0.63677466  1  0.110864  0.087368  0.000678  1.03625  0.001
H  H3  1  0.58198855  0.08213078  0.13679857  1  0.110737  0.087297  0.000676  1.036233  0.001
H  H4  1  0.82332365  0.11301632  0.58397126  1  0.095732  0.112171  0.000216  1.061162  0.0
H  H5  1  0.93643751  0.88695029  0.08394220  1  0.095797  0.11217  0.000218  1.06177  0.0
H  H6  1  0.60844937  0.42055325  0.62279909  1  0.102169  0.11064  -0.00049  1.010064  0.0
H  H7  1  0.02923239  0.57946879  0.12277799  1  0.101684  0.109788  -0.000491  1.010179  0.0
H  H8  1  0.25243018  0.51776972  0.72336780  1  0.100371  0.116355  -0.00048  1.049944  0.0
H  H9  1  0.77044488  0.48218455  0.22338553  1  0.100716  0.116488  -0.000481  1.050256  0.0
H  H10  1  0.95694372  0.57799483  0.80875302  1  0.103352  0.122492  0.000441  1.027545  0.0
H  H11  1  0.53522538  0.42199716  0.30891117  1  0.103385  0.121798  0.000437  1.029133  0.0
H  H12  1  0.60913641  0.62602598  0.91939868  1  0.094623  0.108249  -0.000176  1.049009  0.0
H  H13  1  0.23547010  0.37398609  0.41941204  1  0.094649  0.108114  -0.000178  1.049246  0.0
H  H14  1  0.53174158  0.37783504  0.97131968  1  0.102981  0.117589  0.000227  1.015711  0.0
H  H15  1  0.90981907  0.62210670  0.47133079  1  0.103103  0.117712  0.000221  1.01554  0.0
H  H16  1  0.80242417  0.09574704  0.89274799  1  0.112747  0.086068  0.000542  1.038939  0.001
H  H17  1  0.89834518  0.90425655  0.39275854  1  0.112829  0.086921  0.000542  1.038884  0.001
C  C18  1  0.57925187  0.05157274  0.65331160  1  0.057066  0.105877  -0.009723  3.89865  -0.009
C  C19  1  0.63090915  0.94843633  0.15337752  1  0.057042  0.105297  -0.009699  3.896368  -0.009
C  C20  1  0.66568996  0.16060487  0.62395462  1  -0.080162  -0.120254  0.00356  3.95895  0.003
C  C21  1  0.82639071  0.83934738  0.12397438  1  -0.079809  -0.120119  0.003561  3.957553  0.003
C  C22  1  0.54703687  0.33041297  0.64667371  1  -0.06009  -0.006405  -0.01115  3.928354  -0.008
C  C23  1  0.87762832  0.66952730  0.14670666  1  -0.059593  -0.004885  -0.011138  3.928621  -0.008
C  C24  1  0.34665233  0.38549216  0.70233068  1  -0.072072  -0.138958  0.002016  3.903099  0.002
C  C25  1  0.73236024  0.61445476  0.20239501  1  -0.072341  -0.13936  0.002016  3.904357  0.002
C  C26  1  0.26871470  0.26957506  0.72999772  1  0.126253  0.168177  -0.006822  3.975464  -0.006
C  C27  1  0.53847375  0.73045183  0.23018773  1  0.126125  0.168491  -0.006824  3.972434  -0.006
C  C28  1  0.06143129  0.31214840  0.79246261  1  0.128512  0.17452  -0.006328  3.968129  -0.005
C  C29  1  0.37380186  0.68784377  0.29265416  1  0.128701  0.17612  -0.006315  3.964038  -0.005
C  C30  1  0.91776891  0.47376159  0.82926936  1  -0.071299  -0.137921  0.002293  3.893958  0.002
C  C31  1  0.39182688  0.52623618  0.32944854  1  -0.071268  -0.137914  0.0023  3.894265  0.002
C  C32  1  0.72452833  0.50043117  0.89257536  1  -0.060432  -0.006097  -0.010836  3.930122  -0.008
C  C33  1  0.22523829  0.49960059  0.39267351  1  -0.060643  -0.005969  -0.010839  3.930829  -0.008
C  C34  1  0.68026289  0.36390546  0.92053613  1  -0.076945  -0.117481  0.003741  3.936906  0.004
C  C35  1  0.04437173  0.63613170  0.42065758  1  -0.07685  -0.116917  0.003738  3.937582  0.004
C  C36  1  0.82951904  0.20596207  0.87920623  1  0.060745  0.110399  -0.010039  3.906526  -0.009
C  C37  1  0.03562030  0.79405318  0.37928835  1  0.059724  0.107768  -0.010025  3.908596  -0.009
N  N38  1  0.38552101  0.10483214  0.70175680  1  -0.322763  -0.224472  0.021602  3.560706  0.034
N  N39  1  0.49044586  0.89518877  0.20188840  1  -0.322904  -0.224192  0.021542  3.557812  0.034
N  N40  1  0.01514328  0.18058325  0.81485868  1  -0.323358  -0.226808  0.018496  3.549154  0.032
N  N41  1  0.19590149  0.81939888  0.31496045  1  -0.322898  -0.226777  0.018491  3.547401  0.032
Cl  Cl42  1  0.28912130  0.86704828  0.97276876  1  -0.249066  -0.489819  -0.16524  1.294905  -0.134
Cl  Cl43  1  0.15609435  0.13302967  0.47263174  1  -0.24931  -0.490018  -0.165366  1.29511  -0.134
Cl  Cl44  1  0.50751721  0.74882072  0.59683049  1  -0.218143  -0.383185  -0.043495  1.275171  -0.022
Cl  Cl45  1  0.25637278  0.25121557  0.09683628  1  -0.218184  -0.383459  -0.043511  1.274493  -0.022
Cl  Cl46  1  0.04841460  0.83759897  0.74185676  1  -0.21251  -0.386991  -0.038825  1.320207  -0.018
Cl  Cl47  1  0.88603695  0.16245764  0.24188728  1  -0.212663  -0.38682  -0.038784  1.320115  -0.018
