# generated using pymatgen
data_Al4H32C64Br8O31
_symmetry_space_group_name_H-M   'P 1'
_cell_length_a   6.69997613
_cell_length_b   22.28964195
_cell_length_c   23.89498007
_cell_angle_alpha   112.91205320
_cell_angle_beta   92.24941225
_cell_angle_gamma   93.64141967
_symmetry_Int_Tables_number   1
_chemical_formula_structural   Al4H32C64Br8O31
_chemical_formula_sum   'Al4 H32 C64 Br8 O31'
_cell_volume   3272.34763235
_cell_formula_units_Z   1
loop_
 _symmetry_equiv_pos_site_id
 _symmetry_equiv_pos_as_xyz
  1  'x, y, z'
loop_
 _atom_site_type_symbol
 _atom_site_label
 _atom_site_symmetry_multiplicity
 _atom_site_fract_x
 _atom_site_fract_y
 _atom_site_fract_z
 _atom_site_occupancy
 _atom_site_pbe_bader_charge
 _atom_site_pbe_bader_spin_density
 _atom_site_pbe_cm5_charge
 _atom_site_pbe_ddec_charge
 _atom_site_pbe_ddec_spin_density
 _atom_site_pbe_ddec_sum_bond_order
 _atom_site_pbe_magmom
Al  Al0  1  0.14677581  0.49851224  0.50139089  1  2.503468  0  0.4001  1.651111  0  2.564662  0
Al  Al1  1  0.64727444  0.50086425  0.50156257  1  2.504399  0  0.402218  1.648744  0  2.579413  0
Al  Al2  1  0.66272829  0.00138339  0.00427999  1  2.504183  0  0.402507  1.645117  0  2.559583  0
Al  Al3  1  0.16185505  0.99870466  0.00047378  1  2.503338  0  0.39606  1.647962  0  2.580798  0
H  H4  1  0.61085754  0.86292599  0.07390947  1  0.115555  0  0.106921  0.118901  0  1.001305  0
H  H5  1  0.59445351  0.79281557  0.13407871  1  0.084592  0  0.108045  0.120972  0  0.980384  0
H  H6  1  0.86254871  0.86724963  0.29743437  1  0.08095  0  0.101599  0.119835  0  1.00437  0
H  H7  1  0.58683646  0.61785587  0.41241997  1  0.102327  0  0.10766  0.127571  0  1.031648  0
H  H8  1  0.17709702  0.64955807  0.30555231  1  0.106431  0  0.114769  0.140041  0  0.999946  0
H  H9  1  0.67459758  0.68193210  0.64264520  1  0.089271  0  0.111106  0.11774  0  0.991653  0
H  H10  1  0.55475647  0.78690358  0.70894897  1  0.074587  0  0.106093  0.120827  0  0.991391  0
H  H11  1  0.12195752  0.82137537  0.86124394  1  0.09546  0  0.09745  0.100055  0  1.056734  0
H  H12  1  0.61431243  0.32444345  0.35748663  1  0.106243  0  0.097561  0.103448  0  1.053641  0
H  H13  1  0.74890589  0.13361154  0.18654981  1  0.136842  0  0.11307  0.136278  0  0.988193  0
H  H14  1  0.72029961  0.18729472  0.84324644  1  0.063059  0  0.103076  0.128783  0  1.012284  0
H  H15  1  0.62790764  0.15443660  0.72588917  1  0.094082  0  0.108823  0.129045  0  0.987355  0
H  H16  1  0.17752435  0.33250191  0.76347604  1  0.066189  0  0.111758  0.120758  0  0.973895  0
H  H17  1  0.16638037  0.26724512  0.82724304  1  0.103223  0  0.111073  0.119024  0  0.981791  0
H  H18  1  0.09189494  0.29842013  0.64470578  1  0.078062  0  0.090956  0.091511  0  1.04452  0
H  H19  1  0.08293883  0.36677969  0.58328314  1  0.080963  0  0.109311  0.11976  0  0.99435  0
H  H20  1  0.71361888  0.42430898  0.63063118  1  0.117563  0  0.118554  0.143339  0  0.975503  0
H  H21  1  0.22862947  0.57031556  0.40835412  1  0.628106  0  0.312782  0.359617  0  0.94731  0
H  H22  1  0.24846546  0.58954831  0.64277990  1  0.644898  0  0.317674  0.362024  0  0.944496  0
H  H23  1  0.12797697  0.12423141  0.10987310  1  0.650582  0  0.317666  0.360759  0  0.961798  0
H  H24  1  0.94188726  0.07790602  0.85970851  1  0.653999  0  0.312451  0.356465  0  0.953914  0
H  H25  1  0.06499499  0.15669943  0.76868689  1  0.599722  0  0.316751  0.341475  0  0.931661  0
H  H26  1  0.73269687  0.09197944  0.93178505  1  0.654847  0  0.311802  0.350244  0  0.978975  0
H  H27  1  0.32884858  0.89845049  0.21830361  1  0.592221  0  0.292559  0.317272  0  0.987351  0
H  H28  1  0.73648498  0.33768226  0.72640389  1  0.586984  0  0.315077  0.341742  0  0.924177  0
H  H29  1  0.84058397  0.85142096  0.38565477  1  0.580912  0  0.33926  0.365497  0  0.871708  0
H  H30  1  0.88670075  0.59435197  0.22302746  1  0.615412  0  0.323242  0.354185  0  0.904947  0
H  H31  1  0.42656231  0.67084311  0.36531620  1  0.621042  0  0.318839  0.355134  0  0.923785  0
H  H32  1  0.41573523  0.58703561  0.52612489  1  0.632402  0  0.355241  0.433969  0  0.845689  0
H  H33  1  0.87172296  0.41716352  0.45774606  1  0.605829  0  0.354585  0.434242  0  0.848972  0
H  H34  1  0.39651429  0.91802806  0.95809167  1  0.621856  0  0.352939  0.431418  0  0.853586  0
H  H35  1  0.93536955  0.08115127  0.00488533  1  0.620736  0  0.353773  0.431148  0  0.849214  0
C  C36  1  0.36377255  0.41269608  0.40112207  1  1.593703  0  0.272037  0.668496  0  4.060167  0
C  C37  1  0.39760996  0.43618985  0.56291423  1  1.516064  0  0.27087  0.648593  0  4.0866  0
C  C38  1  0.93011159  0.59177860  0.60036847  1  1.535422  0  0.271602  0.66109  0  4.0649  0
C  C39  1  0.89908965  0.56596264  0.43990811  1  1.518521  0  0.256705  0.647929  0  4.088936  0
C  C40  1  0.73710801  0.86357901  0.10427809  1  0.022041  0  -0.096227  -0.113581  0  4.030581  0
C  C41  1  0.72853811  0.82491432  0.13791389  1  -0.05963  0  -0.092732  -0.127931  0  4.036037  0
C  C42  1  0.89089587  0.82582046  0.17687380  1  0.036671  0  -0.012278  -0.00482  0  3.972809  0
C  C43  1  0.06474994  0.86732418  0.18235549  1  0.552678  0  0.075685  0.211988  0  4.074857  0
C  C44  1  0.07287287  0.90612970  0.14783403  1  -0.086037  0  -0.026922  -0.036896  0  3.919985  0
C  C45  1  0.91054804  0.90417818  0.10794320  1  0.021507  0  -0.024654  -0.079569  0  4.002441  0
C  C46  1  0.86546678  0.81424490  0.27583024  1  -0.06483  0  -0.123421  -0.303223  0  4.021874  0
C  C47  1  0.85691735  0.77691384  0.31094481  1  0.437784  0  0.080179  0.299208  0  4.099651  0
C  C48  1  0.86599779  0.70888140  0.28399525  1  0.089216  0  -0.03555  -0.155735  0  3.983225  0
C  C49  1  0.88253037  0.67889487  0.22068807  1  0.540698  0  0.08028  0.242821  0  4.088542  0
C  C50  1  0.88982823  0.71668042  0.18533438  1  -0.059949  0  -0.037522  -0.063485  0  3.911132  0
C  C51  1  0.88187347  0.78450644  0.21285973  1  0.088087  0  -0.011183  0.088057  0  4.036802  0
C  C52  1  0.70228370  0.66077633  0.35262035  1  0.540297  0  0.074934  0.253497  0  4.079566  0
C  C53  1  0.71651325  0.62600706  0.38955627  1  -0.016914  0  -0.103913  -0.209388  0  4.001346  0
C  C54  1  0.89571096  0.60091762  0.39884061  1  -0.008244  0  -0.042597  -0.176096  0  4.042206  0
C  C55  1  0.06485755  0.61036329  0.36886175  1  0.486138  0  0.075756  0.290028  0  4.096419  0
C  C56  1  0.04750773  0.64286244  0.32943196  1  -0.059265  0  -0.106785  -0.271364  0  3.961228  0
C  C57  1  0.87037249  0.66985556  0.32196016  1  0.030806  0  -0.007031  0.03422  0  3.993416  0
C  C58  1  0.95401190  0.64874690  0.65944154  1  -0.053206  0  -0.027843  -0.169724  0  4.000309  0
C  C59  1  0.85276344  0.85727745  0.84127504  1  0.03343  0  -0.013603  -0.073477  0  3.937954  0
C  C60  1  0.67838775  0.79427708  0.74262253  1  0.074802  0  -0.094356  -0.18542  0  4.000603  0
C  C61  1  0.69141638  0.84780406  0.79711447  1  -0.090684  0  -0.016947  0.081035  0  3.967977  0
C  C62  1  0.99770632  0.81284034  0.82764200  1  -0.000929  0  -0.081461  -0.123734  0  3.948988  0
C  C63  1  0.98922693  0.75739155  0.77233515  1  -0.023277  0  -0.009393  0.046104  0  4.019801  0
C  C64  1  0.82258695  0.74767836  0.72911332  1  0.00129  0  -0.007532  0.085254  0  4.019836  0
C  C65  1  0.80560550  0.69173864  0.67434408  1  0.043476  0  -0.071513  -0.101437  0  3.94616  0
C  C66  1  0.12799821  0.65969477  0.70044367  1  0.571567  0  0.083545  0.251598  0  4.084461  0
C  C67  1  0.13663903  0.71158597  0.75712965  1  -0.020914  0  -0.031369  -0.059776  0  3.905392  0
C  C68  1  0.34567705  0.36094909  0.33791437  1  -0.020059  0  -0.017129  -0.067672  0  3.964467  0
C  C69  1  0.45311964  0.14978321  0.15893803  1  0.022803  0  -0.03945  -0.195021  0  4.008711  0
C  C70  1  0.63210104  0.21643342  0.25466768  1  -0.117657  0  -0.028286  0.038897  0  3.967661  0
C  C71  1  0.62609944  0.16489528  0.19943869  1  0.059353  0  -0.090959  -0.126229  0  4.029541  0
C  C72  1  0.28860034  0.18826360  0.17432053  1  0.594641  0  0.106163  0.292381  0  3.995628  0
C  C73  1  0.31094469  0.24985896  0.22596258  1  0.036809  0  -0.011623  -0.053819  0  3.907867  0
C  C74  1  0.48020542  0.26127669  0.26900678  1  0.00276  0  -0.00829  0.055045  0  4.008555  0
C  C75  1  0.49009246  0.31663176  0.32407019  1  0.028976  0  -0.083912  -0.126099  0  3.961987  0
C  C76  1  0.18981333  0.35395480  0.29309502  1  -0.023212  0  -0.022741  0.024426  0  3.945508  0
C  C77  1  0.17566014  0.29994495  0.23764779  1  -0.03949  0  -0.017606  0.030677  0  3.915099  0
C  C78  1  0.22776243  0.09324363  0.85803981  1  0.610657  0  0.088469  0.249046  0  4.044905  0
C  C79  1  0.22401267  0.13271296  0.82419735  1  0.500346  0  0.053173  0.103438  0  4.080643  0
C  C80  1  0.39999175  0.16746050  0.81935519  1  -0.002796  0  -0.019853  -0.012364  0  4.074461  0
C  C81  1  0.58111494  0.16200820  0.84764091  1  0.05384  0  -0.121253  -0.272085  0  4.005965  0
C  C82  1  0.58528483  0.12469193  0.88249605  1  0.451374  0  0.078933  0.311572  0  4.089083  0
C  C83  1  0.40753665  0.09165687  0.89071218  1  0.021818  0  -0.048346  -0.305483  0  3.967944  0
C  C84  1  0.53078651  0.19411421  0.73493150  1  0.021981  0  -0.09588  -0.181369  0  3.964425  0
C  C85  1  0.53342617  0.23062090  0.69899892  1  -0.193431  0  -0.018417  0.05086  0  3.96679  0
C  C86  1  0.40794349  0.28173976  0.70850068  1  0.010825  0  -0.01557  0.020355  0  4.01781  0
C  C87  1  0.27442588  0.29273152  0.75493064  1  0.017127  0  -0.08152  -0.100418  0  3.973075  0
C  C88  1  0.26751972  0.25588204  0.79043548  1  -0.134902  0  -0.093714  -0.157174  0  4.005213  0
C  C89  1  0.39828857  0.20643125  0.78142103  1  -0.014856  0  -0.005627  0.094498  0  4.012834  0
C  C90  1  0.22784963  0.32615762  0.64144286  1  -0.039391  0  -0.090098  -0.100449  0  4.003106  0
C  C91  1  0.22182028  0.36399237  0.60704356  1  -0.020453  0  -0.091937  -0.111988  0  3.989852  0
C  C92  1  0.39872746  0.39816964  0.60206211  1  0.04045  0  -0.015951  -0.029876  0  4.015353  0
C  C93  1  0.57742885  0.39657623  0.63347941  1  0.025707  0  -0.089556  -0.19568  0  3.919016  0
C  C94  1  0.58074469  0.36032011  0.66960605  1  0.463077  0  0.077669  0.263057  0  4.079501  0
C  C95  1  0.40681950  0.32236240  0.67210851  1  0.020906  0  -0.02813  -0.063805  0  4.0285  0
C  C96  1  0.40841286  0.06150739  0.93580243  1  1.522701  0  0.2606  0.669602  0  4.06311  0
C  C97  1  0.44518661  0.09274501  0.10070359  1  1.525586  0  0.262891  0.650147  0  4.08803  0
C  C98  1  0.91217009  0.94026290  0.06693337  1  1.559507  0  0.269277  0.658846  0  4.07705  0
C  C99  1  0.87521845  0.91079871  0.90342780  1  1.588922  0  0.272726  0.670691  0  4.061306  0
Br  Br100  1  0.35172607  0.71912049  0.81413956  1  -0.030691  0  0.047528  -0.019153  0  1.472032  0
Br  Br101  1  0.49072494  0.90747298  0.80789404  1  -0.046546  0  0.041314  -0.034849  0  1.463106  0
Br  Br102  1  0.01037715  0.41993133  0.30641907  1  -0.002989  0  0.052155  -0.014601  0  1.599248  0
Br  Br103  1  0.84964836  0.22741363  0.31273770  1  -0.075461  0  0.024876  -0.062258  0  1.437461  0
Br  Br104  1  0.98574564  0.29809777  0.17586968  1  0.005875  0  0.040589  -0.023466  0  1.552288  0
Br  Br105  1  0.70391358  0.20490299  0.63275459  1  -0.053029  0  0.03111  -0.066691  0  1.401128  0
Br  Br106  1  0.31343184  0.96246087  0.16198752  1  -0.040496  0  0.07959  -0.006929  0  1.552676  0
Br  Br107  1  0.91942539  0.67412112  0.10045114  1  -0.058843  0  0.005096  -0.06399  0  1.387504  0
O  O108  1  0.56721625  0.45396296  0.54930753  1  -1.260272  0  -0.235732  -0.597331  0  2.352991  0
O  O109  1  0.20258624  0.43166116  0.42619982  1  -1.269595  0  -0.237192  -0.608422  0  2.414532  0
O  O110  1  0.07150092  0.55262140  0.45660317  1  -1.257933  0  -0.245582  -0.622529  0  2.363089  0
O  O111  1  0.22744938  0.44766856  0.54514348  1  -1.262066  0  -0.238431  -0.598335  0  2.342715  0
O  O112  1  0.09122503  0.56540268  0.57848050  1  -1.261367  0  -0.234248  -0.602797  0  2.360253  0
O  O113  1  0.54014950  0.43205207  0.42638069  1  -1.256929  0  -0.233576  -0.591397  0  2.333104  0
O  O114  1  0.40420533  0.53979559  0.51085990  1  -1.438557  0  -0.450269  -0.996266  0  2.197138  0
O  O115  1  0.75612895  0.57256871  0.57442064  1  -1.253465  0  -0.224568  -0.569646  0  2.345283  0
O  O116  1  0.73203764  0.55167757  0.45704685  1  -1.260508  0  -0.237412  -0.589088  0  2.373242  0
O  O117  1  0.88671707  0.46049126  0.49016139  1  -1.407037  0  -0.446106  -0.985344  0  2.172202  0
O  O118  1  0.26958476  0.07038143  0.07334741  1  -1.257263  0  -0.235482  -0.603282  0  2.43294  0
O  O119  1  0.58253904  0.05373926  0.95749268  1  -1.249873  0  -0.247408  -0.622086  0  2.364795  0
O  O120  1  0.71651216  0.93234350  0.92874057  1  -1.266377  0  -0.238304  -0.612376  0  2.408726  0
O  O121  1  0.60648649  0.06926925  0.07949899  1  -1.26145  0  -0.227621  -0.563094  0  2.33121  0
O  O122  1  0.74268521  0.95321386  0.05040470  1  -1.252603  0  -0.233725  -0.588362  0  2.351674  0
O  O123  1  0.24404411  0.04758333  0.95402148  1  -1.254083  0  -0.233103  -0.585139  0  2.405604  0
O  O124  1  0.40433027  0.96076983  0.99133523  1  -1.421985  0  -0.446433  -0.979601  0  2.171545  0
O  O125  1  0.07980746  0.95367251  0.04947277  1  -1.262594  0  -0.236738  -0.594626  0  2.400594  0
O  O126  1  0.05348550  0.92907517  0.92756757  1  -1.261508  0  -0.234425  -0.597468  0  2.350892  0
O  O127  1  0.92237506  0.04090056  0.01149254  1  -1.424718  0  -0.448571  -0.981472  0  2.163672  0
O  O128  1  0.24683631  0.59029387  0.37786123  1  -1.152932  0  -0.355069  -0.465806  0  2.33109  0
O  O129  1  0.27827973  0.61997507  0.68612584  1  -1.150084  0  -0.349744  -0.431064  0  2.31196  0
O  O130  1  0.11134422  0.16866640  0.14247531  1  -1.147572  0  -0.333917  -0.420655  0  2.388373  0
O  O131  1  0.06391826  0.05421753  0.85671532  1  -1.157535  0  -0.352955  -0.425295  0  2.334228  0
O  O132  1  0.04339446  0.13175126  0.79402440  1  -1.130693  0  -0.361407  -0.4408  0  2.332739  0
O  O133  1  0.76524709  0.12138330  0.90943102  1  -1.180752  0  -0.349897  -0.452475  0  2.325754  0
O  O134  1  0.22030473  0.86780542  0.22079151  1  -1.129324  0  -0.350625  -0.415943  0  2.325902  0
O  O135  1  0.75621543  0.36448057  0.70273173  1  -1.118762  0  -0.355939  -0.439324  0  2.297276  0
O  O136  1  0.84644971  0.80447493  0.37293427  1  -1.103496  0  -0.353308  -0.443965  0  2.260521  0
O  O137  1  0.89194129  0.61313226  0.19221839  1  -1.132556  0  -0.351849  -0.426425  0  2.306771  0
O  O138  1  0.52871064  0.68638634  0.34482389  1  -1.138505  0  -0.356788  -0.441932  0  2.293144  0
