# generated using pymatgen
data_AgH5C4(NO)2
_symmetry_space_group_name_H-M   'P 1'
_cell_length_a   3.93995802
_cell_length_b   11.26915622
_cell_length_c   27.80700000
_cell_angle_alpha   90.00000000
_cell_angle_beta   90.00000000
_cell_angle_gamma   90.00000000
_symmetry_Int_Tables_number   1
_chemical_formula_structural   AgH5C4(NO)2
_chemical_formula_sum   'Ag8 H40 C32 N16 O16'
_cell_volume   1234.63086603
_cell_formula_units_Z   8
loop_
 _symmetry_equiv_pos_site_id
 _symmetry_equiv_pos_as_xyz
  1  'x, y, z'
loop_
 _atom_site_type_symbol
 _atom_site_label
 _atom_site_symmetry_multiplicity
 _atom_site_fract_x
 _atom_site_fract_y
 _atom_site_fract_z
 _atom_site_occupancy
 _atom_site_hle17_bader_spin_density
 _atom_site_hle17_ddec_charge
 _atom_site_hle17_ddec_spin_density
 _atom_site_hle17_ddec_sum_bond_order
 _atom_site_hle17_magmom
 _atom_site_hse06_10hf_bader_spin_density
 _atom_site_hse06_10hf_ddec_charge
 _atom_site_hse06_10hf_ddec_spin_density
 _atom_site_hse06_10hf_ddec_sum_bond_order
 _atom_site_hse06_10hf_magmom
 _atom_site_hse06_bader_spin_density
 _atom_site_hse06_ddec_charge
 _atom_site_hse06_ddec_spin_density
 _atom_site_hse06_ddec_sum_bond_order
 _atom_site_hse06_magmom
 _atom_site_pbe_bader_charge
 _atom_site_pbe_bader_spin_density
 _atom_site_pbe_cm5_charge
 _atom_site_pbe_ddec_charge
 _atom_site_pbe_ddec_spin_density
 _atom_site_pbe_ddec_sum_bond_order
 _atom_site_pbe_magmom
Ag  Ag0  1  0.03746233  0.39135139  0.02633114  1  0  0.579433  0  1.426925  0  0  0.453413  0  1.887302  0  0  0.48507  0  1.83364  0  0.580562  0  0.439106  0.431253  0  1.924463  0
Ag  Ag1  1  0.46254554  0.60864805  0.52632646  1  0  0.579317  0  1.426998  0  0  0.453315  0  1.887358  0  0  0.484978  0  1.833698  0  0.580195  0  0.439078  0.431156  0  1.924516  0
Ag  Ag2  1  0.96256102  0.89135600  0.47366886  1  0  0.579351  0  1.426939  0  0  0.453345  0  1.887319  0  0  0.485006  0  1.833653  0  0.580596  0  0.439073  0.431185  0  1.924483  0
Ag  Ag3  1  0.53744989  0.10864079  0.97367282  1  0  0.579376  0  1.426896  0  0  0.453362  0  1.887247  0  0  0.485027  0  1.83358  0  0.580303  0  0.439104  0.431199  0  1.924412  0
Ag  Ag4  1  0.96256863  0.60864628  0.97367569  1  0  0.579233  0  1.427014  0  0  0.45327  0  1.887279  0  0  0.484914  0  1.833667  0  0.58017  0  0.439041  0.431108  0  1.924443  0
Ag  Ag5  1  0.53743466  0.39135672  0.47366922  1  0  0.579408  0  1.426862  0  0  0.453403  0  1.887206  0  0  0.485065  0  1.833545  0  0.580585  0  0.439105  0.431242  0  1.92437  0
Ag  Ag6  1  0.03744964  0.10864789  0.52632503  1  0  0.579358  0  1.426872  0  0  0.453375  0  1.887167  0  0  0.485009  0  1.833559  0  0.580214  0  0.439099  0.431211  0  1.924336  0
Ag  Ag7  1  0.46254300  0.89135156  0.02633078  1  0  0.579347  0  1.426965  0  0  0.453315  0  1.887381  0  0  0.484985  0  1.833703  0  0.580506  0  0.439085  0.431153  0  1.924542  0
H  H8  1  0.57336144  0.54760799  0.21606538  1  0  0.084023  0  0.948941  0  0  0.105198  0  1.016383  0  0  0.105549  0  1.016248  0  0.061157  0  0.099409  0.104832  0  1.016575  0
H  H9  1  0.92661901  0.45238525  0.71605495  1  0  0.084092  0  0.948951  0  0  0.105261  0  1.01644  0  0  0.105612  0  1.016311  0  0.061284  0  0.099483  0.104896  0  1.016631  0
H  H10  1  0.42668221  0.04761492  0.28393354  1  0  0.08411  0  0.948716  0  0  0.105242  0  1.016252  0  0  0.105597  0  1.016113  0  0.06131  0  0.099458  0.104872  0  1.016447  0
H  H11  1  0.07334342  0.95238719  0.78393822  1  0  0.084004  0  0.949006  0  0  0.10518  0  1.016451  0  0  0.105533  0  1.016317  0  0.061529  0  0.099457  0.104809  0  1.016646  0
H  H12  1  0.42662637  0.45239057  0.78394541  1  0  0.084045  0  0.949058  0  0  0.105222  0  1.016512  0  0  0.105572  0  1.016385  0  0.061246  0  0.099457  0.104855  0  1.016703  0
H  H13  1  0.07337642  0.54763106  0.28393858  1  0  0.084069  0  0.948991  0  0  0.105217  0  1.016498  0  0  0.105572  0  1.016361  0  0.061144  0  0.099451  0.104849  0  1.016692  0
H  H14  1  0.57331322  0.95239517  0.71606142  1  0  0.084163  0  0.948881  0  0  0.105293  0  1.016397  0  0  0.105651  0  1.016256  0  0.061291  0  0.099485  0.104918  0  1.016598  0
H  H15  1  0.92669769  0.04760072  0.21606214  1  0  0.084128  0  0.948943  0  0  0.105253  0  1.016455  0  0  0.10561  0  1.016315  0  0.061167  0  0.09944  0.104882  0  1.016654  0
H  H16  1  0.88499674  0.64852060  0.19337721  1  0  0.112941  0  0.919459  0  0  0.140099  0  0.969746  0  0  0.140945  0  0.969473  0  0.078247  0  0.11513  0.139383  0  0.97005  0
H  H17  1  0.61498625  0.35147352  0.69336678  1  0  0.112834  0  0.919481  0  0  0.140115  0  0.969657  0  0  0.140961  0  0.969388  0  0.078651  0  0.115127  0.139399  0  0.969962  0
H  H18  1  0.11504437  0.14852931  0.30662064  1  0  0.11292  0  0.919698  0  0  0.14014  0  0.969887  0  0  0.140983  0  0.969621  0  0.078835  0  0.115158  0.139424  0  0.970191  0
H  H19  1  0.38498887  0.85147457  0.80662387  1  0  0.112814  0  0.919512  0  0  0.139996  0  0.969785  0  0  0.140841  0  0.969516  0  0.078682  0  0.115128  0.13928  0  0.970089  0
H  H20  1  0.11498853  0.35147796  0.80663430  1  0  0.112924  0  0.919519  0  0  0.140137  0  0.969741  0  0  0.140984  0  0.969474  0  0.078687  0  0.115149  0.139422  0  0.970045  0
H  H21  1  0.38499903  0.64854279  0.30662891  1  0  0.112851  0  0.919608  0  0  0.140126  0  0.969777  0  0  0.140976  0  0.969499  0  0.078718  0  0.115161  0.13941  0  0.970083  0
H  H22  1  0.88496374  0.85147635  0.69337649  1  0  0.112911  0  0.919519  0  0  0.140097  0  0.969777  0  0  0.140942  0  0.969509  0  0.078901  0  0.115161  0.139381  0  0.97008  0
H  H23  1  0.61505985  0.14851777  0.19337757  1  0  0.112946  0  0.919604  0  0  0.140139  0  0.969837  0  0  0.140982  0  0.969573  0  0.07896  0  0.115159  0.139424  0  0.970141  0
H  H24  1  0.95474621  0.49128967  0.19032186  1  0  0.100081  0  0.948103  0  0  0.116987  0  1.016924  0  0  0.118173  0  1.015812  0  0.070756  0  0.103292  0.116023  0  1.017817  0
H  H25  1  0.54523931  0.50870534  0.69031287  1  0  0.099991  0  0.94802  0  0  0.116986  0  1.01678  0  0  0.118172  0  1.01567  0  0.070957  0  0.103301  0.116022  0  1.017673  0
H  H26  1  0.04527967  0.99129693  0.30967490  1  0  0.099952  0  0.947986  0  0  0.116913  0  1.016788  0  0  0.1181  0  1.015676  0  0.07099  0  0.103246  0.115948  0  1.017681  0
H  H27  1  0.45471551  0.00870606  0.80967922  1  0  0.100016  0  0.948018  0  0  0.11693  0  1.016858  0  0  0.118119  0  1.015744  0  0.070974  0  0.103253  0.115961  0  1.017754  0
H  H28  1  0.04524160  0.50871067  0.80969001  1  0  0.100072  0  0.94801  0  0  0.117031  0  1.016797  0  0  0.11822  0  1.015684  0  0.070922  0  0.103354  0.116063  0  1.017688  0
H  H29  1  0.45475358  0.49131096  0.30967994  1  0  0.100044  0  0.94782  0  0  0.116959  0  1.016681  0  0  0.118149  0  1.015563  0  0.071102  0  0.103235  0.115991  0  1.01758  0
H  H30  1  0.95469545  0.00871050  0.69031934  1  0  0.10002  0  0.948049  0  0  0.117007  0  1.016805  0  0  0.118196  0  1.015691  0  0.071012  0  0.103286  0.116036  0  1.017701  0
H  H31  1  0.54530023  0.99128628  0.19032150  1  0  0.099994  0  0.94807  0  0  0.116957  0  1.016834  0  0  0.118141  0  1.015728  0  0.071107  0  0.103286  0.115993  0  1.017725  0
H  H32  1  0.83381599  0.69863261  0.09776675  1  0  0.114797  0  0.939683  0  0  0.129694  0  1.00209  0  0  0.130903  0  1.001857  0  0.130491  0  0.114554  0.128727  0  1.002455  0
H  H33  1  0.66616700  0.30136595  0.59775560  1  0  0.114812  0  0.93968  0  0  0.129696  0  1.002034  0  0  0.130914  0  1.001808  0  0.130249  0  0.114563  0.128703  0  1.002386  0
H  H34  1  0.16618451  0.19862978  0.40223397  1  0  0.114859  0  0.939766  0  0  0.129766  0  1.002121  0  0  0.130984  0  1.00189  0  0.130484  0  0.114559  0.128792  0  1.002483  0
H  H35  1  0.33381828  0.80136435  0.90223793  1  0  0.114857  0  0.939649  0  0  0.129773  0  1.001986  0  0  0.130986  0  1.00175  0  0.130387  0  0.114571  0.128784  0  1.002352  0
H  H36  1  0.16618197  0.30136684  0.90224512  1  0  0.114846  0  0.939651  0  0  0.129689  0  1.002053  0  0  0.130906  0  1.001829  0  0.130373  0  0.114546  0.1287  0  1.002408  0
H  H37  1  0.33381574  0.69864059  0.40223936  1  0  0.114788  0  0.939701  0  0  0.129719  0  1.002021  0  0  0.130946  0  1.001767  0  0.130311  0  0.11455  0.128696  0  1.002419  0
H  H38  1  0.83381853  0.80136523  0.59776136  1  0  0.114843  0  0.939571  0  0  0.129744  0  1.001919  0  0  0.130958  0  1.001687  0  0.13044  0  0.114576  0.128758  0  1.002284  0
H  H39  1  0.66618476  0.19863067  0.09776279  1  0  0.114847  0  0.939621  0  0  0.129702  0  1.002039  0  0  0.130916  0  1.001803  0  0.130439  0  0.11456  0.128722  0  1.002401  0
H  H40  1  0.44164684  0.73853710  0.12460927  1  0  0.132267  0  0.950642  0  0  0.145008  0  1.01133  0  0  0.148291  0  1.008543  0  0.164302  0  0.118375  0.142574  0  1.013487  0
H  H41  1  0.05834580  0.26145879  0.62459848  1  0  0.132178  0  0.950661  0  0  0.144864  0  1.011322  0  0  0.148159  0  1.008531  0  0.164485  0  0.118323  0.142407  0  1.013459  0
H  H42  1  0.55835620  0.23853694  0.37539504  1  0  0.132509  0  0.95057  0  0  0.145197  0  1.011271  0  0  0.148493  0  1.008477  0  0.164298  0  0.118443  0.142751  0  1.013433  0
H  H43  1  0.94162679  0.76145541  0.87539720  1  0  0.132494  0  0.950516  0  0  0.145083  0  1.011316  0  0  0.148382  0  1.008519  0  0.16426  0  0.118394  0.142627  0  1.013468  0
H  H44  1  0.55835367  0.26145879  0.87539972  1  0  0.132149  0  0.950716  0  0  0.144859  0  1.011359  0  0  0.148155  0  1.008567  0  0.16442  0  0.118289  0.142404  0  1.013502  0
H  H45  1  0.94163948  0.73854598  0.37539576  1  0  0.132342  0  0.950648  0  0  0.144987  0  1.011382  0  0  0.148284  0  1.008592  0  0.164234  0  0.118335  0.142529  0  1.013537  0
H  H46  1  0.44161892  0.76145719  0.62460136  1  0  0.132418  0  0.950438  0  0  0.144968  0  1.011297  0  0  0.148265  0  1.008503  0  0.16432  0  0.118368  0.142518  0  1.013446  0
H  H47  1  0.05835341  0.23854049  0.12460424  1  0  0.132241  0  0.950669  0  0  0.144919  0  1.01138  0  0  0.14821  0  1.008596  0  0.164314  0  0.118331  0.142475  0  1.01353  0
C  C48  1  0.76378225  0.56210686  0.18769518  1  0  -0.14763  0  3.679716  0  0  -0.251206  0  3.931873  0  0  -0.246545  0  3.941112  0  0.26421  0  -0.129903  -0.254065  0  3.925482  0
C  C49  1  0.73619820  0.43788283  0.68768691  1  0  -0.147445  0  3.679588  0  0  -0.251215  0  3.931817  0  0  -0.246546  0  3.94103  0  0.263738  0  -0.129937  -0.254074  0  3.925433  0
C  C50  1  0.23624110  0.06212089  0.31230338  1  0  -0.147482  0  3.679496  0  0  -0.251131  0  3.93165  0  0  -0.246468  0  3.940879  0  0.263174  0  -0.129909  -0.253986  0  3.925259  0
C  C51  1  0.26376931  0.93788477  0.81230769  1  0  -0.147386  0  3.679575  0  0  -0.251014  0  3.931756  0  0  -0.246348  0  3.94098  0  0.263324  0  -0.129855  -0.25387  0  3.925372  0
C  C52  1  0.23621318  0.43788904  0.81231309  1  0  -0.147567  0  3.679689  0  0  -0.251244  0  3.931898  0  0  -0.246574  0  3.941109  0  0.263859  0  -0.12996  -0.254098  0  3.92551  0
C  C53  1  0.26379215  0.56212727  0.31230733  1  0  -0.147437  0  3.679259  0  0  -0.251131  0  3.931493  0  0  -0.246465  0  3.94071  0  0.263444  0  -0.129814  -0.253989  0  3.925111  0
C  C54  1  0.76374672  0.93789098  0.68769375  1  0  -0.147427  0  3.67942  0  0  -0.251101  0  3.931588  0  0  -0.246432  0  3.9408  0  0.263369  0  -0.129836  -0.253955  0  3.925209  0
C  C55  1  0.73625911  0.06210935  0.18769626  1  0  -0.147533  0  3.679743  0  0  -0.251174  0  3.931915  0  0  -0.2465  0  3.94112  0  0.263206  0  -0.129893  -0.25403  0  3.925527  0
C  C56  1  0.44424077  0.46677230  0.12126083  1  0  0.641016  0  3.9035  0  0  0.574817  0  4.210866  0  0  0.60898  0  4.209119  0  1.748713  0  0.30911  0.551721  0  4.211396  0
C  C57  1  0.05574933  0.53322182  0.62125256  1  0  0.640766  0  3.903288  0  0  0.574567  0  4.210692  0  0  0.608724  0  4.208949  0  1.748239  0  0.309059  0.551471  0  4.211227  0
C  C58  1  0.55576227  0.96677602  0.37873737  1  0  0.640818  0  3.903654  0  0  0.574521  0  4.211152  0  0  0.608681  0  4.209412  0  1.748733  0  0.308884  0.551425  0  4.21168  0
C  C59  1  0.94426133  0.03319237  0.87874600  1  0  0.640591  0  3.903006  0  0  0.574312  0  4.210504  0  0  0.60847  0  4.20877  0  1.747743  0  0.308871  0.551217  0  4.211028  0
C  C60  1  0.55576227  0.53322005  0.87874960  1  0  0.640859  0  3.902999  0  0  0.574518  0  4.210608  0  0  0.608679  0  4.208859  0  1.747899  0  0.309025  0.551422  0  4.211139  0
C  C61  1  0.94426641  0.46679537  0.37874276  1  0  0.640599  0  3.903354  0  0  0.574481  0  4.210633  0  0  0.60864  0  4.208892  0  1.748241  0  0.308959  0.551384  0  4.211167  0
C  C62  1  0.44424585  0.03320213  0.62125400  1  0  0.64068  0  3.902746  0  0  0.574367  0  4.210297  0  0  0.608525  0  4.208556  0  1.747125  0  0.308861  0.551274  0  4.210825  0
C  C63  1  0.05578486  0.96676715  0.12125832  1  0  0.640967  0  3.903421  0  0  0.574622  0  4.210995  0  0  0.608782  0  4.209251  0  1.747831  0  0.309036  0.551526  0  4.211526  0
C  C64  1  0.39235190  0.61263504  0.06707628  1  0  0.55278  0  3.878907  0  0  0.50579  0  4.163348  0  0  0.536864  0  4.165737  0  1.324964  0  0.220688  0.484745  0  4.160997  0
C  C65  1  0.10764582  0.38736796  0.56706513  1  0  0.552483  0  3.879338  0  0  0.505591  0  4.163585  0  0  0.536671  0  4.165971  0  1.324222  0  0.220436  0.484511  0  4.161227  0
C  C66  1  0.60764861  0.11263133  0.43292444  1  0  0.552933  0  3.878984  0  0  0.505939  0  4.163387  0  0  0.53702  0  4.165776  0  1.324257  0  0.220743  0.484883  0  4.161034  0
C  C67  1  0.89234453  0.88735836  0.93292984  1  0  0.552677  0  3.878824  0  0  0.505678  0  4.163233  0  0  0.536756  0  4.165622  0  1.324968  0  0.220601  0.484612  0  4.160872  0
C  C68  1  0.60765622  0.38736086  0.93293379  1  0  0.552497  0  3.879262  0  0  0.505525  0  4.163612  0  0  0.536606  0  4.165992  0  1.324278  0  0.220408  0.484451  0  4.161254  0
C  C69  1  0.89234707  0.61263682  0.43292948  1  0  0.552738  0  3.879002  0  0  0.505688  0  4.163488  0  0  0.536768  0  4.165884  0  1.325001  0  0.220561  0.484624  0  4.161114  0
C  C70  1  0.39235443  0.88736901  0.56707052  1  0  0.552367  0  3.879413  0  0  0.505403  0  4.163771  0  0  0.536483  0  4.166157  0  1.324937  0  0.220455  0.484342  0  4.16141  0
C  C71  1  0.10765851  0.11263310  0.06707196  1  0  0.552627  0  3.879413  0  0  0.505585  0  4.163869  0  0  0.536664  0  4.166261  0  1.324936  0  0.220539  0.484525  0  4.161512  0
C  C72  1  0.58530065  0.66377463  0.10885928  1  0  -0.16414  0  3.675565  0  0  -0.219891  0  3.91688  0  0  -0.22184  0  3.926852  0  0.241194  0  -0.062616  -0.218525  0  3.910284  0
C  C73  1  0.91468234  0.33621949  0.60884921  1  0  -0.164079  0  3.675061  0  0  -0.219604  0  3.915984  0  0  -0.221593  0  3.925998  0  0.241219  0  -0.062358  -0.218119  0  3.909259  0
C  C74  1  0.41470493  0.16378067  0.39114288  1  0  -0.164561  0  3.675529  0  0  -0.220201  0  3.91669  0  0  -0.222197  0  3.926714  0  0.241228  0  -0.06271  -0.2188  0  3.910061  0
C  C75  1  0.08529279  0.83621434  0.89114719  1  0  -0.164577  0  3.675123  0  0  -0.220118  0  3.916191  0  0  -0.222102  0  3.926203  0  0.241188  0  -0.062551  -0.218661  0  3.909494  0
C  C76  1  0.41470746  0.33622127  0.89115151  1  0  -0.164175  0  3.675146  0  0  -0.219665  0  3.916079  0  0  -0.221664  0  3.926112  0  0.241204  0  -0.062333  -0.218191  0  3.909358  0
C  C77  1  0.08530294  0.66378617  0.39114683  1  0  -0.164379  0  3.67535  0  0  -0.219878  0  3.916304  0  0  -0.22188  0  3.926322  0  0.240995  0  -0.062444  -0.218385  0  3.909601  0
C  C78  1  0.58528035  0.83622232  0.60885281  1  0  -0.164324  0  3.675159  0  0  -0.219804  0  3.916244  0  0  -0.221796  0  3.926269  0  0.241474  0  -0.062474  -0.21836  0  3.909554  0
C  C79  1  0.91470772  0.16377535  0.10885460  1  0  -0.16423  0  3.675603  0  0  -0.219763  0  3.916679  0  0  -0.221753  0  3.926711  0  0.24148  0  -0.062506  -0.218338  0  3.910008  0
N  N80  1  0.60821206  0.56208822  0.14052649  1  0  -0.191116  0  3.44292  0  0  -0.097978  0  3.680615  0  0  -0.119818  0  3.70456  0  -1.184315  0  -0.289743  -0.083166  0  3.663951  0
N  N81  1  0.89176331  0.43790768  0.64051821  1  0  -0.191072  0  3.442678  0  0  -0.098055  0  3.680493  0  0  -0.119875  0  3.704444  0  -1.184666  0  -0.289918  -0.083284  0  3.663808  0
N  N82  1  0.39180113  0.06208628  0.35947208  1  0  -0.191065  0  3.442791  0  0  -0.097902  0  3.680493  0  0  -0.119728  0  3.704448  0  -1.184203  0  -0.28962  -0.083102  0  3.663823  0
N  N83  1  0.10819912  0.93790962  0.85947711  1  0  -0.190652  0  3.443028  0  0  -0.097493  0  3.680637  0  0  -0.119314  0  3.704595  0  -1.184299  0  -0.289656  -0.082709  0  3.663949  0
N  N84  1  0.39178336  0.43790856  0.85948322  1  0  -0.191029  0  3.44249  0  0  -0.097978  0  3.680333  0  0  -0.119797  0  3.704282  0  -1.184716  0  -0.289931  -0.083201  0  3.663651  0
N  N85  1  0.10822450  0.56210153  0.35947819  1  0  -0.190741  0  3.442684  0  0  -0.097719  0  3.680422  0  0  -0.119538  0  3.704377  0  -1.184044  0  -0.289731  -0.082937  0  3.663733  0
N  N86  1  0.60817907  0.93791051  0.64052073  1  0  -0.191031  0  3.443116  0  0  -0.097879  0  3.680811  0  0  -0.119699  0  3.704766  0  -1.184438  0  -0.28977  -0.083094  0  3.664133  0
N  N87  1  0.89180392  0.06209338  0.14052325  1  0  -0.191238  0  3.442847  0  0  -0.098111  0  3.680617  0  0  -0.119934  0  3.704572  0  -1.184211  0  -0.289874  -0.083315  0  3.663939  0
N  N88  1  0.31278760  0.49936481  0.07537095  1  0  -0.638272  0  3.232526  0  0  -0.556789  0  3.552472  0  0  -0.589984  0  3.556295  0  -1.158057  0  -0.402324  -0.534147  0  3.548967  0
N  N89  1  0.18719996  0.50063109  0.57536340  1  0  -0.638099  0  3.232383  0  0  -0.556626  0  3.552217  0  0  -0.589843  0  3.556095  0  -1.157212  0  -0.402233  -0.533985  0  3.548721  0
N  N90  1  0.68721291  0.99936231  0.42462689  1  0  -0.638201  0  3.23237  0  0  -0.556668  0  3.552303  0  0  -0.58987  0  3.556141  0  -1.157451  0  -0.402291  -0.534027  0  3.5488  0
N  N91  1  0.81278531  0.00062826  0.92463408  1  0  -0.637996  0  3.232104  0  0  -0.556467  0  3.55201  0  0  -0.589679  0  3.555891  0  -1.157308  0  -0.402251  -0.53383  0  3.548509  0
N  N92  1  0.68721798  0.50063021  0.92463696  1  0  -0.637997  0  3.232015  0  0  -0.556493  0  3.551949  0  0  -0.589705  0  3.555819  0  -1.157052  0  -0.402194  -0.533853  0  3.548448  0
N  N93  1  0.81279800  0.49937279  0.42463085  1  0  -0.638062  0  3.232393  0  0  -0.556562  0  3.552283  0  0  -0.589774  0  3.556157  0  -1.157604  0  -0.402263  -0.533925  0  3.548786  0
N  N94  1  0.31279014  0.00063181  0.57536448  1  0  -0.637928  0  3.232285  0  0  -0.556386  0  3.552165  0  0  -0.589591  0  3.556034  0  -1.157076  0  -0.402193  -0.533753  0  3.548664  0
N  N95  1  0.18722281  0.99937030  0.07536915  1  0  -0.638032  0  3.232413  0  0  -0.556465  0  3.552336  0  0  -0.589685  0  3.556222  0  -1.157372  0  -0.402218  -0.533822  0  3.548825  0
O  O96  1  0.41077087  0.36851295  0.14062286  1  0  -0.582502  0  1.920667  0  0  -0.542068  0  2.146215  0  0  -0.562339  0  2.136601  0  -1.183742  0  -0.312962  -0.527949  0  2.15242  0
O  O97  1  0.08922684  0.63148117  0.64061819  1  0  -0.582369  0  1.920498  0  0  -0.54198  0  2.146109  0  0  -0.562252  0  2.136504  0  -1.183577  0  -0.312947  -0.527857  0  2.152314  0
O  O98  1  0.58923217  0.86851401  0.35937210  1  0  -0.58246  0  1.920429  0  0  -0.542051  0  2.146086  0  0  -0.562326  0  2.136482  0  -1.183827  0  -0.312917  -0.527924  0  2.152287  0
O  O99  1  0.91077874  0.13149077  0.85937426  1  0  -0.582658  0  1.919126  0  0  -0.542288  0  2.144787  0  0  -0.562571  0  2.135183  0  -1.183234  0  -0.313055  -0.528156  0  2.150981  0
O  O100  1  0.58923978  0.63148827  0.85938433  1  0  -0.582537  0  1.920234  0  0  -0.542047  0  2.145869  0  0  -0.562323  0  2.136259  0  -1.183504  0  -0.312939  -0.527922  0  2.15207  0
O  O101  1  0.91079143  0.36851561  0.35937318  1  0  -0.582668  0  1.919782  0  0  -0.542345  0  2.145375  0  0  -0.562624  0  2.135767  0  -1.183398  0  -0.313106  -0.528216  0  2.151575  0
O  O102  1  0.41075565  0.13149698  0.64062322  1  0  -0.582539  0  1.919147  0  0  -0.542158  0  2.144848  0  0  -0.562436  0  2.135235  0  -1.183183  0  -0.312976  -0.528016  0  2.151023  0
O  O103  1  0.08925476  0.86851755  0.14062179  1  0  -0.582455  0  1.920849  0  0  -0.541985  0  2.146486  0  0  -0.562254  0  2.136879  0  -1.183757  0  -0.312884  -0.527867  0  2.152689  0
O  O104  1  0.31553636  0.67364227  0.03006797  1  0  -0.593617  0  2.190581  0  0  -0.503017  0  2.483085  0  0  -0.534198  0  2.468847  0  -1.138336  0  -0.322092  -0.481348  0  2.492341  0
O  O105  1  0.18443851  0.32636073  0.53005790  1  0  -0.593462  0  2.190986  0  0  -0.502932  0  2.483451  0  0  -0.534095  0  2.469193  0  -1.137868  0  -0.321977  -0.481264  0  2.492723  0
O  O106  1  0.68446161  0.17363678  0.46993131  1  0  -0.593679  0  2.190685  0  0  -0.503089  0  2.483171  0  0  -0.534249  0  2.468911  0  -1.13826  0  -0.322117  -0.481421  0  2.49243  0
O  O107  1  0.81552646  0.82636001  0.96993886  1  0  -0.59354  0  2.190702  0  0  -0.502963  0  2.48323  0  0  -0.53412  0  2.468968  0  -1.138659  0  -0.322033  -0.481298  0  2.492494  0
O  O108  1  0.68447430  0.32635895  0.96993886  1  0  -0.593443  0  2.191006  0  0  -0.502862  0  2.483476  0  0  -0.534023  0  2.469219  0  -1.137915  0  -0.321954  -0.481196  0  2.49274  0
O  O109  1  0.81552899  0.67364050  0.46993635  1  0  -0.593553  0  2.190789  0  0  -0.502958  0  2.483313  0  0  -0.534128  0  2.469069  0  -1.138621  0  -0.322023  -0.481292  0  2.492573  0
O  O110  1  0.31555412  0.82636622  0.53005934  1  0  -0.593455  0  2.190654  0  0  -0.502928  0  2.483187  0  0  -0.534088  0  2.468928  0  -1.138551  0  -0.322018  -0.481261  0  2.492448  0
O  O111  1  0.18445882  0.17363767  0.03006473  1  0  -0.593575  0  2.19093  0  0  -0.502971  0  2.483447  0  0  -0.534134  0  2.469194  0  -1.138494  0  -0.322019  -0.481303  0  2.492706  0
