# generated using pymatgen
data_Ag2H7C12(NO2)3
_symmetry_space_group_name_H-M   'P 1'
_cell_length_a   7.71476516
_cell_length_b   7.98112710
_cell_length_c   12.49959869
_cell_angle_alpha   75.63880290
_cell_angle_beta   83.75112912
_cell_angle_gamma   62.57526132
_symmetry_Int_Tables_number   1
_chemical_formula_structural   Ag2H7C12(NO2)3
_chemical_formula_sum   'Ag4 H14 C24 N6 O12'
_cell_volume   661.77782077
_cell_formula_units_Z   2
loop_
 _symmetry_equiv_pos_site_id
 _symmetry_equiv_pos_as_xyz
  1  'x, y, z'
loop_
 _atom_site_type_symbol
 _atom_site_label
 _atom_site_symmetry_multiplicity
 _atom_site_fract_x
 _atom_site_fract_y
 _atom_site_fract_z
 _atom_site_occupancy
 _atom_site_hle17_bader_spin_density
 _atom_site_hle17_ddec_charge
 _atom_site_hle17_ddec_spin_density
 _atom_site_hle17_ddec_sum_bond_order
 _atom_site_hle17_magmom
 _atom_site_hse06_10hf_bader_spin_density
 _atom_site_hse06_10hf_ddec_charge
 _atom_site_hse06_10hf_ddec_spin_density
 _atom_site_hse06_10hf_ddec_sum_bond_order
 _atom_site_hse06_10hf_magmom
 _atom_site_hse06_bader_spin_density
 _atom_site_hse06_ddec_charge
 _atom_site_hse06_ddec_spin_density
 _atom_site_hse06_ddec_sum_bond_order
 _atom_site_hse06_magmom
 _atom_site_pbe_bader_spin_density
 _atom_site_pbe_cm5_charge
 _atom_site_pbe_ddec_charge
 _atom_site_pbe_ddec_spin_density
 _atom_site_pbe_ddec_sum_bond_order
 _atom_site_pbe_magmom
Ag  Ag0  1  0.23127463  0.82005634  0.50337699  1  0  0.565864  0  1.480775  0  0  0.444585  0  1.954848  0  0  0.474476  0  1.896872  0  0  0.457838  0.424109  0  1.995069  0
Ag  Ag1  1  0.76871979  0.17994186  0.49662539  1  0  0.565866  0  1.480814  0  0  0.44456  0  1.954946  0  0  0.474449  0  1.896972  0  0  0.457842  0.424083  0  1.995163  0
Ag  Ag2  1  0.69410392  0.52231544  0.57927333  1  0  0.540003  0  1.408915  0  0  0.393316  0  1.882922  0  0  0.430978  0  1.822741  0  0  0.424148  0.368263  0  1.924152  0
Ag  Ag3  1  0.30588919  0.47768563  0.42072388  1  0  0.540008  0  1.408898  0  0  0.393329  0  1.88295  0  0  0.430991  0  1.822768  0  0  0.424149  0.368277  0  1.924183  0
H  H4  1  0.66282295  0.91024527  0.69756667  1  0  0.121347  0  0.949346  0  0  0.129087  0  1.013591  0  0  0.133175  0  1.010252  0  0  0.109298  0.126024  0  1.016157  0
H  H5  1  0.33717410  0.08976446  0.30243207  1  0  0.121355  0  0.949293  0  0  0.129088  0  1.013544  0  0  0.133175  0  1.010206  0  0  0.109298  0.126024  0  1.016111  0
H  H6  1  0.71744407  0.68654244  0.88468800  1  0  0.105633  0  0.944229  0  0  0.115099  0  1.002649  0  0  0.118366  0  1.001176  0  0  0.106276  0.112815  0  1.003845  0
H  H7  1  0.28255299  0.31347018  0.11531028  1  0  0.105666  0  0.944208  0  0  0.115119  0  1.002638  0  0  0.118385  0  1.001167  0  0  0.106284  0.112834  0  1.003834  0
H  H8  1  0.43279430  0.65477391  0.98693285  1  0  0.103931  0  0.974851  0  0  0.110442  0  1.044581  0  0  0.113593  0  1.042133  0  0  0.10856  0.108202  0  1.046376  0
H  H9  1  0.56720733  0.34523436  0.01306741  1  0  0.103989  0  0.974843  0  0  0.110472  0  1.04458  0  0  0.113624  0  1.042133  0  0  0.108571  0.108232  0  1.046374  0
H  H10  1  0.97803791  0.66941525  0.66320957  1  0  0.103267  0  0.934706  0  0  0.112047  0  1.000633  0  0  0.115126  0  0.997015  0  0  0.125533  0.109642  0  1.003514  0
H  H11  1  0.02196173  0.33057714  0.33679260  1  0  0.103224  0  0.934709  0  0  0.112068  0  1.00056  0  0  0.115148  0  0.996941  0  0  0.125536  0.109664  0  1.003442  0
H  H12  1  0.35752270  0.20515369  0.91939792  1  0  0.108555  0  0.930187  0  0  0.120113  0  0.986669  0  0  0.122535  0  0.986168  0  0  0.115027  0.118374  0  0.987168  0
H  H13  1  0.64248412  0.79483719  0.08060159  1  0  0.108499  0  0.930222  0  0  0.120115  0  0.986642  0  0  0.122491  0  0.986196  0  0  0.115012  0.118376  0  0.987142  0
H  H14  1  0.63066479  0.27288989  0.81715520  1  0  0.103266  0  0.936563  0  0  0.111747  0  0.997323  0  0  0.114012  0  0.995916  0  0  0.1248  0.110116  0  0.998464  0
H  H15  1  0.36933943  0.72710680  0.18284435  1  0  0.103311  0  0.936532  0  0  0.111783  0  0.997288  0  0  0.114049  0  0.995881  0  0  0.124802  0.110153  0  0.998428  0
H  H16  1  0.01851213  0.41069108  0.83885111  1  0  0.119357  0  0.959374  0  0  0.12595  0  1.022675  0  0  0.129308  0  1.019825  0  0  0.113723  0.123593  0  1.024768  0
H  H17  1  0.98149469  0.58929691  0.16114887  1  0  0.119349  0  0.959414  0  0  0.125964  0  1.022698  0  0  0.129326  0  1.01984  0  0  0.11374  0.123605  0  1.024791  0
C  C18  1  0.19312715  0.98363205  0.75381652  1  0  -0.067711  0  3.660808  0  0  -0.063865  0  3.905196  0  0  -0.063151  0  3.920064  0  0  0.006111  -0.064521  0  3.89498  0
C  C19  1  0.80687315  0.01637043  0.24618157  1  0  -0.067626  0  3.660767  0  0  -0.063792  0  3.905154  0  0  -0.06308  0  3.920025  0  0  0.006126  -0.064448  0  3.894939  0
C  C20  1  0.32711798  0.13124415  0.58306205  1  0  0.654481  0  3.904822  0  0  0.601964  0  4.186855  0  0  0.63741  0  4.182569  0  0  0.19946  0.577844  0  4.188878  0
C  C21  1  0.67287776  0.86875980  0.41693612  1  0  0.654551  0  3.904492  0  0  0.601968  0  4.186639  0  0  0.637412  0  4.182352  0  0  0.199422  0.577849  0  4.188667  0
C  C22  1  0.35519634  0.99677495  0.69558148  1  0  -0.062896  0  3.693241  0  0  -0.044934  0  3.929296  0  0  -0.051448  0  3.947999  0  0  -0.004511  -0.041299  0  3.917733  0
C  C23  1  0.64480332  0.00323189  0.30441755  1  0  -0.062939  0  3.693297  0  0  -0.04495  0  3.929373  0  0  -0.051461  0  3.948071  0  0  -0.004512  -0.041316  0  3.917814  0
C  C24  1  0.99482568  0.10944716  0.69961437  1  0  0.649406  0  3.968905  0  0  0.5893  0  4.269313  0  0  0.625536  0  4.262278  0  0  0.201245  0.564602  0  4.272867  0
C  C25  1  0.00517136  0.89055390  0.30038497  1  0  0.649383  0  3.968775  0  0  0.589301  0  4.269156  0  0  0.625537  0  4.262121  0  0  0.20124  0.564604  0  4.272712  0
C  C26  1  0.54202597  0.89122735  0.74302475  1  0  -0.037654  0  3.663775  0  0  -0.069241  0  3.923475  0  0  -0.065658  0  3.938238  0  0  -0.070171  -0.071807  0  3.914301  0
C  C27  1  0.45797434  0.10877804  0.25697527  1  0  -0.037633  0  3.663838  0  0  -0.069227  0  3.923571  0  0  -0.065645  0  3.938335  0  0  -0.070124  -0.071793  0  3.914399  0
C  C28  1  0.57224733  0.76704505  0.84749200  1  0  -0.063747  0  3.743757  0  0  -0.078397  0  4.003986  0  0  -0.082138  0  4.023268  0  0  -0.087499  -0.076062  0  3.991203  0
C  C29  1  0.42775103  0.23296179  0.15250712  1  0  -0.063804  0  3.743708  0  0  -0.078453  0  4.003919  0  0  -0.082195  0  4.023207  0  0  -0.08757  -0.076118  0  3.991136  0
C  C30  1  0.41544269  0.74817031  0.90501706  1  0  -0.098785  0  3.745435  0  0  -0.130206  0  4.014049  0  0  -0.128196  0  4.031851  0  0  -0.084296  -0.131146  0  4.001219  0
C  C31  1  0.58455698  0.25183942  0.09498231  1  0  -0.098799  0  3.74534  0  0  -0.130152  0  4.013897  0  0  -0.12814  0  4.031692  0  0  -0.084229  -0.131092  0  4.001066  0
C  C32  1  0.22850549  0.85680697  0.85801336  1  0  0.057979  0  3.692485  0  0  0.032178  0  3.949601  0  0  0.032936  0  3.974975  0  0  0.074332  0.034733  0  3.93454  0
C  C33  1  0.77149418  0.14319986  0.14198567  1  0  0.057887  0  3.692474  0  0  0.032085  0  3.949585  0  0  0.032841  0  3.97496  0  0  0.07427  0.034641  0  3.934528  0
C  C34  1  0.11798029  0.57616283  0.70539808  1  0  0.11395  0  3.626772  0  0  0.080019  0  3.882008  0  0  0.084946  0  3.897697  0  0  0.060559  0.076473  0  3.871918  0
C  C35  1  0.88202197  0.42383244  0.29460503  1  0  0.113977  0  3.626579  0  0  0.080018  0  3.881826  0  0  0.08495  0  3.897504  0  0  0.060553  0.076489  0  3.871693  0
C  C36  1  0.32833711  0.32057426  0.84538340  1  0  -0.047766  0  3.666693  0  0  -0.06625  0  3.921609  0  0  -0.068964  0  3.941687  0  0  -0.057149  -0.064334  0  3.90792  0
C  C37  1  0.67166711  0.67941955  0.15461822  1  0  -0.047721  0  3.666699  0  0  -0.066262  0  3.921655  0  0  -0.06894  0  3.94174  0  0  -0.05713  -0.064347  0  3.907969  0
C  C38  1  0.47874999  0.35754865  0.79023925  1  0  0.103863  0  3.653308  0  0  0.072809  0  3.910108  0  0  0.076134  0  3.928612  0  0  0.059417  0.070606  0  3.897652  0
C  C39  1  0.52125097  0.64244952  0.20976189  1  0  0.103753  0  3.653352  0  0  0.072741  0  3.910129  0  0  0.076067  0  3.928617  0  0  0.059399  0.070536  0  3.897679  0
C  C40  1  0.14180317  0.43377705  0.80150590  1  0  -0.032061  0  3.655788  0  0  -0.054589  0  3.912453  0  0  -0.054882  0  3.929001  0  0  -0.057116  -0.054467  0  3.901391  0
C  C41  1  0.85820104  0.56621386  0.19849538  1  0  -0.032009  0  3.655628  0  0  -0.054596  0  3.912362  0  0  -0.054884  0  3.928895  0  0  -0.057127  -0.05447  0  3.901305  0
N  N42  1  0.06818537  0.83393780  0.92236161  1  0  0.472657  0  3.948555  0  0  0.532644  0  4.205635  0  0  0.537778  0  4.239346  0  0  0.052732  0.517545  0  4.20136  0
N  N43  1  0.93181820  0.16606034  0.07763775  1  0  0.472625  0  3.948588  0  0  0.532587  0  4.205692  0  0  0.537724  0  4.239395  0  0  0.052666  0.517488  0  4.201419  0
N  N44  1  0.26767095  0.60671172  0.65728051  1  0  -0.172086  0  3.344352  0  0  -0.098089  0  3.624532  0  0  -0.11162  0  3.643042  0  0  -0.222839  -0.089126  0  3.612356  0
N  N45  1  0.73232674  0.39328791  0.34272142  1  0  -0.172114  0  3.344314  0  0  -0.098117  0  3.624521  0  0  -0.111649  0  3.643036  0  0  -0.222808  -0.08915  0  3.612349  0
N  N46  1  0.44789302  0.49797344  0.69942057  1  0  -0.168188  0  3.231056  0  0  -0.109972  0  3.513391  0  0  -0.121092  0  3.531174  0  0  -0.211523  -0.102734  0  3.501677  0
N  N47  1  0.55210467  0.50202619  0.30058056  1  0  -0.168137  0  3.231057  0  0  -0.109957  0  3.513414  0  0  -0.121076  0  3.531196  0  0  -0.211541  -0.102722  0  3.501703  0
O  O48  1  0.89930478  0.96720037  0.90379103  1  0  -0.350873  0  1.771333  0  0  -0.343693  0  1.96814  0  0  -0.349064  0  1.972676  0  0  -0.12968  -0.336825  0  1.971148  0
O  O49  1  0.10069552  0.03279635  0.09620959  1  0  -0.350842  0  1.771409  0  0  -0.343631  0  1.968191  0  0  -0.349004  0  1.972728  0  0  -0.129649  -0.336761  0  1.971195  0
O  O50  1  0.10878835  0.68036482  0.99310608  1  0  -0.365247  0  1.773468  0  0  -0.355716  0  1.970431  0  0  -0.361611  0  1.975207  0  0  -0.131863  -0.348359  0  1.973249  0
O  O51  1  0.89121848  0.31963185  0.00689330  1  0  -0.365238  0  1.773412  0  0  -0.355711  0  1.970392  0  0  -0.361606  0  1.975167  0  0  -0.131834  -0.348353  0  1.973211  0
O  O52  1  0.39577641  0.25242505  0.57434943  1  0  -0.623481  0  2.150458  0  0  -0.538505  0  2.427187  0  0  -0.574287  0  2.419703  0  0  -0.325549  -0.513369  0  2.431374  0
O  O53  1  0.60422128  0.74757745  0.42564883  1  0  -0.623504  0  2.150349  0  0  -0.538478  0  2.427081  0  0  -0.574261  0  2.419595  0  0  -0.325521  -0.513343  0  2.43127  0
O  O54  1  0.24011169  0.12010289  0.50714856  1  0  -0.622863  0  2.014071  0  0  -0.556872  0  2.276213  0  0  -0.586046  0  2.263804  0  0  -0.32039  -0.536276  0  2.284109  0
O  O55  1  0.75988470  0.87990251  0.49284933  1  0  -0.622863  0  2.013931  0  0  -0.55685  0  2.276108  0  0  -0.586023  0  2.2637  0  0  -0.320365  -0.536251  0  2.284003  0
O  O56  1  0.91649254  0.02829300  0.66027861  1  0  -0.613308  0  2.108121  0  0  -0.542891  0  2.383799  0  0  -0.575476  0  2.373491  0  0  -0.323989  -0.519482  0  2.389716  0
O  O57  1  0.08350710  0.97170227  0.33972228  1  0  -0.613323  0  2.108073  0  0  -0.542932  0  2.383777  0  0  -0.575517  0  2.373467  0  0  -0.324025  -0.519526  0  2.389694  0
O  O58  1  0.93422833  0.28846830  0.69305888  1  0  -0.596904  0  2.092587  0  0  -0.518087  0  2.360817  0  0  -0.552681  0  2.351242  0  0  -0.312499  -0.493152  0  2.366043  0
O  O59  1  0.06576673  0.71152842  0.30693810  1  0  -0.596881  0  2.092456  0  0  -0.518087  0  2.360702  0  0  -0.552684  0  2.351127  0  0  -0.312461  -0.49315  0  2.365927  0
