# generated using pymatgen
data_LaH11C14N2O11
_symmetry_space_group_name_H-M   'P 1'
_cell_length_a   6.97681739
_cell_length_b   11.22526117
_cell_length_c   11.19228648
_cell_angle_alpha   79.65742135
_cell_angle_beta   75.64370322
_cell_angle_gamma   75.23043046
_symmetry_Int_Tables_number   1
_chemical_formula_structural   LaH11C14N2O11
_chemical_formula_sum   'La2 H22 C28 N4 O22'
_cell_volume   814.75702858
_cell_formula_units_Z   2
loop_
 _symmetry_equiv_pos_site_id
 _symmetry_equiv_pos_as_xyz
  1  'x, y, z'
loop_
 _atom_site_type_symbol
 _atom_site_label
 _atom_site_symmetry_multiplicity
 _atom_site_fract_x
 _atom_site_fract_y
 _atom_site_fract_z
 _atom_site_occupancy
 _atom_site_hle17_bader_spin_density
 _atom_site_hle17_ddec_charge
 _atom_site_hle17_ddec_spin_density
 _atom_site_hle17_ddec_sum_bond_order
 _atom_site_hle17_magmom
 _atom_site_hse06_10hf_bader_spin_density
 _atom_site_hse06_10hf_ddec_charge
 _atom_site_hse06_10hf_ddec_spin_density
 _atom_site_hse06_10hf_ddec_sum_bond_order
 _atom_site_hse06_10hf_magmom
 _atom_site_hse06_bader_spin_density
 _atom_site_hse06_ddec_charge
 _atom_site_hse06_ddec_spin_density
 _atom_site_hse06_ddec_sum_bond_order
 _atom_site_hse06_magmom
 _atom_site_pbe_bader_spin_density
 _atom_site_pbe_cm5_charge
 _atom_site_pbe_ddec_charge
 _atom_site_pbe_ddec_spin_density
 _atom_site_pbe_ddec_sum_bond_order
 _atom_site_pbe_magmom
La  La0  1  0.66694851  0.45993759  0.23984136  1  0  2.088307  0  1.767011  0  0  1.946584  0  2.27672  0  0  2.040962  0  2.18358  0  0  1.413088  1.875712  0  2.342044  0
La  La1  1  0.33305743  0.54006279  0.76015667  1  0  2.088417  0  1.766881  0  0  1.946652  0  2.276652  0  0  2.041026  0  2.183519  0  0  1.41314  1.875761  0  2.341997  0
H  H2  1  0.19793638  0.21872086  0.83993530  1  0  0.137641  0  0.932888  0  0  0.142834  0  0.99711  0  0  0.147677  0  0.993489  0  0  0.125513  0.139337  0  0.999784  0
H  H3  1  0.80206391  0.78127866  0.16006290  1  0  0.137599  0  0.93291  0  0  0.142807  0  0.997131  0  0  0.147648  0  0.993514  0  0  0.125517  0.139318  0  0.999806  0
H  H4  1  0.13047464  0.95670943  0.17149680  1  0  0.118535  0  0.940603  0  0  0.128785  0  1.000455  0  0  0.1328  0  0.997742  0  0  0.115995  0.125792  0  1.002771  0
H  H5  1  0.86951614  0.04328284  0.82849973  1  0  0.118521  0  0.940601  0  0  0.12873  0  1.000534  0  0  0.132748  0  0.997814  0  0  0.115978  0.125729  0  1.002847  0
H  H6  1  0.94788148  0.92344123  0.34691551  1  0  0.121183  0  0.943324  0  0  0.130513  0  1.003096  0  0  0.135051  0  0.999641  0  0  0.113965  0.127249  0  1.005768  0
H  H7  1  0.05212371  0.07655266  0.65308646  1  0  0.121141  0  0.943253  0  0  0.130453  0  1.003059  0  0  0.13499  0  0.999602  0  0  0.113945  0.127184  0  1.005727  0
H  H8  1  0.54320775  0.10134463  0.65298229  1  0  0.125207  0  0.982185  0  0  0.131737  0  1.048859  0  0  0.136438  0  1.045033  0  0  0.113447  0.128284  0  1.051703  0
H  H9  1  0.45679304  0.89865769  0.34701266  1  0  0.125246  0  0.98212  0  0  0.131773  0  1.048806  0  0  0.136475  0  1.044975  0  0  0.113455  0.128343  0  1.051634  0
H  H10  1  0.52279855  0.93767021  0.77039306  1  0  0.408596  0  0.891565  0  0  0.372204  0  0.976537  0  0  0.38614  0  0.958281  0  0  0.298984  0.36246  0  0.98651  0
H  H11  1  0.47720782  0.06233760  0.22960004  1  0  0.408696  0  0.891359  0  0  0.372111  0  0.976667  0  0  0.386048  0  0.95841  0  0  0.298943  0.36237  0  0.986638  0
H  H12  1  0.36416236  0.29644101  0.22508150  1  0  0.440439  0  0.849423  0  0  0.407045  0  0.916314  0  0  0.4195  0  0.898005  0  0  0.300381  0.398096  0  0.929432  0
H  H13  1  0.63583979  0.70355754  0.77492014  1  0  0.440392  0  0.849498  0  0  0.406986  0  0.916382  0  0  0.419434  0  0.898086  0  0  0.300354  0.39803  0  0.929511  0
H  H14  1  0.34373681  0.41072527  0.11402836  1  0  0.440546  0  0.852779  0  0  0.410367  0  0.914221  0  0  0.422411  0  0.896796  0  0  0.303953  0.401676  0  0.926771  0
H  H15  1  0.65626524  0.58927793  0.88596982  1  0  0.440655  0  0.852628  0  0  0.410435  0  0.914135  0  0  0.422478  0  0.896712  0  0  0.304007  0.401748  0  0.926678  0
H  H16  1  0.42494934  0.72166313  0.09006897  1  0  0.457864  0  0.824473  0  0  0.430306  0  0.881445  0  0  0.440716  0  0.866199  0  0  0.312228  0.422819  0  0.8924  0
H  H17  1  0.57504200  0.27833651  0.90992887  1  0  0.457976  0  0.824363  0  0  0.430404  0  0.881345  0  0  0.440817  0  0.866097  0  0  0.312276  0.422915  0  0.892301  0
H  H18  1  0.43479036  0.70711840  0.23115283  1  0  0.422705  0  0.867834  0  0  0.395525  0  0.928513  0  0  0.406331  0  0.912574  0  0  0.30651  0.387809  0  0.939864  0
H  H19  1  0.56519658  0.29288127  0.76884838  1  0  0.422766  0  0.867739  0  0  0.395585  0  0.928424  0  0  0.406392  0  0.912485  0  0  0.306562  0.387867  0  0.939775  0
H  H20  1  0.97082745  0.35444617  0.43304705  1  0  0.44735  0  0.846758  0  0  0.416582  0  0.908611  0  0  0.428825  0  0.890729  0  0  0.296761  0.407778  0  0.921454  0
H  H21  1  0.02917230  0.64555518  0.56695450  1  0  0.447429  0  0.84665  0  0  0.416615  0  0.908585  0  0  0.428861  0  0.890705  0  0  0.296755  0.407803  0  0.921436  0
H  H22  1  0.79133566  0.47347700  0.47787178  1  0  0.437246  0  0.854655  0  0  0.409783  0  0.911177  0  0  0.421652  0  0.893862  0  0  0.3068  0.40115  0  0.923754  0
H  H23  1  0.20866710  0.52651970  0.52212920  1  0  0.437232  0  0.854677  0  0  0.409769  0  0.911199  0  0  0.421642  0  0.893878  0  0  0.306781  0.401137  0  0.923776  0
C  C24  1  0.99020948  0.28420558  0.00407700  1  0  0.121717  0  3.720037  0  0  0.12681  0  3.969469  0  0  0.128619  0  3.986451  0  0  0.132889  0.125381  0  3.958072  0
C  C25  1  0.00978994  0.71579671  0.99592354  1  0  0.121602  0  3.719966  0  0  0.126747  0  3.969414  0  0  0.128554  0  3.986397  0  0  0.132888  0.125315  0  3.958024  0
C  C26  1  0.13172921  0.19429567  0.93732724  1  0  -0.09024  0  3.617535  0  0  -0.125921  0  3.865871  0  0  -0.127018  0  3.881394  0  0  -0.055625  -0.124943  0  3.855535  0
C  C27  1  0.86827200  0.80570567  0.06267318  1  0  -0.090078  0  3.617456  0  0  -0.125825  0  3.865808  0  0  -0.126918  0  3.881337  0  0  -0.055607  -0.124854  0  3.855487  0
C  C28  1  0.18458000  0.07524378  0.99958069  1  0  -0.016943  0  3.742478  0  0  0.001185  0  3.983624  0  0  -0.002411  0  4.004371  0  0  0.00223  0.003509  0  3.969701  0
C  C29  1  0.81542064  0.92475940  0.00042129  1  0  -0.017093  0  3.742544  0  0  0.001112  0  3.983616  0  0  -0.002499  0  4.004387  0  0  0.002232  0.003435  0  3.969694  0
C  C30  1  0.09082742  0.05006963  0.12387087  1  0  -0.121712  0  3.647985  0  0  -0.158799  0  3.903108  0  0  -0.161711  0  3.920555  0  0  -0.066366  -0.157177  0  3.891894  0
C  C31  1  0.90916232  0.94992628  0.87613412  1  0  -0.121511  0  3.648264  0  0  -0.158629  0  3.903365  0  0  -0.161535  0  3.920817  0  0  -0.066333  -0.156996  0  3.892134  0
C  C32  1  0.94833351  0.14488181  0.18392854  1  0  0.202858  0  3.732182  0  0  0.20004  0  3.98427  0  0  0.20662  0  4.002246  0  0  0.133855  0.195518  0  3.972157  0
C  C33  1  0.05165731  0.85511965  0.81607353  1  0  0.202719  0  3.732422  0  0  0.199994  0  3.984374  0  0  0.206572  0  4.002352  0  0  0.13388  0.195474  0  3.972254  0
C  C34  1  0.83583195  0.12414183  0.31388246  1  0  0.191444  0  3.744537  0  0  0.188054  0  3.996744  0  0  0.194181  0  4.015472  0  0  0.13214  0.183822  0  3.984105  0
C  C35  1  0.16416745  0.87586047  0.68611719  1  0  0.191295  0  3.744677  0  0  0.187912  0  3.996807  0  0  0.194035  0  4.015539  0  0  0.132002  0.183678  0  3.984161  0
C  C36  1  0.85375918  0.00719757  0.38459287  1  0  -0.123292  0  3.64952  0  0  -0.158357  0  3.903225  0  0  -0.161742  0  3.920854  0  0  -0.06813  -0.15641  0  3.891758  0
C  C37  1  0.14624385  0.99279822  0.61540643  1  0  -0.123157  0  3.649503  0  0  -0.158195  0  3.903149  0  0  -0.161584  0  3.920792  0  0  -0.068064  -0.15624  0  3.891669  0
C  C38  1  0.74759321  0.99520186  0.50804666  1  0  -0.011318  0  3.718148  0  0  0.007837  0  3.961883  0  0  0.004806  0  3.983003  0  0  0.001709  0.009777  0  3.947584  0
C  C39  1  0.25240860  0.00479763  0.49195309  1  0  -0.011308  0  3.71828  0  0  0.00788  0  3.961986  0  0  0.004847  0  3.983105  0  0  0.001767  0.009819  0  3.94769  0
C  C40  1  0.62754564  0.10233553  0.55735109  1  0  -0.116217  0  3.651541  0  0  -0.153087  0  3.901976  0  0  -0.155253  0  3.91876  0  0  -0.071917  -0.151116  0  3.890437  0
C  C41  1  0.37245615  0.89766398  0.44264777  1  0  -0.116287  0  3.651517  0  0  -0.153173  0  3.901972  0  0  -0.155339  0  3.91876  0  0  -0.071953  -0.151223  0  3.890434  0
C  C42  1  0.61023181  0.21466211  0.47939494  1  0  0.11776  0  3.748191  0  0  0.122984  0  3.99693  0  0  0.124701  0  4.014095  0  0  0.126677  0.121504  0  3.985231  0
C  C43  1  0.38976875  0.78534111  0.52060347  1  0  0.117843  0  3.748127  0  0  0.123055  0  3.996902  0  0  0.124764  0  4.014059  0  0  0.126728  0.121573  0  3.985215  0
C  C44  1  0.47468224  0.33306866  0.52456639  1  0  0.657723  0  3.889772  0  0  0.603275  0  4.190671  0  0  0.638967  0  4.182421  0  0  0.235507  0.578901  0  4.195322  0
C  C45  1  0.52531459  0.66693730  0.47544018  1  0  0.657736  0  3.889835  0  0  0.603255  0  4.190773  0  0  0.638973  0  4.182491  0  0  0.235527  0.578882  0  4.195429  0
C  C46  1  0.77149038  0.86611743  0.58113343  1  0  0.639955  0  3.900405  0  0  0.584062  0  4.208903  0  0  0.615828  0  4.203871  0  0  0.21484  0.56274  0  4.21135  0
C  C47  1  0.22851301  0.13387741  0.41886866  1  0  0.640025  0  3.900457  0  0  0.584055  0  4.20903  0  0  0.615822  0  4.20399  0  0  0.214729  0.562735  0  4.211476  0
C  C48  1  0.33933487  0.97321220  0.93668668  1  0  0.655534  0  3.834429  0  0  0.602724  0  4.135704  0  0  0.634702  0  4.128093  0  0  0.233915  0.581144  0  4.140132  0
C  C49  1  0.66065608  0.02679300  0.06330936  1  0  0.655655  0  3.834699  0  0  0.602826  0  4.135942  0  0  0.634809  0  4.128333  0  0  0.233959  0.581246  0  4.140372  0
C  C50  1  0.92505842  0.41478329  0.94212757  1  0  0.653306  0  3.905238  0  0  0.600211  0  4.205151  0  0  0.635672  0  4.197147  0  0  0.235526  0.57586  0  4.209863  0
C  C51  1  0.07495425  0.58522350  0.05786737  1  0  0.653289  0  3.905025  0  0  0.600094  0  4.205103  0  0  0.635554  0  4.197098  0  0  0.235359  0.575744  0  4.209817  0
N  N52  1  0.90358595  0.26096097  0.12454820  1  0  -0.379822  0  3.159927  0  0  -0.344278  0  3.419136  0  0  -0.360592  0  3.437516  0  0  -0.339678  -0.332682  0  3.406301  0
N  N53  1  0.09640507  0.73903961  0.87544863  1  0  -0.37977  0  3.159919  0  0  -0.344262  0  3.419089  0  0  -0.360574  0  3.437467  0  0  -0.339671  -0.332663  0  3.406253  0
N  N54  1  0.70950003  0.22535350  0.36048115  1  0  -0.380499  0  3.208747  0  0  -0.343346  0  3.465944  0  0  -0.360311  0  3.486599  0  0  -0.349535  -0.331209  0  3.451461  0
N  N55  1  0.29050118  0.77464785  0.63951927  1  0  -0.380508  0  3.208791  0  0  -0.34337  0  3.466007  0  0  -0.360333  0  3.486664  0  0  -0.349518  -0.331231  0  3.451523  0
O  O56  1  0.41715079  0.41890820  0.44132847  1  0  -0.664223  0  2.043719  0  0  -0.610343  0  2.279774  0  0  -0.642555  0  2.270868  0  0  -0.347788  -0.587088  0  2.284856  0
O  O57  1  0.58285312  0.58109862  0.55867503  1  0  -0.664285  0  2.043746  0  0  -0.610375  0  2.279795  0  0  -0.642603  0  2.270896  0  0  -0.347799  -0.587118  0  2.284878  0
O  O58  1  0.42999987  0.33960763  0.64034652  1  0  -0.657474  0  2.002511  0  0  -0.601661  0  2.240356  0  0  -0.632603  0  2.229833  0  0  -0.331035  -0.579575  0  2.246824  0
O  O59  1  0.57000402  0.66039920  0.35965609  1  0  -0.6575  0  2.002595  0  0  -0.601631  0  2.240361  0  0  -0.632584  0  2.229827  0  0  -0.331041  -0.579546  0  2.246836  0
O  O60  1  0.67676502  0.85277414  0.69562147  1  0  -0.634472  0  2.034614  0  0  -0.569482  0  2.260139  0  0  -0.596482  0  2.250532  0  0  -0.308531  -0.550682  0  2.265467  0
O  O61  1  0.32322278  0.14722277  0.30437651  1  0  -0.634674  0  2.034643  0  0  -0.569466  0  2.260185  0  0  -0.596482  0  2.250591  0  0  -0.308521  -0.550674  0  2.265524  0
O  O62  1  0.88540474  0.77979652  0.52318238  1  0  -0.578958  0  1.956333  0  0  -0.529084  0  2.172588  0  0  -0.551717  0  2.163888  0  0  -0.296895  -0.513414  0  2.178275  0
O  O63  1  0.11460972  0.22019632  0.47682096  1  0  -0.578916  0  1.956246  0  0  -0.529115  0  2.172605  0  0  -0.551746  0  2.163907  0  0  -0.296843  -0.513446  0  2.178294  0
O  O64  1  0.39368210  0.87010008  0.99381893  1  0  -0.569121  0  1.973056  0  0  -0.524211  0  2.194347  0  0  -0.544545  0  2.186267  0  0  -0.284251  -0.510252  0  2.199618  0
O  O65  1  0.60631743  0.12990137  0.00617191  1  0  -0.569156  0  1.973099  0  0  -0.52425  0  2.194421  0  0  -0.54459  0  2.186347  0  0  -0.284258  -0.510289  0  2.19969  0
O  O66  1  0.40898288  0.00641737  0.81797800  1  0  -0.564737  0  2.153983  0  0  -0.508787  0  2.386443  0  0  -0.533544  0  2.371631  0  0  -0.320931  -0.491516  0  2.394189  0
O  O67  1  0.59101371  0.99358410  0.18201510  1  0  -0.564795  0  2.154164  0  0  -0.508744  0  2.3868  0  0  -0.533486  0  2.371953  0  0  -0.320892  -0.491476  0  2.394552  0
O  O68  1  0.03167183  0.44790410  0.83895288  1  0  -0.65747  0  2.038387  0  0  -0.613339  0  2.294145  0  0  -0.645016  0  2.283737  0  0  -0.368843  -0.59075  0  2.300618  0
O  O69  1  0.96834070  0.55209895  0.16104811  1  0  -0.657514  0  2.038187  0  0  -0.613378  0  2.294014  0  0  -0.645055  0  2.283606  0  0  -0.36877  -0.590785  0  2.300484  0
O  O70  1  0.76562518  0.48347572  0.99974692  1  0  -0.669978  0  2.02743  0  0  -0.61219  0  2.262007  0  0  -0.644783  0  2.254432  0  0  -0.339891  -0.588649  0  2.266411  0
O  O71  1  0.23437850  0.51652279  0.00025627  1  0  -0.669853  0  2.027303  0  0  -0.612027  0  2.261902  0  0  -0.644617  0  2.254326  0  0  -0.339818  -0.588482  0  2.266308  0
O  O72  1  0.42275455  0.36708849  0.17790882  1  0  -0.891039  0  1.845288  0  0  -0.8473  0  2.045415  0  0  -0.873215  0  2.008439  0  0  -0.643151  -0.828103  0  2.07119  0
O  O73  1  0.57724931  0.63290916  0.82208824  1  0  -0.891113  0  1.845225  0  0  -0.847297  0  2.045476  0  0  -0.873209  0  2.008504  0  0  -0.643197  -0.828097  0  2.071256  0
O  O74  1  0.42864560  0.66138050  0.16540481  1  0  -0.862602  0  1.781496  0  0  -0.812562  0  1.946694  0  0  -0.836277  0  1.91442  0  0  -0.623268  -0.795354  0  1.969326  0
O  O75  1  0.57134074  0.33862102  0.83459708  1  0  -0.862776  0  1.781342  0  0  -0.812713  0  1.946583  0  0  -0.836433  0  1.914299  0  0  -0.623387  -0.79551  0  1.969223  0
O  O76  1  0.86438350  0.42599329  0.40751470  1  0  -0.895847  0  1.849563  0  0  -0.846735  0  2.032128  0  0  -0.872846  0  1.99704  0  0  -0.641107  -0.827424  0  2.056744  0
O  O77  1  0.13561000  0.57400445  0.59248580  1  0  -0.895893  0  1.849422  0  0  -0.846768  0  2.032025  0  0  -0.87288  0  1.996908  0  0  -0.641083  -0.827448  0  2.056659  0
