# generated using pymatgen
data_CoH6C12(N2F)2
_symmetry_space_group_name_H-M   'P 1'
_cell_length_a   13.28821455
_cell_length_b   13.28819771
_cell_length_c   14.60945762
_cell_angle_alpha   90.00010610
_cell_angle_beta   89.99997057
_cell_angle_gamma   90.00002389
_symmetry_Int_Tables_number   1
_chemical_formula_structural   CoH6C12(N2F)2
_chemical_formula_sum   'Co4 H24 C48 N16 F8'
_cell_volume   2579.68575628
_cell_formula_units_Z   4
loop_
 _symmetry_equiv_pos_site_id
 _symmetry_equiv_pos_as_xyz
  1  'x, y, z'
loop_
 _atom_site_type_symbol
 _atom_site_label
 _atom_site_symmetry_multiplicity
 _atom_site_fract_x
 _atom_site_fract_y
 _atom_site_fract_z
 _atom_site_occupancy
 _atom_site_pbe_bader_charge
 _atom_site_pbe_bader_spin_density
 _atom_site_pbe_cm5_charge
 _atom_site_pbe_ddec_charge
 _atom_site_pbe_ddec_spin_density
 _atom_site_pbe_ddec_sum_bond_order
 _atom_site_pbe_magmom
Co  Co0  1  0.50758656  0.51103317  0.62159218  1  1.127436  2.507835  0.721844  0.584387  2.743055  2.821052  2.433
Co  Co1  1  0.49241385  0.48896646  0.12158934  1  1.127345  2.507837  0.72189  0.584501  2.743047  2.821036  2.433
Co  Co2  1  0.48896712  0.50758625  0.37159248  1  1.12742  2.507829  0.721904  0.584529  2.743046  2.821107  2.433
Co  Co3  1  0.51103390  0.49241390  0.87158980  1  1.127332  2.507833  0.721911  0.584478  2.743044  2.821088  2.433
H  H4  1  0.45980063  0.27588588  0.35420561  1  0.06064  0.002329  0.119933  0.106703  0.00088  1.001474  0.001
H  H5  1  0.54019889  0.72411273  0.85421016  1  0.060555  0.002329  0.119949  0.106737  0.00088  1.001534  0.001
H  H6  1  0.72411240  0.45980076  0.10420806  1  0.060527  0.002329  0.119944  0.106711  0.00088  1.001505  0.001
H  H7  1  0.27588426  0.54019884  0.60420763  1  0.060664  0.002329  0.119953  0.106736  0.00088  1.001456  0.001
H  H8  1  0.47819372  0.74122136  0.34672112  1  0.103156  0.002141  0.118826  0.11289  0.000859  1.015693  0.001
H  H9  1  0.52180656  0.25877948  0.84672626  1  0.10322  0.002141  0.118839  0.112915  0.000859  1.015733  0.001
H  H10  1  0.25878051  0.47819442  0.09672330  1  0.103188  0.002141  0.11883  0.11289  0.00086  1.015697  0.001
H  H11  1  0.74122292  0.52180817  0.59672262  1  0.103156  0.002141  0.118842  0.112906  0.000859  1.01571  0.001
H  H12  1  0.52451730  0.27898593  0.64479886  1  0.096854  0.002291  0.118941  0.113352  0.000942  1.015064  0.001
H  H13  1  0.47548084  0.72101526  0.14480327  1  0.096783  0.002291  0.118922  0.113342  0.000942  1.014949  0.001
H  H14  1  0.72101334  0.52451864  0.39480069  1  0.096834  0.002291  0.118925  0.113335  0.000942  1.015061  0.001
H  H15  1  0.27898541  0.47548080  0.89480152  1  0.096813  0.00229  0.11893  0.113368  0.000942  1.014979  0.001
H  H16  1  0.53709549  0.91696259  0.63817218  1  0.060233  7.6e-05  0.109992  0.132653  -1.1e-05  0.991846  0.0
H  H17  1  0.46290415  0.08303783  0.13817347  1  0.060215  7.6e-05  0.109985  0.132663  -1.1e-05  0.991862  0.0
H  H18  1  0.08303749  0.53709582  0.38817295  1  0.060217  7.6e-05  0.10999  0.132657  -1.1e-05  0.991862  0.0
H  H19  1  0.91696201  0.46290511  0.88817346  1  0.060209  7.6e-05  0.109981  0.132642  -1.1e-05  0.991873  0.0
H  H20  1  0.45107708  0.10306409  0.35537115  1  0.084385  8.1e-05  0.109385  0.131767  -1e-05  0.99414  0.0
H  H21  1  0.54892320  0.89693601  0.85537187  1  0.084392  8.1e-05  0.109373  0.131779  -1e-05  0.994099  0.0
H  H22  1  0.89693621  0.45107727  0.10537164  1  0.084403  8.1e-05  0.109368  0.131773  -1e-05  0.994108  0.0
H  H23  1  0.10306420  0.54892384  0.60537199  1  0.084388  8.1e-05  0.109371  0.131769  -1e-05  0.99411  0.0
H  H24  1  0.51483663  0.74414758  0.64124402  1  0.061474  0.002248  0.119064  0.104928  0.000852  1.004481  0.001
H  H25  1  0.48516226  0.25585059  0.14124833  1  0.061333  0.002249  0.119063  0.104915  0.000852  1.004391  0.001
H  H26  1  0.25585303  0.51483701  0.39124556  1  0.061394  0.002249  0.119061  0.104884  0.000852  1.004488  0.001
H  H27  1  0.74414873  0.48516317  0.89124482  1  0.061466  0.002248  0.11905  0.104888  0.000852  1.004468  0.001
C  C28  1  0.47532716  0.29324346  0.42541771  1  0.414617  0.021064  0.010919  -0.049461  0.012441  3.963763  0.016
C  C29  1  0.52467384  0.70675453  0.92541950  1  0.414744  0.021061  0.010971  -0.049439  0.01244  3.963893  0.016
C  C30  1  0.70675565  0.47532664  0.17541879  1  0.41475  0.02106  0.01096  -0.049415  0.012439  3.963827  0.016
C  C31  1  0.29324247  0.52467311  0.67541833  1  0.414619  0.021068  0.010909  -0.049479  0.012443  3.963645  0.016
C  C32  1  0.48743572  0.72491900  0.41886204  1  0.422023  0.017452  0.01072  -0.048103  0.010494  3.960217  0.014
C  C33  1  0.51256302  0.27508199  0.91886311  1  0.422001  0.017451  0.010702  -0.048198  0.010493  3.960268  0.014
C  C34  1  0.27508065  0.48743729  0.16886288  1  0.421993  0.01745  0.010701  -0.048108  0.010493  3.960306  0.014
C  C35  1  0.72491973  0.51256395  0.66886151  1  0.422016  0.017453  0.010672  -0.048212  0.010495  3.960273  0.014
C  C36  1  0.49207956  0.22838674  0.50008983  1  -0.025633  0.016551  -0.032567  -0.014746  0.00827  4.072378  0.01
C  C37  1  0.50792092  0.77161265  0.00008883  1  -0.025633  0.01655  -0.032598  -0.014751  0.00827  4.072392  0.01
C  C38  1  0.77161235  0.49207994  0.25008892  1  -0.025655  0.016552  -0.032583  -0.014738  0.008271  4.072505  0.01
C  C39  1  0.22838799  0.50791996  0.75009188  1  -0.025789  0.016549  -0.032539  -0.014697  0.008269  4.07238  0.01
C  C40  1  0.50898551  0.29500458  0.57352313  1  0.466702  0.020541  0.012885  -0.047056  0.012356  3.954708  0.016
C  C41  1  0.49101417  0.70499646  0.07352408  1  0.46672  0.020543  0.012924  -0.047037  0.012357  3.954556  0.016
C  C42  1  0.70499390  0.50898673  0.32352288  1  0.466749  0.020539  0.01292  -0.047027  0.012355  3.954703  0.016
C  C43  1  0.29500640  0.49101331  0.82352373  1  0.466876  0.020543  0.012857  -0.047157  0.012358  3.954526  0.016
C  C44  1  0.49628566  0.79155490  0.49342886  1  0.011924  0.015278  -0.033793  -0.018046  0.00769  4.07728  0.01
C  C45  1  0.50371454  0.20844473  0.99342845  1  0.011947  0.015279  -0.033803  -0.018022  0.007691  4.077249  0.01
C  C46  1  0.20844565  0.49628580  0.24342830  1  0.011869  0.015278  -0.033767  -0.018012  0.007691  4.07721  0.01
C  C47  1  0.79155545  0.50371558  0.74342825  1  0.011937  0.015278  -0.033777  -0.017984  0.00769  4.077164  0.01
C  C48  1  0.51713497  0.95565023  0.57503504  1  0.086475  0.001496  -0.101932  -0.24172  0.000798  4.006799  0.001
C  C49  1  0.48286471  0.04434931  0.07503556  1  0.086842  0.001496  -0.101939  -0.241771  0.000798  4.006775  0.001
C  C50  1  0.04434984  0.51713669  0.32503508  1  0.086502  0.001497  -0.101965  -0.24177  0.000798  4.006698  0.001
C  C51  1  0.95565045  0.48286487  0.82503629  1  0.086803  0.001496  -0.101928  -0.241707  0.000798  4.00683  0.001
C  C52  1  0.49515536  0.90111228  0.49491019  1  0.117709  0.002862  -0.016442  0.000216  0.001572  4.072968  0.002
C  C53  1  0.50484484  0.09888661  0.99490959  1  0.117128  0.002862  -0.016423  0.000263  0.001572  4.072921  0.002
C  C54  1  0.09888917  0.49515546  0.24491024  1  0.117724  0.002862  -0.016475  0.000201  0.001572  4.072817  0.002
C  C55  1  0.90111418  0.50484518  0.74491083  1  0.117133  0.002862  -0.016451  0.000205  0.001572  4.072944  0.002
C  C56  1  0.47179560  0.96035348  0.41817707  1  0.36242  0.002089  0.090006  0.229732  0.001088  4.060656  0.001
C  C57  1  0.52820465  0.03964525  0.91817705  1  0.362661  0.002089  0.089973  0.22964  0.001088  4.060748  0.001
C  C58  1  0.03964646  0.47179479  0.16817843  1  0.362417  0.00209  0.090024  0.229723  0.001088  4.060619  0.001
C  C59  1  0.96035467  0.52820569  0.66817698  1  0.362683  0.002089  0.089967  0.229591  0.001088  4.060764  0.001
C  C60  1  0.47026774  0.06435538  0.41867873  1  0.051485  0.001843  -0.103154  -0.245284  0.000975  4.012992  0.001
C  C61  1  0.52973250  0.93564411  0.91867953  1  0.051458  0.001843  -0.103163  -0.245327  0.000975  4.013113  0.001
C  C62  1  0.93564343  0.47026881  0.16868063  1  0.051061  0.001844  -0.103141  -0.245309  0.000975  4.012962  0.001
C  C63  1  0.06435620  0.52973318  0.66867960  1  0.051476  0.001843  -0.103147  -0.245265  0.000974  4.013067  0.001
C  C64  1  0.49231809  0.11889710  0.49874266  1  0.137343  0.002528  -0.016528  -0.00105  0.001397  4.078563  0.001
C  C65  1  0.50768210  0.88110255  0.99874201  1  0.137336  0.002529  -0.016501  -0.001012  0.001397  4.078573  0.001
C  C66  1  0.88110035  0.49231927  0.24874250  1  0.137744  0.002529  -0.016529  -0.001045  0.001397  4.078682  0.001
C  C67  1  0.11889698  0.50768288  0.74874346  1  0.137365  0.002529  -0.016495  -0.000992  0.001397  4.078569  0.001
C  C68  1  0.51505550  0.05965589  0.57561131  1  0.354022  0.002397  0.089824  0.227606  0.001251  4.06141  0.002
C  C69  1  0.48494418  0.94034290  0.07561197  1  0.354043  0.002397  0.089843  0.227647  0.001251  4.061232  0.002
C  C70  1  0.94034305  0.51505683  0.32561121  1  0.354051  0.002397  0.089846  0.227623  0.001251  4.061222  0.002
C  C71  1  0.05965574  0.48494472  0.82561284  1  0.354025  0.002396  0.089832  0.227582  0.00125  4.061283  0.002
C  C72  1  0.50701468  0.72670796  0.56900519  1  0.413903  0.018004  0.009944  -0.050982  0.010704  3.973076  0.014
C  C73  1  0.49298500  0.27329307  0.06900610  1  0.414074  0.018003  0.009969  -0.050937  0.010704  3.97291  0.014
C  C74  1  0.27329407  0.50701346  0.31900399  1  0.414085  0.018001  0.009951  -0.050927  0.010703  3.973135  0.014
C  C75  1  0.72670623  0.49298507  0.81900532  1  0.413937  0.018005  0.009982  -0.050889  0.010704  3.97299  0.014
N  N76  1  0.48214298  0.38995111  0.45236061  1  -0.773139  0.090513  -0.283465  -0.182366  0.046342  3.664001  0.058
N  N77  1  0.51785950  0.61004769  0.95236087  1  -0.773194  0.090511  -0.283517  -0.182381  0.046342  3.664066  0.058
N  N78  1  0.61004889  0.48214247  0.20236027  1  -0.773146  0.090513  -0.283495  -0.182395  0.046342  3.663803  0.058
N  N79  1  0.38995147  0.51785733  0.70236181  1  -0.773119  0.090513  -0.283439  -0.182357  0.046341  3.664117  0.058
N  N80  1  0.49265987  0.62885860  0.44829426  1  -0.777318  0.089211  -0.2842  -0.186755  0.045646  3.658331  0.057
N  N81  1  0.50733734  0.37114170  0.94829412  1  -0.777324  0.089209  -0.284192  -0.186665  0.045645  3.658091  0.057
N  N82  1  0.37114095  0.49266002  0.19829311  1  -0.777308  0.08921  -0.284228  -0.186812  0.045647  3.658228  0.057
N  N83  1  0.62885941  0.50733827  0.69829520  1  -0.777299  0.089211  -0.284178  -0.186636  0.045644  3.658221  0.057
N  N84  1  0.50482325  0.62995968  0.54153865  1  -0.797794  0.088671  -0.283487  -0.184375  0.045396  3.660131  0.057
N  N85  1  0.49517494  0.37004055  0.04153904  1  -0.797788  0.088669  -0.283521  -0.184438  0.045398  3.660105  0.057
N  N86  1  0.37004071  0.50482278  0.29153957  1  -0.797865  0.088671  -0.283496  -0.184388  0.045396  3.660066  0.057
N  N87  1  0.62995885  0.49517569  0.79153753  1  -0.797764  0.088666  -0.283526  -0.184479  0.045398  3.660216  0.057
N  N88  1  0.50296893  0.39096113  0.54418058  1  -0.792854  0.091581  -0.284679  -0.181805  0.046811  3.663484  0.058
N  N89  1  0.49703378  0.60903910  0.04418068  1  -0.792796  0.091583  -0.28469  -0.181863  0.046813  3.663544  0.058
N  N90  1  0.60903820  0.50296931  0.29418163  1  -0.792897  0.091581  -0.284705  -0.181859  0.046814  3.663425  0.058
N  N91  1  0.39096512  0.49703293  0.79417971  1  -0.792887  0.091582  -0.284719  -0.181799  0.046812  3.663471  0.058
F  F92  1  0.53745805  0.10663149  0.65622898  1  -0.633224  0.000498  -0.100217  -0.14492  0.00011  1.397189  0.0
F  F93  1  0.46254159  0.89336746  0.15623026  1  -0.633263  0.000497  -0.100222  -0.144944  0.00011  1.397093  0.0
F  F94  1  0.89336908  0.53745874  0.40622956  1  -0.633242  0.000497  -0.100212  -0.144917  0.00011  1.397125  0.0
F  F95  1  0.10663192  0.46254147  0.90623045  1  -0.633261  0.000497  -0.100231  -0.144932  0.00011  1.3971  0.0
F  F96  1  0.44831315  0.91354419  0.33773394  1  -0.632836  0.000425  -0.101833  -0.147625  9.8e-05  1.397978  0.0
F  F97  1  0.55168789  0.08645513  0.83773604  1  -0.632803  0.000425  -0.101831  -0.147583  9.8e-05  1.397962  0.0
F  F98  1  0.08645487  0.44831222  0.08773599  1  -0.632794  0.000425  -0.101846  -0.147625  9.8e-05  1.397987  0.0
F  F99  1  0.91354405  0.55168885  0.58773596  1  -0.632812  0.000425  -0.101799  -0.147537  9.8e-05  1.397969  0.0
