# generated using pymatgen
data_CdH18C16N6O5
_symmetry_space_group_name_H-M   'P 1'
_cell_length_a   10.48346918
_cell_length_b   10.48435714
_cell_length_c   11.07569228
_cell_angle_alpha   80.75253948
_cell_angle_beta   63.99628254
_cell_angle_gamma   69.24788461
_symmetry_Int_Tables_number   1
_chemical_formula_structural   CdH18C16N6O5
_chemical_formula_sum   'Cd2 H36 C32 N12 O10'
_cell_volume   1023.11318451
_cell_formula_units_Z   2
loop_
 _symmetry_equiv_pos_site_id
 _symmetry_equiv_pos_as_xyz
  1  'x, y, z'
loop_
 _atom_site_type_symbol
 _atom_site_label
 _atom_site_symmetry_multiplicity
 _atom_site_fract_x
 _atom_site_fract_y
 _atom_site_fract_z
 _atom_site_occupancy
 _atom_site_hle17_bader_spin_density
 _atom_site_hle17_ddec_charge
 _atom_site_hle17_ddec_spin_density
 _atom_site_hle17_ddec_sum_bond_order
 _atom_site_hle17_magmom
 _atom_site_hse06_10hf_bader_spin_density
 _atom_site_hse06_10hf_ddec_charge
 _atom_site_hse06_10hf_ddec_spin_density
 _atom_site_hse06_10hf_ddec_sum_bond_order
 _atom_site_hse06_10hf_magmom
 _atom_site_hse06_bader_spin_density
 _atom_site_hse06_ddec_charge
 _atom_site_hse06_ddec_spin_density
 _atom_site_hse06_ddec_sum_bond_order
 _atom_site_hse06_magmom
 _atom_site_pbe_bader_spin_density
 _atom_site_pbe_cm5_charge
 _atom_site_pbe_ddec_charge
 _atom_site_pbe_ddec_spin_density
 _atom_site_pbe_ddec_sum_bond_order
 _atom_site_pbe_magmom
Cd  Cd0  1  0.43896262  0.41438154  0.30743828  1  0  1.122861  0  1.702055  0  0  0.932464  0  2.154538  0  0  0.989869  0  2.101781  0  0  0.761327  0.888559  0  2.192629  0
Cd  Cd1  1  0.56104574  0.58561681  0.69255882  1  0  1.122829  0  1.702092  0  0  0.932438  0  2.154569  0  0  0.98984  0  2.101818  0  0  0.761307  0.888531  0  2.192659  0
H  H2  1  0.29231883  0.60088812  0.54570150  1  0  0.420497  0  0.89384  0  0  0.384921  0  0.965697  0  0  0.396438  0  0.949187  0  0  0.27931  0.376661  0  0.977489  0
H  H3  1  0.70768533  0.39911332  0.45429502  1  0  0.420448  0  0.893902  0  0  0.384904  0  0.965718  0  0  0.396423  0  0.949205  0  0  0.279332  0.376645  0  0.97751  0
H  H4  1  0.19345239  0.61829715  0.46378889  1  0  0.418269  0  0.831847  0  0  0.400712  0  0.887954  0  0  0.40924  0  0.878113  0  0  0.313349  0.39442  0  0.895292  0
H  H5  1  0.80655358  0.38170224  0.53620540  1  0  0.418209  0  0.83191  0  0  0.400654  0  0.888015  0  0  0.409182  0  0.878171  0  0  0.313317  0.394362  0  0.895353  0
H  H6  1  0.93422543  0.39433782  0.30924636  1  0  0.088875  0  0.975992  0  0  0.09783  0  1.042873  0  0  0.102259  0  1.038362  0  0  0.099144  0.094584  0  1.046592  0
H  H7  1  0.06577367  0.60566568  0.69075639  1  0  0.088872  0  0.975926  0  0  0.097801  0  1.042844  0  0  0.102231  0  1.038334  0  0  0.099136  0.094553  0  1.046566  0
H  H8  1  0.76219646  0.68717545  0.05237853  1  0  0.096159  0  0.947769  0  0  0.106193  0  1.011767  0  0  0.109706  0  1.009366  0  0  0.100939  0.103798  0  1.013367  0
H  H9  1  0.23780621  0.31283006  0.94762160  1  0  0.0962  0  0.947672  0  0  0.106186  0  1.011729  0  0  0.10971  0  1.009299  0  0  0.100939  0.103795  0  1.013318  0
H  H10  1  0.16173317  0.67847683  0.08132225  1  0  0.104901  0  0.960992  0  0  0.110816  0  1.030123  0  0  0.114334  0  1.028074  0  0  0.09909  0.108454  0  1.031213  0
H  H11  1  0.83826802  0.32152360  0.91868102  1  0  0.104885  0  0.961034  0  0  0.110804  0  1.030157  0  0  0.114321  0  1.02811  0  0  0.099075  0.108443  0  1.031246  0
H  H12  1  0.99384242  0.89299460  0.98355701  1  0  0.102333  0  0.958996  0  0  0.124807  0  1.018822  0  0  0.125927  0  1.018875  0  0  0.087443  0.123409  0  1.019858  0
H  H13  1  0.00615593  0.10701094  0.01644755  1  0  0.102386  0  0.958982  0  0  0.124852  0  1.018815  0  0  0.125971  0  1.018868  0  0  0.087452  0.123456  0  1.019852  0
H  H14  1  0.88793894  0.84684117  0.92064602  1  0  0.106591  0  0.969349  0  0  0.121184  0  1.039069  0  0  0.123998  0  1.036759  0  0  0.083963  0.119324  0  1.040464  0
H  H15  1  0.11205688  0.15316235  0.07936164  1  0  0.106617  0  0.969484  0  0  0.121219  0  1.039179  0  0  0.124032  0  1.036868  0  0  0.083951  0.119358  0  1.040575  0
H  H16  1  0.08566786  0.76757082  0.85683273  1  0  0.107183  0  0.963299  0  0  0.127414  0  1.026573  0  0  0.128389  0  1.027  0  0  0.084753  0.12677  0  1.026222  0
H  H17  1  0.91432705  0.23243882  0.14316899  1  0  0.107245  0  0.963328  0  0  0.127466  0  1.026594  0  0  0.12844  0  1.027023  0  0  0.08476  0.126826  0  1.026241  0
H  H18  1  0.71851747  0.08671926  0.17204902  1  0  0.091734  0  0.931783  0  0  0.098911  0  0.997144  0  0  0.101464  0  0.994168  0  0  0.133867  0.096888  0  0.999568  0
H  H19  1  0.28148180  0.91328120  0.82794597  1  0  0.091693  0  0.931721  0  0  0.098884  0  0.997078  0  0  0.101436  0  0.994104  0  0  0.133836  0.096862  0  0.999502  0
H  H20  1  0.44836643  0.37724722  0.99798841  1  0  0.131553  0  0.939804  0  0  0.138229  0  1.005276  0  0  0.141663  0  1.001041  0  0  0.147219  0.135495  0  1.008611  0
H  H21  1  0.55163495  0.62275323  0.00200665  1  0  0.131564  0  0.93979  0  0  0.138232  0  1.005284  0  0  0.14167  0  1.001041  0  0  0.147239  0.135497  0  1.008618  0
H  H22  1  0.75085575  0.15197103  0.72667118  1  0  0.080669  0  0.903005  0  0  0.097934  0  0.960283  0  0  0.098676  0  0.959584  0  0  0.113646  0.097261  0  0.960874  0
H  H23  1  0.24913679  0.84803355  0.27332680  1  0  0.080698  0  0.903033  0  0  0.097959  0  0.960324  0  0  0.098705  0  0.95962  0  0  0.113655  0.097283  0  0.960917  0
H  H24  1  0.56277720  0.25976842  0.77289517  1  0  0.104657  0  0.949573  0  0  0.117203  0  1.01414  0  0  0.118455  0  1.014177  0  0  0.117192  0.116202  0  1.014276  0
H  H25  1  0.43721815  0.74023105  0.22710243  1  0  0.104652  0  0.949579  0  0  0.117235  0  1.014106  0  0  0.11849  0  1.014138  0  0  0.117209  0.116232  0  1.014238  0
H  H26  1  0.47046472  0.05958701  0.86838270  1  0  0.086115  0  0.939608  0  0  0.099473  0  1.007009  0  0  0.100231  0  1.007876  0  0  0.099409  0.0988  0  1.006521  0
H  H27  1  0.52953347  0.94041345  0.13161362  1  0  0.086104  0  0.939604  0  0  0.099498  0  1.00698  0  0  0.100258  0  1.007841  0  0  0.099419  0.098825  0  1.006493  0
H  H28  1  0.65440385  0.95282292  0.84188562  1  0  0.092369  0  0.919342  0  0  0.11161  0  0.975003  0  0  0.112403  0  0.975315  0  0  0.105279  0.11087  0  0.974984  0
H  H29  1  0.34559427  0.04717755  0.15811345  1  0  0.09241  0  0.919313  0  0  0.111652  0  0.974984  0  0  0.112444  0  0.975297  0  0  0.105294  0.110911  0  0.974967  0
H  H30  1  0.73465401  0.99021752  0.59096913  1  0  0.080263  0  0.899353  0  0  0.102032  0  0.950133  0  0  0.101982  0  0.949406  0  0  0.121451  0.10177  0  0.950153  0
H  H31  1  0.26534697  0.00977784  0.40902773  1  0  0.080263  0  0.899356  0  0  0.102019  0  0.950134  0  0  0.101969  0  0.949411  0  0  0.121435  0.101758  0  0.950154  0
H  H32  1  0.60330817  0.90113464  0.66929066  1  0  0.091451  0  0.93777  0  0  0.102351  0  1.009011  0  0  0.102837  0  1.008122  0  0  0.115983  0.101813  0  1.008824  0
H  H33  1  0.39669103  0.09886277  0.33070752  1  0  0.091422  0  0.937804  0  0  0.1023  0  1.00904  0  0  0.102787  0  1.008154  0  0  0.115946  0.101762  0  1.008852  0
H  H34  1  0.66860857  0.19542347  0.44657444  1  0  0.118707  0  0.928802  0  0  0.129569  0  0.988417  0  0  0.132458  0  0.983497  0  0  0.147355  0.127145  0  0.991625  0
H  H35  1  0.33139693  0.80457389  0.55342485  1  0  0.118618  0  0.928761  0  0  0.129522  0  0.988345  0  0  0.132413  0  0.983424  0  0  0.147321  0.127098  0  0.991554  0
H  H36  1  0.20993580  0.24934234  0.58765884  1  0  0.104269  0  0.911432  0  0  0.116258  0  0.966362  0  0  0.117618  0  0.965362  0  0  0.141394  0.114953  0  0.967465  0
H  H37  1  0.79007016  0.75066011  0.41233592  1  0  0.104327  0  0.911443  0  0  0.116292  0  0.966377  0  0  0.11766  0  0.965371  0  0  0.141432  0.11499  0  0.967477  0
C  C38  1  0.05651378  0.53335757  0.20365785  1  0  -0.06289  0  3.777547  0  0  -0.036331  0  4.01154  0  0  -0.045172  0  4.035321  0  0  -0.024715  -0.030759  0  3.99616  0
C  C39  1  0.94348170  0.46664698  0.79634981  1  0  -0.063103  0  3.777527  0  0  -0.036474  0  4.011466  0  0  -0.045321  0  4.035256  0  0  -0.024759  -0.030905  0  3.996082  0
C  C40  1  0.93872251  0.48134867  0.24102509  1  0  -0.086013  0  3.736797  0  0  -0.123447  0  3.986556  0  0  -0.122124  0  4.007108  0  0  -0.085339  -0.124606  0  3.974347  0
C  C41  1  0.06127514  0.51865586  0.75897990  1  0  -0.085802  0  3.736601  0  0  -0.123233  0  3.986329  0  0  -0.12191  0  4.006885  0  0  -0.085285  -0.124396  0  3.974109  0
C  C42  1  0.83114234  0.53883469  0.18829958  1  0  -0.079229  0  3.805634  0  0  -0.053049  0  4.042583  0  0  -0.062807  0  4.068042  0  0  -0.025784  -0.046995  0  4.026351  0
C  C43  1  0.16885853  0.46116982  0.81170232  1  0  -0.079275  0  3.805715  0  0  -0.053088  0  4.042642  0  0  -0.062846  0  4.068103  0  0  -0.02574  -0.047012  0  4.026381  0
C  C44  1  0.84531291  0.64560586  0.09443627  1  0  -0.106248  0  3.691117  0  0  -0.142624  0  3.939847  0  0  -0.141686  0  3.960065  0  0  -0.082202  -0.14248  0  3.926066  0
C  C45  1  0.15468903  0.35439864  0.90556520  1  0  -0.106298  0  3.69103  0  0  -0.142644  0  3.939753  0  0  -0.141705  0  3.959979  0  0  -0.082251  -0.142506  0  3.925968  0
C  C46  1  0.96425544  0.69686494  0.05313520  1  0  0.137879  0  3.764419  0  0  0.169754  0  3.999496  0  0  0.167747  0  4.025232  0  0  -0.008579  0.170813  0  3.98173  0
C  C47  1  0.03574861  0.30313649  0.94686587  1  0  0.137865  0  3.764443  0  0  0.169757  0  3.999494  0  0  0.16775  0  4.025229  0  0  -0.008556  0.170815  0  3.981729  0
C  C48  1  0.06773142  0.64085427  0.11058262  1  0  -0.108415  0  3.665011  0  0  -0.142702  0  3.910956  0  0  -0.14124  0  3.929116  0  0  -0.082993  -0.142399  0  3.897556  0
C  C49  1  0.93226655  0.35915229  0.88942375  1  0  -0.108363  0  3.665115  0  0  -0.142674  0  3.911037  0  0  -0.141208  0  3.929198  0  0  -0.083002  -0.14237  0  3.897632  0
C  C50  1  0.17296680  0.47343544  0.25986689  1  0  0.617504  0  3.972141  0  0  0.575266  0  4.256027  0  0  0.608756  0  4.250929  0  0  0.179865  0.552264  0  4.258672  0
C  C51  1  0.82702693  0.52657115  0.74014025  1  0  0.61751  0  3.972048  0  0  0.575238  0  4.255952  0  0  0.608726  0  4.250861  0  0  0.179888  0.552236  0  4.258597  0
C  C52  1  0.70149913  0.48821248  0.23014632  1  0  0.644262  0  3.90012  0  0  0.594751  0  4.185288  0  0  0.629026  0  4.179446  0  0  0.200974  0.571379  0  4.188356  0
C  C53  1  0.29850249  0.51179000  0.76985377  1  0  0.644274  0  3.900254  0  0  0.594765  0  4.185403  0  0  0.629037  0  4.179568  0  0  0.200994  0.571384  0  4.188468  0
C  C54  1  0.98340917  0.80677795  0.94799989  1  0  -0.339639  0  3.743071  0  0  -0.419679  0  3.97577  0  0  -0.421876  0  3.985496  0  0  -0.247742  -0.417712  0  3.969423  0
C  C55  1  0.01658952  0.19322657  0.05200559  1  0  -0.339798  0  3.743293  0  0  -0.419836  0  3.975974  0  0  -0.422035  0  3.985709  0  0  -0.247762  -0.417876  0  3.969623  0
C  C56  1  0.67043984  0.14027920  0.10184594  1  0  0.196884  0  3.737738  0  0  0.143981  0  4.033865  0  0  0.155202  0  4.047851  0  0  0.145023  0.136584  0  4.02424  0
C  C57  1  0.32955763  0.85972025  0.89815082  1  0  0.196873  0  3.737673  0  0  0.143959  0  4.033797  0  0  0.155182  0  4.047779  0  0  0.14503  0.136563  0  4.024172  0
C  C58  1  0.53001465  0.28858219  0.01780922  1  0  0.189105  0  3.593618  0  0  0.109599  0  3.85687  0  0  0.124646  0  3.867037  0  0  0.169706  0.099834  0  3.849961  0
C  C59  1  0.46998246  0.71142134  0.98218799  1  0  0.189088  0  3.593667  0  0  0.109631  0  3.856936  0  0  0.124692  0  3.86709  0  0  0.169726  0.099866  0  3.850026  0
C  C60  1  0.63452124  0.16530710  0.79891052  1  0  -0.015621  0  3.618373  0  0  -0.093572  0  3.88235  0  0  -0.089784  0  3.892392  0  0  -0.048355  -0.095797  0  3.875147  0
C  C61  1  0.36547373  0.83469339  0.20108799  1  0  -0.015705  0  3.618336  0  0  -0.093644  0  3.882381  0  0  -0.089846  0  3.892408  0  0  -0.048361  -0.09586  0  3.87517  0
C  C62  1  0.58947029  0.04100364  0.80133276  1  0  -0.145541  0  3.667218  0  0  -0.193028  0  3.941321  0  0  -0.194787  0  3.952366  0  0  -0.157949  -0.191277  0  3.931956  0
C  C63  1  0.41052753  0.95899480  0.19866401  1  0  -0.145495  0  3.667142  0  0  -0.193059  0  3.941295  0  0  -0.194813  0  3.952341  0  0  -0.157947  -0.191308  0  3.931929  0
C  C64  1  0.61895960  0.00030221  0.66313094  1  0  -0.003937  0  3.622857  0  0  -0.079232  0  3.881969  0  0  -0.064899  0  3.895515  0  0  -0.042111  -0.081725  0  3.874305  0
C  C65  1  0.38104177  0.99969518  0.33686457  1  0  -0.003994  0  3.622903  0  0  -0.079196  0  3.881966  0  0  -0.064913  0  3.895504  0  0  -0.042121  -0.081684  0  3.874293  0
C  C66  1  0.55796086  0.18545797  0.50214227  1  0  0.180599  0  3.637199  0  0  0.100168  0  3.902706  0  0  0.125807  0  3.917798  0  0  0.165501  0.090876  0  3.894128  0
C  C67  1  0.44204327  0.81454041  0.49785561  1  0  0.180694  0  3.637057  0  0  0.100249  0  3.90256  0  0  0.125837  0  3.917635  0  0  0.165564  0.090959  0  3.89398  0
C  C68  1  0.32532498  0.21041795  0.57630030  1  0  0.203234  0  3.71436  0  0  0.147822  0  4.012573  0  0  0.160059  0  4.023204  0  0  0.147789  0.140087  0  4.002974  0
C  C69  1  0.67468021  0.78958043  0.42369716  1  0  0.203051  0  3.714348  0  0  0.147653  0  4.012555  0  0  0.15988  0  4.023202  0  0  0.147692  0.139916  0  4.002959  0
N  N70  1  0.55724905  0.26193629  0.12829473  1  0  -0.429106  0  3.198146  0  0  -0.357696  0  3.496239  0  0  -0.38126  0  3.511077  0  0  -0.350151  -0.341507  0  3.485367  0
N  N71  1  0.44275159  0.73806619  0.87170214  1  0  -0.429054  0  3.198204  0  0  -0.357638  0  3.496272  0  0  -0.381199  0  3.511106  0  0  -0.350122  -0.341452  0  3.485408  0
N  N72  1  0.71377080  0.09030615  0.98230291  1  0  -0.2835  0  2.874073  0  0  -0.279873  0  3.139017  0  0  -0.288894  0  3.152923  0  0  -0.222436  -0.27381  0  3.129972  0
N  N73  1  0.28622739  0.90969432  0.01769342  1  0  -0.283437  0  2.873992  0  0  -0.279761  0  3.138958  0  0  -0.288771  0  3.15287  0  0  -0.222349  -0.273698  0  3.129915  0
N  N74  1  0.62325853  0.18596468  0.93057604  1  0  0.048232  0  3.556164  0  0  0.171044  0  3.742973  0  0  0.161336  0  3.765627  0  0  -0.132266  0.176336  0  3.729553  0
N  N75  1  0.37674037  0.81403680  0.06941986  1  0  0.048235  0  3.556128  0  0  0.170913  0  3.743082  0  0  0.161151  0  3.765837  0  0  -0.13241  0.176206  0  3.729662  0
N  N76  1  0.52177176  0.09844955  0.60470131  1  0  0.040467  0  3.550466  0  0  0.161894  0  3.738987  0  0  0.120011  0  3.803117  0  0  -0.133384  0.168338  0  3.72323  0
N  N77  1  0.47823061  0.90154783  0.39529651  1  0  0.040457  0  3.550617  0  0  0.161841  0  3.739133  0  0  0.120103  0  3.803122  0  0  -0.133339  0.168276  0  3.723389  0
N  N78  1  0.37314218  0.11252607  0.65353599  1  0  -0.277451  0  2.831009  0  0  -0.278049  0  3.099764  0  0  -0.276651  0  3.12006  0  0  -0.221796  -0.272343  0  3.090214  0
N  N79  1  0.62686090  0.88747232  0.34646140  1  0  -0.277383  0  2.831009  0  0  -0.277951  0  3.099745  0  0  -0.276603  0  3.120022  0  0  -0.221793  -0.272246  0  3.0902  0
N  N80  1  0.43577545  0.25804215  0.48111970  1  0  -0.417813  0  3.201109  0  0  -0.343846  0  3.501049  0  0  -0.366937  0  3.510609  0  0  -0.346  -0.327317  0  3.490471  0
N  N81  1  0.56422829  0.74195726  0.51888000  1  0  -0.417733  0  3.201046  0  0  -0.343771  0  3.500977  0  0  -0.366861  0  3.510549  0  0  -0.345976  -0.32724  0  3.490398  0
O  O82  1  0.27175497  0.53501645  0.22253602  1  0  -0.660348  0  1.992682  0  0  -0.593305  0  2.239498  0  0  -0.623929  0  2.230653  0  0  -0.348722  -0.570548  0  2.245393  0
O  O83  1  0.72824516  0.46498399  0.77746767  1  0  -0.660309  0  1.992723  0  0  -0.593263  0  2.239561  0  0  -0.623895  0  2.230733  0  0  -0.348699  -0.570507  0  2.245456  0
O  O84  1  0.17125896  0.37057912  0.33651745  1  0  -0.654967  0  1.851864  0  0  -0.609729  0  2.059438  0  0  -0.632732  0  2.049952  0  0  -0.362831  -0.592706  0  2.065125  0
O  O85  1  0.82872785  0.62943463  0.66350045  1  0  -0.654969  0  1.85183  0  0  -0.609725  0  2.059398  0  0  -0.632725  0  2.049923  0  0  -0.362865  -0.592701  0  2.065087  0
O  O86  1  0.68313139  0.39603999  0.32235771  1  0  -0.678224  0  2.015816  0  0  -0.606611  0  2.244471  0  0  -0.635279  0  2.234005  0  0  -0.332679  -0.585559  0  2.250332  0
O  O87  1  0.31687132  0.60395942  0.67764058  1  0  -0.678209  0  2.01585  0  0  -0.606603  0  2.244534  0  0  -0.635266  0  2.234063  0  0  -0.332663  -0.585554  0  2.250401  0
O  O88  1  0.61024778  0.53742111  0.17493903  1  0  -0.627226  0  1.988344  0  0  -0.564732  0  2.229335  0  0  -0.592519  0  2.22064  0  0  -0.319607  -0.544329  0  2.235746  0
O  O89  1  0.38974841  0.46258444  0.82506820  1  0  -0.627224  0  1.988336  0  0  -0.564734  0  2.229328  0  0  -0.592515  0  2.220637  0  0  -0.319621  -0.544329  0  2.235745  0
O  O90  1  0.29366358  0.60895478  0.45286212  1  0  -0.831448  0  1.858145  0  0  -0.776695  0  2.056005  0  0  -0.797971  0  2.02693  0  0  -0.585337  -0.761825  0  2.076908  0
O  O91  1  0.70634202  0.39104563  0.54713307  1  0  -0.831345  0  1.858286  0  0  -0.776624  0  2.056103  0  0  -0.797898  0  2.027027  0  0  -0.585323  -0.761754  0  2.07701  0
