# generated using pymatgen
data_Zn4H6C9(SN3)4
_symmetry_space_group_name_H-M   'P 1'
_cell_length_a   8.31298600
_cell_length_b   8.54884540
_cell_length_c   8.54884598
_cell_angle_alpha   110.02309004
_cell_angle_beta   108.91346834
_cell_angle_gamma   108.91364901
_symmetry_Int_Tables_number   1
_chemical_formula_structural   Zn4H6C9(SN3)4
_chemical_formula_sum   'Zn4 H6 C9 S4 N12'
_cell_volume   470.86110931
_cell_formula_units_Z   1
loop_
 _symmetry_equiv_pos_site_id
 _symmetry_equiv_pos_as_xyz
  1  'x, y, z'
loop_
 _atom_site_type_symbol
 _atom_site_label
 _atom_site_symmetry_multiplicity
 _atom_site_fract_x
 _atom_site_fract_y
 _atom_site_fract_z
 _atom_site_occupancy
 _atom_site_pbe_bader_spin_density
 _atom_site_pbe_cm5_charge
 _atom_site_pbe_ddec_charge
 _atom_site_pbe_ddec_spin_density
 _atom_site_pbe_ddec_sum_bond_order
 _atom_site_pbe_magmom
Zn  Zn0  1  0.37734936  0.75595141  0.99999975  1  0  0.652312  0.637126  0  2.555194  0
Zn  Zn1  1  0.62139365  0.24404023  0.24404066  1  0  0.652304  0.637084  0  2.555149  0
Zn  Zn2  1  0.37734684  0.00000031  0.75595132  1  0  0.652354  0.637184  0  2.555155  0
Zn  Zn3  1  0.88743495  0.00001106  0.00000422  1  0  0.700058  0.90603  0  2.644727  0
H  H4  1  0.55352560  0.62191286  0.30083493  1  0  0.125029  0.089566  0  1.050782  0
H  H5  1  0.93161012  0.67891134  0.37807700  1  0  0.125012  0.08955  0  1.050684  0
H  H6  1  0.25269354  0.69916448  0.32108725  1  0  0.125039  0.089568  0  1.050726  0
H  H7  1  0.93160715  0.37807522  0.67891170  1  0  0.125033  0.089607  0  1.050692  0
H  H8  1  0.55352548  0.30083471  0.62191442  1  0  0.125033  0.08958  0  1.050788  0
H  H9  1  0.25269264  0.32108541  0.69916302  1  0  0.125023  0.089559  0  1.050749  0
C  C10  1  0.87664219  0.63130013  0.00000509  1  0  0.138673  0.271282  0  4.368698  0
C  C11  1  0.24535563  0.36871696  0.36871207  1  0  0.13858  0.271397  0  4.368693  0
C  C12  1  0.87664847  0.00000088  0.63128056  1  0  0.138423  0.27115  0  4.368995  0
C  C13  1  0.48606519  0.51316210  0.15280013  1  0  0.152902  0.161558  0  3.941199  0
C  C14  1  0.97290227  0.63962929  0.48682988  1  0  0.152958  0.161586  0  3.941066  0
C  C15  1  0.33326713  0.84720030  0.36036824  1  0  0.152933  0.161663  0  3.940972  0
C  C16  1  0.97290076  0.48682965  0.63963121  1  0  0.152927  0.161477  0  3.9411  0
C  C17  1  0.48606730  0.15280069  0.51316255  1  0  0.152896  0.161567  0  3.941149  0
C  C18  1  0.33326619  0.36036515  0.84719817  1  0  0.152941  0.16162  0  3.941124  0
S  S19  1  0.87916083  0.44313983  0.99999756  1  0  -0.161148  -0.319755  0  2.377372  0
S  S20  1  0.43604824  0.55687642  0.55687760  1  0  -0.161169  -0.319863  0  2.377372  0
S  S21  1  0.87917149  0.99999464  0.44313393  1  0  -0.160998  -0.319529  0  2.377822  0
S  S22  1  0.60186419  0.99999692  0.99999550  1  0  -0.393936  -0.705376  0  2.918848  0
N  N23  1  0.87811398  0.77040216  0.00001015  1  0  -0.421685  -0.50078  0  3.334739  0
N  N24  1  0.10772591  0.22963235  0.22962109  1  0  -0.421566  -0.500796  0  3.334681  0
N  N25  1  0.87811655  0.00000593  0.77039910  1  0  -0.421587  -0.500848  0  3.334492  0
N  N26  1  0.39605631  0.52896070  0.99999845  1  0  -0.356996  -0.293814  0  3.53894  0
N  N27  1  0.86709607  0.47103154  0.47103232  1  0  -0.356977  -0.293703  0  3.538934  0
N  N28  1  0.39605706  0.99999859  0.52896281  1  0  -0.356999  -0.293872  0  3.538945  0
N  N29  1  0.47964971  0.34492176  0.09808324  1  0  -0.254546  -0.181613  0  3.513368  0
N  N30  1  0.13472699  0.75315626  0.65507348  1  0  -0.254597  -0.181668  0  3.513382  0
N  N31  1  0.38156607  0.90191143  0.24683664  1  0  -0.254557  -0.181679  0  3.513252  0
N  N32  1  0.13472706  0.65507161  0.75315730  1  0  -0.254563  -0.181598  0  3.513374  0
N  N33  1  0.47965079  0.09808245  0.34492299  1  0  -0.254543  -0.181597  0  3.513386  0
N  N34  1  0.38156313  0.24683633  0.90190998  1  0  -0.254564  -0.181663  0  3.513333  0
