# generated using pymatgen
data_ZnH12C22(NO4)2
_symmetry_space_group_name_H-M   'P 1'
_cell_length_a   5.75892038
_cell_length_b   12.23693956
_cell_length_c   13.76171715
_cell_angle_alpha   116.08565817
_cell_angle_beta   89.99953355
_cell_angle_gamma   90.00032174
_symmetry_Int_Tables_number   1
_chemical_formula_structural   ZnH12C22(NO4)2
_chemical_formula_sum   'Zn2 H24 C44 N4 O16'
_cell_volume   871.02261087
_cell_formula_units_Z   2
loop_
 _symmetry_equiv_pos_site_id
 _symmetry_equiv_pos_as_xyz
  1  'x, y, z'
loop_
 _atom_site_type_symbol
 _atom_site_label
 _atom_site_symmetry_multiplicity
 _atom_site_fract_x
 _atom_site_fract_y
 _atom_site_fract_z
 _atom_site_occupancy
 _atom_site_hle17_bader_spin_density
 _atom_site_hle17_ddec_charge
 _atom_site_hle17_ddec_spin_density
 _atom_site_hle17_ddec_sum_bond_order
 _atom_site_hle17_magmom
 _atom_site_hse06_10hf_bader_spin_density
 _atom_site_hse06_10hf_ddec_charge
 _atom_site_hse06_10hf_ddec_spin_density
 _atom_site_hse06_10hf_ddec_sum_bond_order
 _atom_site_hse06_10hf_magmom
 _atom_site_hse06_bader_spin_density
 _atom_site_hse06_ddec_charge
 _atom_site_hse06_ddec_spin_density
 _atom_site_hse06_ddec_sum_bond_order
 _atom_site_hse06_magmom
 _atom_site_pbe_bader_spin_density
 _atom_site_pbe_cm5_charge
 _atom_site_pbe_ddec_charge
 _atom_site_pbe_ddec_spin_density
 _atom_site_pbe_ddec_sum_bond_order
 _atom_site_pbe_magmom
Zn  Zn0  1  0.00000119  0.99998990  0.00000207  1  0  1.074315  0  1.745642  0  0  0.881617  0  2.198415  0  0  0.93238  0  2.143759  0  0  0.701077  0.846056  0  2.236012  0
Zn  Zn1  1  0.50001047  0.50000330  0.49999736  1  0  1.074329  0  1.745563  0  0  0.881653  0  2.198337  0  0  0.932424  0  2.143672  0  0  0.7011  0.846091  0  2.23593  0
H  H2  1  0.66771691  0.17542452  0.14195826  1  0  0.393467  0  0.902461  0  0  0.357734  0  0.985722  0  0  0.371091  0  0.972857  0  0  0.298077  0.34845  0  0.994519  0
H  H3  1  0.16770538  0.32458536  0.35803680  1  0  0.393487  0  0.90256  0  0  0.35773  0  0.985854  0  0  0.371096  0  0.972982  0  0  0.298114  0.348447  0  0.994643  0
H  H4  1  0.33229534  0.82457649  0.85804442  1  0  0.393482  0  0.902445  0  0  0.357734  0  0.985738  0  0  0.371103  0  0.972863  0  0  0.298054  0.348448  0  0.99454  0
H  H5  1  0.83230166  0.67542672  0.64195866  1  0  0.393542  0  0.902369  0  0  0.357788  0  0.985653  0  0  0.37116  0  0.972773  0  0  0.298052  0.348495  0  0.994466  0
H  H6  1  0.98933426  0.09448484  0.46974624  1  0  0.104109  0  0.933309  0  0  0.117543  0  0.992527  0  0  0.12017  0  0.990872  0  0  0.114937  0.115648  0  0.993698  0
H  H7  1  0.48933707  0.40551345  0.03024890  1  0  0.104144  0  0.933256  0  0  0.117639  0  0.992397  0  0  0.120267  0  0.990741  0  0  0.114968  0.115745  0  0.993568  0
H  H8  1  0.01064327  0.90553168  0.53025971  1  0  0.103991  0  0.933275  0  0  0.117451  0  0.99247  0  0  0.120076  0  0.990817  0  0  0.114838  0.115556  0  0.99364  0
H  H9  1  0.51065782  0.59447033  0.96974254  1  0  0.103968  0  0.933258  0  0  0.117403  0  0.992499  0  0  0.12003  0  0.990844  0  0  0.114866  0.115508  0  0.99367  0
H  H10  1  0.65810255  0.95195446  0.44500355  1  0  0.099504  0  0.965109  0  0  0.107376  0  1.032936  0  0  0.110572  0  1.030727  0  0  0.10447  0.105059  0  1.034562  0
H  H11  1  0.15809858  0.54804251  0.05499829  1  0  0.099573  0  0.965092  0  0  0.107463  0  1.032881  0  0  0.110652  0  1.030693  0  0  0.104509  0.105145  0  1.034512  0
H  H12  1  0.34186803  0.04807193  0.55501723  1  0  0.099499  0  0.96523  0  0  0.107438  0  1.032969  0  0  0.110645  0  1.030746  0  0  0.104495  0.105123  0  1.034594  0
H  H13  1  0.84188937  0.45192491  0.94498517  1  0  0.099546  0  0.965115  0  0  0.107453  0  1.032886  0  0  0.110665  0  1.03067  0  0  0.104495  0.105136  0  1.034514  0
H  H14  1  0.35394687  0.81675993  0.32631311  1  0  0.091338  0  0.964974  0  0  0.102557  0  1.025196  0  0  0.104385  0  1.026634  0  0  0.099583  0.101217  0  1.024316  0
H  H15  1  0.85395615  0.68323714  0.17369537  1  0  0.091408  0  0.965044  0  0  0.102608  0  1.025267  0  0  0.104439  0  1.026696  0  0  0.099618  0.101268  0  1.024385  0
H  H16  1  0.64604107  0.18324359  0.67370873  1  0  0.091333  0  0.9651  0  0  0.102568  0  1.02529  0  0  0.104403  0  1.026706  0  0  0.099606  0.101215  0  1.024423  0
H  H17  1  0.14604743  0.31674861  0.82628450  1  0  0.091394  0  0.965031  0  0  0.102651  0  1.025206  0  0  0.104506  0  1.026597  0  0  0.099612  0.101275  0  1.024365  0
H  H18  1  0.33478343  0.77457357  0.13225166  1  0  0.091062  0  0.978709  0  0  0.099646  0  1.044532  0  0  0.101745  0  1.044935  0  0  0.098185  0.098092  0  1.044385  0
H  H19  1  0.83479122  0.72542986  0.36775797  1  0  0.090972  0  0.978678  0  0  0.099534  0  1.044523  0  0  0.101628  0  1.044936  0  0  0.098148  0.097982  0  1.044373  0
H  H20  1  0.66523924  0.22540901  0.86776256  1  0  0.091089  0  0.978689  0  0  0.099718  0  1.04446  0  0  0.101815  0  1.044863  0  0  0.098155  0.098165  0  1.044316  0
H  H21  1  0.16523145  0.27458048  0.63222953  1  0  0.091149  0  0.978597  0  0  0.099704  0  1.04445  0  0  0.1018  0  1.044857  0  0  0.098143  0.09815  0  1.044303  0
H  H22  1  0.63659130  0.85638202  0.05261026  1  0  0.127354  0  0.982252  0  0  0.133143  0  1.047141  0  0  0.137409  0  1.044355  0  0  0.10764  0.13005  0  1.049326  0
H  H23  1  0.13661740  0.64361584  0.44739201  1  0  0.127396  0  0.982318  0  0  0.13323  0  1.047134  0  0  0.137497  0  1.044344  0  0  0.107668  0.130136  0  1.049318  0
H  H24  1  0.36341748  0.14359965  0.94740432  1  0  0.127433  0  0.982001  0  0  0.133209  0  1.046908  0  0  0.137501  0  1.044109  0  0  0.107636  0.130104  0  1.049086  0
H  H25  1  0.86341396  0.35639727  0.55259368  1  0  0.127387  0  0.981965  0  0  0.133178  0  1.046855  0  0  0.13747  0  1.044056  0  0  0.107619  0.130076  0  1.049029  0
C  C26  1  0.32445403  0.11453074  0.16649878  1  0  0.633928  0  3.857309  0  0  0.576914  0  4.157442  0  0  0.611026  0  4.149061  0  0  0.22389  0.553853  0  4.162363  0
C  C27  1  0.82447321  0.38547654  0.33349687  1  0  0.633766  0  3.857118  0  0  0.57687  0  4.157078  0  0  0.610973  0  4.148707  0  0  0.224031  0.553821  0  4.161987  0
C  C28  1  0.67553392  0.88546759  0.83349918  1  0  0.634129  0  3.857122  0  0  0.577075  0  4.157268  0  0  0.611191  0  4.148875  0  0  0.223996  0.554018  0  4.162189  0
C  C29  1  0.17556162  0.61453829  0.66649750  1  0  0.634095  0  3.857378  0  0  0.577146  0  4.157363  0  0  0.611256  0  4.148967  0  0  0.223967  0.55408  0  4.162287  0
C  C30  1  0.14222810  0.07692409  0.22475301  1  0  0.105544  0  3.723933  0  0  0.095394  0  3.971688  0  0  0.100736  0  3.987827  0  0  0.125833  0.091819  0  3.960811  0
C  C31  1  0.64223326  0.42307575  0.27523813  1  0  0.105598  0  3.723966  0  0  0.095475  0  3.971765  0  0  0.100817  0  3.987917  0  0  0.125822  0.091897  0  3.96089  0
C  C32  1  0.85776159  0.92307696  0.77524677  1  0  0.105568  0  3.723904  0  0  0.095534  0  3.971705  0  0  0.100868  0  3.987842  0  0  0.125953  0.091954  0  3.960834  0
C  C33  1  0.35776858  0.57692998  0.72475190  1  0  0.105671  0  3.723685  0  0  0.095557  0  3.971464  0  0  0.100905  0  3.9876  0  0  0.125987  0.091982  0  3.960592  0
C  C34  1  0.14964183  0.11609532  0.33838654  1  0  -0.118603  0  3.719464  0  0  -0.103197  0  3.96166  0  0  -0.113043  0  3.982113  0  0  -0.005338  -0.097061  0  3.948323  0
C  C35  1  0.64962959  0.38390079  0.16161181  1  0  -0.118518  0  3.719444  0  0  -0.103223  0  3.961769  0  0  -0.113078  0  3.982224  0  0  -0.005309  -0.097076  0  3.94844  0
C  C36  1  0.85036174  0.88390658  0.66161867  1  0  -0.118562  0  3.719422  0  0  -0.103325  0  3.961842  0  0  -0.113173  0  3.982279  0  0  -0.00534  -0.097174  0  3.9485  0
C  C37  1  0.35036703  0.61609750  0.83838905  1  0  -0.118716  0  3.71945  0  0  -0.103322  0  3.961739  0  0  -0.113179  0  3.982182  0  0  -0.005371  -0.097189  0  3.948415  0
C  C38  1  0.31103307  0.21286156  0.41445173  1  0  0.685967  0  3.789412  0  0  0.628426  0  4.097161  0  0  0.663147  0  4.085733  0  0  0.237542  0.604642  0  4.104715  0
C  C39  1  0.81107490  0.28714567  0.08554686  1  0  0.686051  0  3.789989  0  0  0.628557  0  4.097699  0  0  0.663292  0  4.086229  0  0  0.237443  0.60475  0  4.105298  0
C  C40  1  0.68894446  0.78714771  0.58554914  1  0  0.686155  0  3.789688  0  0  0.628579  0  4.097581  0  0  0.663336  0  4.086095  0  0  0.237465  0.604772  0  4.10517  0
C  C41  1  0.18893735  0.71284539  0.91444749  1  0  0.68618  0  3.789663  0  0  0.628536  0  4.097602  0  0  0.663295  0  4.08612  0  0  0.237509  0.604752  0  4.10517  0
C  C42  1  0.99024308  0.06649717  0.38274988  1  0  -0.03112  0  3.644286  0  0  -0.066118  0  3.889125  0  0  -0.060766  0  3.904053  0  0  -0.04934  -0.069404  0  3.879042  0
C  C43  1  0.49023935  0.43350294  0.11724599  1  0  -0.031297  0  3.644261  0  0  -0.066334  0  3.889113  0  0  -0.060987  0  3.904046  0  0  -0.049434  -0.069617  0  3.879028  0
C  C44  1  0.00973618  0.93352300  0.61725680  1  0  -0.031055  0  3.64439  0  0  -0.06601  0  3.889212  0  0  -0.06066  0  3.904141  0  0  -0.049301  -0.069293  0  3.879121  0
C  C45  1  0.50974859  0.56648270  0.88274329  1  0  -0.030884  0  3.64425  0  0  -0.065897  0  3.88903  0  0  -0.060541  0  3.903957  0  0  -0.049208  -0.069179  0  3.878945  0
C  C46  1  0.82241604  0.98272751  0.31706893  1  0  0.026575  0  3.771046  0  0  0.044106  0  4.000003  0  0  0.040859  0  4.023622  0  0  0.003314  0.046023  0  3.984172  0
C  C47  1  0.32241439  0.51726412  0.18293385  1  0  0.026564  0  3.770996  0  0  0.044083  0  3.999768  0  0  0.040839  0  4.023382  0  0  0.003277  0.046  0  3.983939  0
C  C48  1  0.17754933  0.01728342  0.68294569  1  0  0.02636  0  3.771566  0  0  0.043905  0  4.000386  0  0  0.04066  0  4.024008  0  0  0.003203  0.045823  0  3.984558  0
C  C49  1  0.67758050  0.48271605  0.81705397  1  0  0.026361  0  3.771646  0  0  0.043973  0  4.000373  0  0  0.040727  0  4.023991  0  0  0.003066  0.045888  0  3.984546  0
C  C50  1  0.65371874  0.93110008  0.35949048  1  0  -0.09545  0  3.72934  0  0  -0.117326  0  3.980514  0  0  -0.11881  0  4.000224  0  0  -0.081348  -0.116146  0  3.96721  0
C  C51  1  0.15371859  0.56890600  0.14051429  1  0  -0.095506  0  3.729382  0  0  -0.117423  0  3.980551  0  0  -0.118914  0  4.000261  0  0  -0.081396  -0.11624  0  3.967243  0
C  C52  1  0.34625878  0.06891446  0.64052776  1  0  -0.095415  0  3.729357  0  0  -0.117399  0  3.980575  0  0  -0.118892  0  4.000293  0  0  -0.081347  -0.11622  0  3.967268  0
C  C53  1  0.84626936  0.43108702  0.85946921  1  0  -0.095448  0  3.729505  0  0  -0.117433  0  3.980694  0  0  -0.118936  0  4.000427  0  0  -0.081282  -0.116248  0  3.967377  0
C  C54  1  0.48380338  0.85601323  0.29328488  1  0  -0.055653  0  3.741331  0  0  -0.071088  0  3.992751  0  0  -0.074167  0  4.015726  0  0  -0.084413  -0.069048  0  3.977166  0
C  C55  1  0.98381325  0.64398858  0.20671923  1  0  -0.055699  0  3.741274  0  0  -0.071115  0  3.992694  0  0  -0.074189  0  4.015661  0  0  -0.084391  -0.069072  0  3.977104  0
C  C56  1  0.51618630  0.14398944  0.70673154  1  0  -0.05563  0  3.741233  0  0  -0.071098  0  3.992721  0  0  -0.07417  0  4.015695  0  0  -0.084447  -0.069046  0  3.977137  0
C  C57  1  0.01620422  0.35600176  0.79325956  1  0  -0.055755  0  3.74132  0  0  -0.071214  0  3.992736  0  0  -0.074303  0  4.015711  0  0  -0.084455  -0.069144  0  3.977157  0
C  C58  1  0.47600422  0.83025781  0.18243491  1  0  -0.05611  0  3.747201  0  0  -0.073434  0  4.003589  0  0  -0.074501  0  4.025765  0  0  -0.087653  -0.072483  0  3.988456  0
C  C59  1  0.97602268  0.66974396  0.31757212  1  0  -0.056036  0  3.746736  0  0  -0.07331  0  4.003185  0  0  -0.074374  0  4.025357  0  0  -0.0877  -0.07236  0  3.98805  0
C  C60  1  0.52401325  0.16972844  0.81757931  1  0  -0.056261  0  3.74676  0  0  -0.073597  0  4.003183  0  0  -0.074668  0  4.025371  0  0  -0.087685  -0.072649  0  3.988044  0
C  C61  1  0.02401041  0.33026546  0.68241574  1  0  -0.056249  0  3.746675  0  0  -0.073546  0  4.003108  0  0  -0.074618  0  4.025299  0  0  -0.087656  -0.072594  0  3.98796  0
C  C62  1  0.64170788  0.87587976  0.13766377  1  0  -0.137688  0  3.676241  0  0  -0.163041  0  3.936012  0  0  -0.167372  0  3.953779  0  0  -0.087341  -0.160261  0  3.924151  0
C  C63  1  0.14171627  0.62411443  0.36233993  1  0  -0.137791  0  3.676215  0  0  -0.16334  0  3.936003  0  0  -0.167673  0  3.953762  0  0  -0.087404  -0.160556  0  3.924142  0
C  C64  1  0.35829049  0.12411381  0.86234974  1  0  -0.137667  0  3.675876  0  0  -0.163082  0  3.935591  0  0  -0.167446  0  3.95339  0  0  -0.087329  -0.160279  0  3.923717  0
C  C65  1  0.85827862  0.37589400  0.63765480  1  0  -0.137653  0  3.676001  0  0  -0.16308  0  3.935709  0  0  -0.167442  0  3.953498  0  0  -0.087338  -0.160278  0  3.923831  0
C  C66  1  0.81887114  0.95309288  0.20397016  1  0  0.226561  0  3.729435  0  0  0.221182  0  3.97039  0  0  0.22835  0  3.990263  0  0  0.119635  0.216354  0  3.957039  0
C  C67  1  0.31890415  0.54691051  0.29604241  1  0  0.226585  0  3.729776  0  0  0.221595  0  3.970238  0  0  0.22877  0  3.990102  0  0  0.119875  0.216766  0  3.956887  0
C  C68  1  0.18110291  0.04691077  0.79604155  1  0  0.226684  0  3.729931  0  0  0.221554  0  3.970584  0  0  0.228715  0  3.990478  0  0  0.119808  0.216723  0  3.957234  0
C  C69  1  0.68112373  0.45308958  0.70396135  1  0  0.226674  0  3.729938  0  0  0.221533  0  3.970566  0  0  0.228702  0  3.990437  0  0  0.119793  0.216707  0  3.957214  0
N  N70  1  0.98149491  0.00095704  0.16118721  1  0  -0.354563  0  3.19002  0  0  -0.294353  0  3.458335  0  0  -0.309996  0  3.47127  0  0  -0.299259  -0.283678  0  3.449486  0
N  N71  1  0.48150856  0.49904308  0.33880724  1  0  -0.354532  0  3.190293  0  0  -0.294552  0  3.458634  0  0  -0.3102  0  3.471571  0  0  -0.299349  -0.283868  0  3.449782  0
N  N72  1  0.01849825  0.99904215  0.83881546  1  0  -0.354571  0  3.190167  0  0  -0.294586  0  3.458551  0  0  -0.310218  0  3.471483  0  0  -0.299332  -0.283907  0  3.449705  0
N  N73  1  0.51850022  0.50096722  0.66118388  1  0  -0.354623  0  3.189901  0  0  -0.294652  0  3.458321  0  0  -0.310293  0  3.471251  0  0  -0.299305  -0.283975  0  3.449471  0
O  O74  1  0.28830049  0.09136600  0.06825512  1  0  -0.593163  0  2.116824  0  0  -0.51846  0  2.380671  0  0  -0.546579  0  2.368043  0  0  -0.301161  -0.499081  0  2.388876  0
O  O75  1  0.78830590  0.40862745  0.43174678  1  0  -0.593149  0  2.116654  0  0  -0.518479  0  2.380395  0  0  -0.546607  0  2.367808  0  0  -0.30125  -0.499095  0  2.388598  0
O  O76  1  0.71169440  0.90862224  0.93174537  1  0  -0.593317  0  2.116706  0  0  -0.518526  0  2.380408  0  0  -0.546667  0  2.367835  0  0  -0.301239  -0.499157  0  2.388628  0
O  O77  1  0.21171851  0.59138724  0.56825917  1  0  -0.593218  0  2.116892  0  0  -0.518473  0  2.380534  0  0  -0.546612  0  2.367966  0  0  -0.301149  -0.499078  0  2.388733  0
O  O78  1  0.50844493  0.16392789  0.21733029  1  0  -0.563922  0  2.029491  0  0  -0.507578  0  2.251716  0  0  -0.533507  0  2.247001  0  0  -0.290286  -0.48955  0  2.254361  0
O  O79  1  0.00845064  0.33606903  0.28266595  1  0  -0.563822  0  2.029638  0  0  -0.507475  0  2.251789  0  0  -0.533402  0  2.24708  0  0  -0.290299  -0.489461  0  2.254438  0
O  O80  1  0.49154822  0.83607400  0.78267563  1  0  -0.563976  0  2.029696  0  0  -0.507593  0  2.251905  0  0  -0.533519  0  2.247179  0  0  -0.290314  -0.489567  0  2.25455  0
O  O81  1  0.99156508  0.66393212  0.71732515  1  0  -0.564144  0  2.029679  0  0  -0.507792  0  2.251832  0  0  -0.533719  0  2.247105  0  0  -0.290425  -0.489759  0  2.254486  0
O  O82  1  0.28910603  0.32236293  0.41598304  1  0  -0.588078  0  2.214307  0  0  -0.522989  0  2.471  0  0  -0.549023  0  2.45446  0  0  -0.320887  -0.504778  0  2.481762  0
O  O83  1  0.78911177  0.17763889  0.08400765  1  0  -0.58825  0  2.214106  0  0  -0.523138  0  2.470691  0  0  -0.549148  0  2.454121  0  0  -0.320918  -0.504892  0  2.481402  0
O  O84  1  0.71089928  0.67764735  0.58400952  1  0  -0.58834  0  2.214207  0  0  -0.523164  0  2.470787  0  0  -0.549235  0  2.454252  0  0  -0.320885  -0.504947  0  2.481575  0
O  O85  1  0.21089875  0.82235756  0.91599465  1  0  -0.588252  0  2.213998  0  0  -0.523107  0  2.470691  0  0  -0.549175  0  2.454151  0  0  -0.320867  -0.504863  0  2.481383  0
O  O86  1  0.43773665  0.19565836  0.47790467  1  0  -0.528225  0  1.91559  0  0  -0.487289  0  2.136772  0  0  -0.50796  0  2.130532  0  0  -0.276664  -0.472814  0  2.14069  0
O  O87  1  0.93772089  0.30434617  0.02209895  1  0  -0.528064  0  1.916697  0  0  -0.487172  0  2.137925  0  0  -0.50785  0  2.13167  0  0  -0.276492  -0.472696  0  2.141865  0
O  O88  1  0.56226519  0.80435080  0.52210488  1  0  -0.52814  0  1.916125  0  0  -0.487207  0  2.137373  0  0  -0.507881  0  2.131107  0  0  -0.276548  -0.472721  0  2.141303  0
O  O89  1  0.06225489  0.69563577  0.97789321  1  0  -0.528172  0  1.916197  0  0  -0.487224  0  2.137472  0  0  -0.507898  0  2.131205  0  0  -0.276616  -0.472755  0  2.141399  0
