# generated using pymatgen
data_ZnH10C9NO6
_symmetry_space_group_name_H-M   'P 1'
_cell_length_a   9.68470463
_cell_length_b   16.22146856
_cell_length_c   15.53675776
_cell_angle_alpha   90.02199067
_cell_angle_beta   91.28865777
_cell_angle_gamma   94.33904168
_symmetry_Int_Tables_number   1
_chemical_formula_structural   ZnH10C9NO6
_chemical_formula_sum   'Zn4 H40 C36 N4 O24'
_cell_volume   2433.20993173
_cell_formula_units_Z   4
loop_
 _symmetry_equiv_pos_site_id
 _symmetry_equiv_pos_as_xyz
  1  'x, y, z'
loop_
 _atom_site_type_symbol
 _atom_site_label
 _atom_site_symmetry_multiplicity
 _atom_site_fract_x
 _atom_site_fract_y
 _atom_site_fract_z
 _atom_site_occupancy
 _atom_site_pbe_bader_charge
 _atom_site_pbe_bader_spin_density
 _atom_site_pbe_cm5_charge
 _atom_site_pbe_ddec_charge
 _atom_site_pbe_ddec_spin_density
 _atom_site_pbe_ddec_sum_bond_order
 _atom_site_pbe_magmom
Zn  Zn0  1  0.36450840  0.48779325  0.98895687  1  1.275167  0  0.654285  0.836319  0  2.448356  0
Zn  Zn1  1  0.37223300  0.99132596  0.50057295  1  1.280108  0  0.654093  0.834635  0  2.463646  0
Zn  Zn2  1  0.64658137  0.50869418  0.00352624  1  1.294483  0  0.663504  0.850271  0  2.462749  0
Zn  Zn3  1  0.65247004  0.00675596  0.49402138  1  1.284551  0  0.661989  0.845249  0  2.46135  0
H  H4  1  0.42988698  0.29764067  0.78412972  1  0.112477  0  0.101295  0.142301  0  1.020749  0
H  H5  1  0.38085331  0.29040263  0.19818350  1  0.110469  0  0.100278  0.140795  0  1.02366  0
H  H6  1  0.37947467  0.78543145  0.30163718  1  0.113251  0  0.099869  0.139766  0  1.028381  0
H  H7  1  0.42656340  0.79530372  0.69819659  1  0.103934  0  0.100197  0.139137  0  1.045565  0
H  H8  1  0.65412791  0.73696244  0.15373514  1  0.101359  0  0.104937  0.126418  0  1.038369  0
H  H9  1  0.68962241  0.73634707  0.85559895  1  0.089376  0  0.104185  0.125947  0  1.040195  0
H  H10  1  0.69812987  0.24575494  0.64258784  1  0.103585  0  0.104806  0.12842  0  1.028707  0
H  H11  1  0.65123482  0.15167565  0.24857196  1  0.086571  0  0.107477  0.131663  0  1.018838  0
H  H12  1  0.10388059  0.36922900  0.00152888  1  0.179999  0  0.147116  0.118864  0  0.934993  0
H  H13  1  0.11315983  0.87062204  0.50052076  1  0.160286  0  0.149916  0.121432  0  0.927008  0
H  H14  1  0.11176594  0.54589603  0.96255174  1  0.43351  0  0.318411  0.285068  0  0.909577  0
H  H15  1  0.12130250  0.04943356  0.52711510  1  0.411865  0  0.317496  0.281715  0  0.912746  0
H  H16  1  0.84491988  0.38948865  0.95196397  1  0.177979  0  0.145385  0.127061  0  0.970524  0
H  H17  1  0.86048485  0.89146240  0.55357565  1  0.212239  0  0.14726  0.126318  0  0.94662  0
H  H18  1  0.92379138  0.54193635  0.04758135  1  0.427691  0  0.317524  0.281376  0  0.913728  0
H  H19  1  0.92364693  0.03968353  0.45007988  1  0.43513  0  0.318297  0.282912  0  0.910465  0
H  H20  1  0.89694534  0.32548590  0.67696281  1  0.072586  0  0.099856  0.099104  0  0.980802  0
H  H21  1  0.88595176  0.23872104  0.74904709  1  0.030969  0  0.102263  0.104905  0  0.98838  0
H  H22  1  0.98053448  0.33390800  0.78066277  1  0.061968  0  0.105654  0.108772  0  0.98065  0
H  H23  1  0.83725047  0.18436969  0.16680574  1  0.074132  0  0.099828  0.097402  0  0.982397  0
H  H24  1  0.84426120  0.25450474  0.25659874  1  0.037259  0  0.100598  0.100609  0  0.991695  0
H  H25  1  0.92306204  0.28541654  0.15713224  1  0.043559  0  0.103352  0.104668  0  0.983568  0
H  H26  1  0.83471105  0.82514397  0.17329602  1  0.042988  0  0.098217  0.095107  0  0.984561  0
H  H27  1  0.84320675  0.74350231  0.25100812  1  0.042809  0  0.100241  0.100284  0  0.99025  0
H  H28  1  0.92447429  0.84457154  0.27385567  1  0.049982  0  0.106363  0.1093  0  0.977372  0
H  H29  1  0.88801997  0.75312555  0.77571019  1  0.064792  0  0.100565  0.100955  0  0.987209  0
H  H30  1  0.86167431  0.83107374  0.85473347  1  0.056726  0  0.100184  0.098539  0  0.982124  0
H  H31  1  0.96663898  0.85619476  0.76390245  1  0.060387  0  0.108051  0.111213  0  0.975224  0
H  H32  1  0.43712628  0.51883829  0.26663693  1  0.073668  0  0.105234  0.112785  0  0.9794  0
H  H33  1  0.26953690  0.53598757  0.22249251  1  0.070724  0  0.097951  0.108427  0  1.00269  0
H  H34  1  0.30755873  0.55426080  0.33551193  1  0.046676  0  0.104878  0.106596  0  0.980947  0
H  H35  1  0.28685755  0.55767444  0.76739183  1  0.094002  0  0.098147  0.108974  0  1.010537  0
H  H36  1  0.44343940  0.53915367  0.71380449  1  0.07342  0  0.10335  0.108442  0  0.979244  0
H  H37  1  0.30826435  0.58694735  0.65607065  1  0.069611  0  0.107021  0.109646  0  0.97749  0
H  H38  1  0.51084478  0.03020575  0.77542461  1  0.081316  0  0.103127  0.110463  0  0.982977  0
H  H39  1  0.33719662  0.03946322  0.73659022  1  0.082537  0  0.097951  0.109698  0  1.007048  0
H  H40  1  0.38453636  0.06514454  0.84700625  1  0.058021  0  0.107403  0.111904  0  0.975574  0
H  H41  1  0.49301490  0.27167017  0.47403417  1  0.044699  0  0.100421  0.10476  0  0.985249  0
H  H42  1  0.32297709  0.22008820  0.46501185  1  0.085952  0  0.096265  0.107017  0  1.010288  0
H  H43  1  0.35019342  0.32854229  0.43960653  1  0.062856  0  0.105763  0.108991  0  0.979042  0
C  C44  1  0.51695390  0.61343687  0.87645644  1  1.582322  0  0.206223  0.541515  0  4.217767  0
C  C45  1  0.50178375  0.60751654  0.12104156  1  1.5792  0  0.206939  0.543658  0  4.214304  0
C  C46  1  0.51190535  0.11936243  0.38389580  1  1.595052  0  0.208085  0.546536  0  4.212782  0
C  C47  1  0.53336572  0.11513308  0.61731918  1  1.582192  0  0.203567  0.535022  0  4.232542  0
C  C48  1  0.47723474  0.38008477  0.11016588  1  1.49111  0  0.195303  0.657871  0  4.184335  0
C  C49  1  0.52354583  0.38895094  0.87313178  1  1.527432  0  0.196681  0.657509  0  4.184911  0
C  C50  1  0.52730822  0.89275192  0.62331904  1  1.470426  0  0.193538  0.649768  0  4.189363  0
C  C51  1  0.48166735  0.88152482  0.38316721  1  1.50565  0  0.195106  0.660095  0  4.175774  0
C  C52  1  0.64294582  0.30211622  0.76479886  1  0.389071  0  0.089333  0.324185  0  4.045276  0
C  C53  1  0.59090483  0.26825821  0.19354844  1  0.419753  0  0.089327  0.323718  0  4.049246  0
C  C54  1  0.59013764  0.79517369  0.27120982  1  0.465312  0  0.09016  0.32421  0  4.048082  0
C  C55  1  0.63343480  0.80472488  0.74012160  1  0.403618  0  0.087778  0.321588  0  4.052878  0
C  C56  1  0.52941082  0.32697455  0.80538488  1  0.018486  0  -0.139718  -0.416714  0  3.910956  0
C  C57  1  0.47962244  0.31120571  0.17072556  1  0.036835  0  -0.140677  -0.417366  0  3.90707  0
C  C58  1  0.47983263  0.81688349  0.31756082  1  0.01567  0  -0.139446  -0.411405  0  3.8912  0
C  C59  1  0.52664575  0.82846132  0.68895884  1  0.067661  0  -0.141308  -0.41579  0  3.909642  0
C  C60  1  0.58027851  0.73138015  0.20552793  1  -0.028525  0  -0.124096  -0.324693  0  4.027865  0
C  C61  1  0.61606047  0.73786042  0.80179061  1  0.030827  0  -0.123616  -0.324676  0  4.01306  0
C  C62  1  0.63076031  0.23905033  0.69778856  1  0.026041  0  -0.124295  -0.33039  0  4.027049  0
C  C63  1  0.58416075  0.20195281  0.25649719  1  0.045884  0  -0.120328  -0.3195  0  4.01468  0
C  C64  1  0.49230241  0.66223232  0.19921038  1  0.501614  0  0.084579  0.138656  0  3.999245  0
C  C65  1  0.51810375  0.67311115  0.80167189  1  0.500491  0  0.086125  0.142484  0  3.984677  0
C  C66  1  0.54217074  0.17000156  0.69632396  1  0.488118  0  0.084954  0.139787  0  4.003736  0
C  C67  1  0.50569003  0.19536758  0.32784716  1  0.478498  0  0.084422  0.137536  0  3.991709  0
C  C68  1  0.06467176  0.42984411  0.98870779  1  0.66768  0  0.125835  0.168554  0  3.853729  0
C  C69  1  0.07427760  0.93163745  0.51016855  1  0.667854  0  0.127923  0.169992  0  3.847337  0
C  C70  1  0.91340899  0.43752053  0.98448090  1  0.698957  0  0.125184  0.174096  0  3.828405  0
C  C71  1  0.92348175  0.93853894  0.51796467  1  0.672738  0  0.128376  0.176283  0  3.824272  0
C  C72  1  0.88941456  0.30654410  0.74488873  1  0.389016  0  -0.134422  -0.173374  0  3.928386  0
C  C73  1  0.83523808  0.24966722  0.18603250  1  0.396911  0  -0.133721  -0.1693  0  3.938696  0
C  C74  1  0.83507018  0.81033750  0.24254107  1  0.415996  0  -0.134589  -0.17139  0  3.940564  0
C  C75  1  0.87454211  0.81921509  0.78563485  1  0.372964  0  -0.134006  -0.172171  0  3.937953  0
C  C76  1  0.34896382  0.55750905  0.27042410  1  0.378371  0  -0.136879  -0.176284  0  3.88867  0
C  C77  1  0.36018361  0.58126241  0.71893100  1  0.328425  0  -0.13581  -0.176361  0  3.887809  0
C  C78  1  0.41918872  0.06589748  0.78036057  1  0.34912  0  -0.137516  -0.176685  0  3.88117  0
C  C79  1  0.39415191  0.26829847  0.43744487  1  0.362844  0  -0.138198  -0.176144  0  3.894983  0
N  N80  1  0.15349298  0.49095625  0.97680805  1  -1.178052  0  -0.432536  -0.376477  0  3.268316  0
N  N81  1  0.16268742  0.99421604  0.51482179  1  -1.15637  0  -0.431443  -0.37163  0  3.267976  0
N  N82  1  0.85692389  0.49944755  0.01575465  1  -1.183506  0  -0.430985  -0.372965  0  3.236874  0
N  N83  1  0.86182258  0.99854747  0.48523107  1  -1.182448  0  -0.429736  -0.369533  0  3.244471  0
O  O84  1  0.39833312  0.58614393  0.90210769  1  -1.153825  0  -0.317691  -0.542374  0  2.321205  0
O  O85  1  0.38815038  0.57450656  0.09009498  1  -1.156634  0  -0.315389  -0.541331  0  2.327173  0
O  O86  1  0.39819021  0.09173122  0.41637829  1  -1.163455  0  -0.315889  -0.539622  0  2.325842  0
O  O87  1  0.41360480  0.08182428  0.59829260  1  -1.15992  0  -0.314431  -0.541409  0  2.333474  0
O  O88  1  0.63396119  0.59672561  0.90753842  1  -1.146927  0  -0.319184  -0.532688  0  2.315487  0
O  O89  1  0.62244331  0.60007706  0.09268719  1  -1.156576  0  -0.324604  -0.537881  0  2.30834  0
O  O90  1  0.62906575  0.08982689  0.39359625  1  -1.156485  0  -0.322258  -0.536459  0  2.293162  0
O  O91  1  0.64407269  0.10801471  0.57639612  1  -1.156819  0  -0.323867  -0.541635  0  2.306741  0
O  O92  1  0.35760096  0.39588557  0.07885292  1  -1.159347  0  -0.346114  -0.584023  0  2.247462  0
O  O93  1  0.40141146  0.40843374  0.89242970  1  -1.159798  0  -0.343216  -0.578956  0  2.265736  0
O  O94  1  0.40702399  0.90497730  0.59058430  1  -1.152763  0  -0.342132  -0.577488  0  2.281733  0
O  O95  1  0.36361510  0.90685059  0.40366178  1  -1.161107  0  -0.347788  -0.579958  0  2.237692  0
O  O96  1  0.59045232  0.42201139  0.09302275  1  -1.167737  0  -0.331793  -0.578348  0  2.350242  0
O  O97  1  0.63553236  0.42026811  0.90923056  1  -1.177401  0  -0.326042  -0.572371  0  2.355096  0
O  O98  1  0.64031973  0.93281278  0.60145636  1  -1.168176  0  -0.331363  -0.576938  0  2.321843  0
O  O99  1  0.59765083  0.90915161  0.41724893  1  -1.167468  0  -0.330847  -0.574287  0  2.358781  0
O  O100  1  0.77212855  0.33851053  0.78440371  1  -1.047683  0  -0.184105  -0.157363  0  2.546225  0
O  O101  1  0.71396635  0.28508526  0.15307379  1  -1.054197  0  -0.185157  -0.151374  0  2.546237  0
O  O102  1  0.71629545  0.83801729  0.28368181  1  -1.047012  0  -0.184379  -0.148303  0  2.556095  0
O  O103  1  0.76153425  0.84635161  0.73480841  1  -1.057124  0  -0.18667  -0.159463  0  2.553083  0
O  O104  1  0.39256038  0.64377556  0.25735925  1  -1.070903  0  -0.180296  -0.133847  0  2.577424  0
O  O105  1  0.41661711  0.66398861  0.74023265  1  -1.081851  0  -0.176621  -0.129091  0  2.593269  0
O  O106  1  0.45360881  0.15220901  0.76115301  1  -1.077798  0  -0.184005  -0.139583  0  2.583946  0
O  O107  1  0.41592768  0.25264314  0.34739481  1  -1.067903  0  -0.183271  -0.139653  0  2.579174  0
