# generated using pymatgen
data_ZnH30C36(N4O5)2
_symmetry_space_group_name_H-M   'P 1'
_cell_length_a   8.11348839
_cell_length_b   9.41858548
_cell_length_c   12.57835110
_cell_angle_alpha   74.09084209
_cell_angle_beta   78.59031470
_cell_angle_gamma   73.61799137
_symmetry_Int_Tables_number   1
_chemical_formula_structural   ZnH30C36(N4O5)2
_chemical_formula_sum   'Zn1 H30 C36 N8 O10'
_cell_volume   879.26514983
_cell_formula_units_Z   1
loop_
 _symmetry_equiv_pos_site_id
 _symmetry_equiv_pos_as_xyz
  1  'x, y, z'
loop_
 _atom_site_type_symbol
 _atom_site_label
 _atom_site_symmetry_multiplicity
 _atom_site_fract_x
 _atom_site_fract_y
 _atom_site_fract_z
 _atom_site_occupancy
 _atom_site_hle17_bader_spin_density
 _atom_site_hle17_ddec_charge
 _atom_site_hle17_ddec_spin_density
 _atom_site_hle17_ddec_sum_bond_order
 _atom_site_hle17_magmom
 _atom_site_hse06_10hf_bader_spin_density
 _atom_site_hse06_10hf_ddec_charge
 _atom_site_hse06_10hf_ddec_spin_density
 _atom_site_hse06_10hf_ddec_sum_bond_order
 _atom_site_hse06_10hf_magmom
 _atom_site_hse06_bader_spin_density
 _atom_site_hse06_ddec_charge
 _atom_site_hse06_ddec_spin_density
 _atom_site_hse06_ddec_sum_bond_order
 _atom_site_hse06_magmom
 _atom_site_pbe_bader_spin_density
 _atom_site_pbe_cm5_charge
 _atom_site_pbe_ddec_charge
 _atom_site_pbe_ddec_spin_density
 _atom_site_pbe_ddec_sum_bond_order
 _atom_site_pbe_magmom
Zn  Zn0  1  0.99999238  0.00000358  0.99999850  1  0  0.933782  0  1.808551  0  0  0.746885  0  2.235862  0  0  0.791852  0  2.19305  0  0  0.675222  0.715572  0  2.264851  0
H  H1  1  0.02555313  0.47227343  0.70973677  1  0  0.285632  0  0.94727  0  0  0.26501  0  1.020262  0  0  0.272766  0  1.014311  0  0  0.301537  0.259412  0  1.024563  0
H  H2  1  0.97445635  0.52772673  0.29025668  1  0  0.285583  0  0.947299  0  0  0.264984  0  1.020195  0  0  0.272738  0  1.014316  0  0  0.301496  0.259381  0  1.024569  0
H  H3  1  0.69752273  0.07550421  0.94728385  1  0  0.304103  0  0.937701  0  0  0.288684  0  1.002379  0  0  0.295763  0  0.996913  0  0  0.289532  0.283555  0  1.00634  0
H  H4  1  0.30246056  0.92450772  0.05271160  1  0  0.304059  0  0.937694  0  0  0.288761  0  1.002158  0  0  0.295837  0  0.996768  0  0  0.289578  0.283622  0  1.006216  0
H  H5  1  0.73527312  0.88757198  0.99259821  1  0  0.294943  0  0.898695  0  0  0.286081  0  0.95483  0  0  0.290715  0  0.952757  0  0  0.298238  0.28275  0  0.956379  0
H  H6  1  0.26470874  0.11244383  0.00738878  1  0  0.294731  0  0.89879  0  0  0.285897  0  0.954935  0  0  0.290531  0  0.952861  0  0  0.298193  0.282568  0  0.956476  0
H  H7  1  0.99306779  0.68239383  0.99229754  1  0  0.071249  0  0.967858  0  0  0.079503  0  1.033801  0  0  0.082224  0  1.031266  0  0  0.111596  0.077538  0  1.035697  0
H  H8  1  0.00691008  0.31761494  0.00770255  1  0  0.071197  0  0.967948  0  0  0.079467  0  1.033888  0  0  0.082256  0  1.031245  0  0  0.111606  0.077512  0  1.035747  0
H  H9  1  0.06304583  0.51616798  0.85807810  1  0  0.104223  0  0.973352  0  0  0.111213  0  1.039994  0  0  0.115059  0  1.037464  0  0  0.107247  0.108541  0  1.041835  0
H  H10  1  0.93694542  0.48383087  0.14192328  1  0  0.104183  0  0.973382  0  0  0.111197  0  1.039974  0  0  0.11504  0  1.037477  0  0  0.107245  0.108549  0  1.041818  0
H  H11  1  0.22330943  0.88304008  0.60582451  1  0  0.121547  0  0.952038  0  0  0.125847  0  1.020233  0  0  0.130408  0  1.017078  0  0  0.116298  0.122628  0  1.022396  0
H  H12  1  0.77670938  0.11694885  0.39417988  1  0  0.12151  0  0.951985  0  0  0.125788  0  1.02023  0  0  0.130351  0  1.017077  0  0  0.116262  0.122572  0  1.022383  0
H  H13  1  0.13590058  0.03946024  0.74910719  1  0  0.082335  0  0.966554  0  0  0.089167  0  1.03419  0  0  0.091108  0  1.0337  0  0  0.114865  0.087904  0  1.034283  0
H  H14  1  0.86410491  0.96053657  0.25089229  1  0  0.082299  0  0.966586  0  0  0.089128  0  1.0342  0  0  0.091068  0  1.033736  0  0  0.114859  0.087868  0  1.034305  0
H  H15  1  0.91445296  0.31617603  0.64127262  1  0  0.107745  0  0.947644  0  0  0.118993  0  1.005174  0  0  0.121214  0  1.004625  0  0  0.106348  0.117086  0  1.005774  0
H  H16  1  0.08554792  0.68382921  0.35872046  1  0  0.10778  0  0.9477  0  0  0.119029  0  1.005249  0  0  0.121244  0  1.00469  0  0  0.10638  0.117116  0  1.005844  0
H  H17  1  0.96843684  0.12554296  0.53054744  1  0  0.117589  0  0.956874  0  0  0.123481  0  1.025455  0  0  0.127277  0  1.023161  0  0  0.10602  0.12096  0  1.026576  0
H  H18  1  0.03158126  0.87445411  0.46945077  1  0  0.117542  0  0.956955  0  0  0.123527  0  1.025403  0  0  0.127305  0  1.023167  0  0  0.10606  0.121005  0  1.026531  0
H  H19  1  0.45910258  0.23191112  0.38057897  1  0  0.106465  0  0.971734  0  0  0.116391  0  1.033866  0  0  0.118827  0  1.033663  0  0  0.101484  0.114512  0  1.034087  0
H  H20  1  0.54091807  0.76808210  0.61942592  1  0  0.106519  0  0.971805  0  0  0.116395  0  1.033976  0  0  0.118837  0  1.033771  0  0  0.101467  0.114519  0  1.034196  0
H  H21  1  0.40738829  0.41771997  0.49237663  1  0  0.126722  0  0.989651  0  0  0.132039  0  1.052849  0  0  0.136198  0  1.049189  0  0  0.107982  0.12935  0  1.055252  0
H  H22  1  0.59262189  0.58228077  0.50762616  1  0  0.126708  0  0.989752  0  0  0.131997  0  1.052983  0  0  0.136157  0  1.049315  0  0  0.107982  0.12931  0  1.055382  0
H  H23  1  0.30768457  0.28442745  0.21681644  1  0  0.120746  0  0.972957  0  0  0.129685  0  1.036084  0  0  0.13272  0  1.034387  0  0  0.103204  0.127502  0  1.037311  0
H  H24  1  0.69231634  0.71556468  0.78319420  1  0  0.120737  0  0.973002  0  0  0.129657  0  1.036183  0  0  0.132694  0  1.034451  0  0  0.103179  0.127476  0  1.037375  0
H  H25  1  0.52304384  0.24831818  0.05135882  1  0  0.111077  0  0.949932  0  0  0.122256  0  1.006273  0  0  0.125416  0  1.004688  0  0  0.102318  0.119939  0  1.007593  0
H  H26  1  0.47693116  0.75168625  0.94864333  1  0  0.111094  0  0.949996  0  0  0.12232  0  1.006246  0  0  0.12548  0  1.004685  0  0  0.102336  0.119997  0  1.007592  0
H  H27  1  0.65637676  0.76462268  0.19099930  1  0  0.104762  0  0.936129  0  0  0.117206  0  0.991969  0  0  0.120157  0  0.990656  0  0  0.10267  0.11496  0  0.993194  0
H  H28  1  0.34361933  0.23537769  0.80898748  1  0  0.104789  0  0.936175  0  0  0.117242  0  0.992  0  0  0.12019  0  0.990678  0  0  0.102695  0.115001  0  0.993211  0
H  H29  1  0.43835577  0.80113262  0.35754556  1  0  0.131276  0  0.936251  0  0  0.142533  0  0.992297  0  0  0.14583  0  0.990427  0  0  0.114007  0.139743  0  0.994553  0
H  H30  1  0.56166326  0.19885888  0.64245194  1  0  0.131262  0  0.936183  0  0  0.142473  0  0.992306  0  0  0.145781  0  0.99042  0  0  0.113971  0.139678  0  0.994564  0
C  C31  1  0.04243517  0.72322790  0.90526192  1  0  0.114749  0  3.726225  0  0  0.084758  0  3.974938  0  0  0.090565  0  3.993965  0  0  0.038032  0.081247  0  3.961749  0
C  C32  1  0.95755364  0.27677676  0.09473798  1  0  0.114793  0  3.725913  0  0  0.084811  0  3.974646  0  0  0.090578  0  3.993598  0  0  0.038062  0.081316  0  3.961407  0
C  C33  1  0.08365728  0.63057789  0.83017694  1  0  -0.129807  0  3.718239  0  0  -0.148458  0  3.962921  0  0  -0.15386  0  3.982719  0  0  -0.080927  -0.145162  0  3.949278  0
C  C34  1  0.91633572  0.36942528  0.16982415  1  0  -0.129751  0  3.718016  0  0  -0.148428  0  3.962704  0  0  -0.153833  0  3.98254  0  0  -0.080901  -0.145152  0  3.949067  0
C  C35  1  0.14890457  0.68752515  0.71971617  1  0  0.019203  0  3.71174  0  0  0.032972  0  3.94597  0  0  0.033416  0  3.964095  0  0  0.014163  0.033216  0  3.932863  0
C  C36  1  0.85109349  0.31247103  0.28028462  1  0  0.019265  0  3.71181  0  0  0.033033  0  3.946048  0  0  0.033469  0  3.964169  0  0  0.014203  0.033273  0  3.932946  0
C  C37  1  0.17071790  0.83607168  0.69070777  1  0  -0.107888  0  3.669094  0  0  -0.131239  0  3.92282  0  0  -0.135051  0  3.939003  0  0  -0.067042  -0.12771  0  3.910234  0
C  C38  1  0.82928776  0.16392604  0.30929550  1  0  -0.107866  0  3.668874  0  0  -0.131192  0  3.9226  0  0  -0.135004  0  3.938783  0  0  -0.067041  -0.127662  0  3.910008  0
C  C39  1  0.12397058  0.92240150  0.77029433  1  0  0.143072  0  3.668753  0  0  0.110622  0  3.918989  0  0  0.118147  0  3.935284  0  0  0.053071  0.10555  0  3.907036  0
C  C40  1  0.87603094  0.07759665  0.22970634  1  0  0.143079  0  3.668634  0  0  0.110638  0  3.91886  0  0  0.118162  0  3.935167  0  0  0.053062  0.105572  0  3.906931  0
C  C41  1  0.20327356  0.59809517  0.63094306  1  0  0.518477  0  3.844538  0  0  0.474695  0  4.127128  0  0  0.503394  0  4.126125  0  0  0.24036  0.455045  0  4.126939  0
C  C42  1  0.79675669  0.40190245  0.36904913  1  0  0.51871  0  3.843801  0  0  0.47494  0  4.126392  0  0  0.503659  0  4.125363  0  0  0.240491  0.455304  0  4.126174  0
C  C43  1  0.15895255  0.37900935  0.57715598  1  0  0.22942  0  3.792704  0  0  0.221176  0  4.046242  0  0  0.226711  0  4.06986  0  0  0.086021  0.217723  0  4.029456  0
C  C44  1  0.84105375  0.62099637  0.42284172  1  0  0.229468  0  3.792732  0  0  0.221129  0  4.046389  0  0  0.226662  0  4.070013  0  0  0.086062  0.217682  0  4.029605  0
C  C45  1  0.03612880  0.29541440  0.58645031  1  0  -0.137077  0  3.739605  0  0  -0.156743  0  3.995745  0  0  -0.159132  0  4.016531  0  0  -0.094017  -0.15291  0  3.979377  0
C  C46  1  0.96387581  0.70458595  0.41354627  1  0  -0.137004  0  3.739501  0  0  -0.156667  0  3.995666  0  0  -0.159054  0  4.016494  0  0  -0.094014  -0.152846  0  3.979361  0
C  C47  1  0.06475247  0.18945930  0.52259111  1  0  -0.180274  0  3.784946  0  0  -0.202721  0  4.046726  0  0  -0.207748  0  4.067702  0  0  -0.108127  -0.199367  0  4.031802  0
C  C48  1  0.93525976  0.81053587  0.47740919  1  0  -0.180304  0  3.784873  0  0  -0.202808  0  4.046616  0  0  -0.207844  0  4.067579  0  0  -0.108173  -0.199456  0  4.031707  0
C  C49  1  0.21660477  0.16611533  0.44758971  1  0  0.252972  0  3.8056  0  0  0.242792  0  4.06861  0  0  0.251186  0  4.087184  0  0  0.073122  0.23534  0  4.057904  0
C  C50  1  0.78341185  0.83388026  0.55241778  1  0  0.253162  0  3.805786  0  0  0.243012  0  4.068683  0  0  0.251434  0  4.087246  0  0  0.073266  0.235532  0  4.057977  0
C  C51  1  0.33918278  0.24901322  0.43741070  1  0  -0.172876  0  3.772793  0  0  -0.192457  0  4.023525  0  0  -0.196703  0  4.044548  0  0  -0.105745  -0.188815  0  4.010353  0
C  C52  1  0.66083292  0.75098393  0.56258947  1  0  -0.173191  0  3.773118  0  0  -0.192754  0  4.023878  0  0  -0.197007  0  4.044879  0  0  -0.105854  -0.189118  0  4.010712  0
C  C53  1  0.30995156  0.35541015  0.50125491  1  0  -0.129391  0  3.724586  0  0  -0.150589  0  3.978012  0  0  -0.153254  0  3.996962  0  0  -0.093395  -0.150758  0  3.966541  0
C  C54  1  0.69005441  0.64459106  0.49874447  1  0  -0.129207  0  3.724617  0  0  -0.150347  0  3.978049  0  0  -0.153011  0  3.997001  0  0  -0.093356  -0.150516  0  3.966567  0
C  C55  1  0.36134778  0.04378766  0.29765756  1  0  0.253686  0  3.794094  0  0  0.244596  0  4.056547  0  0  0.252898  0  4.073867  0  0  0.074642  0.238864  0  4.04488  0
C  C56  1  0.63865987  0.95620553  0.70234463  1  0  0.253746  0  3.794144  0  0  0.244605  0  4.056624  0  0  0.252927  0  4.073946  0  0  0.074687  0.238843  0  4.044954  0
C  C57  1  0.38304354  0.17029482  0.21161662  1  0  -0.180424  0  3.786911  0  0  -0.201963  0  4.040062  0  0  -0.205176  0  4.060703  0  0  -0.106913  -0.199565  0  4.026007  0
C  C58  1  0.61695324  0.82969775  0.78839142  1  0  -0.180374  0  3.786857  0  0  -0.201904  0  4.04006  0  0  -0.20511  0  4.06068  0  0  -0.106858  -0.199511  0  4.025996  0
C  C59  1  0.50497414  0.15002031  0.11851011  1  0  -0.166625  0  3.760907  0  0  -0.18248  0  4.010438  0  0  -0.18694  0  4.032281  0  0  -0.106823  -0.17978  0  3.995991  0
C  C60  1  0.49501099  0.84998350  0.88148973  1  0  -0.166831  0  3.761205  0  0  -0.182667  0  4.01071  0  0  -0.187132  0  4.032575  0  0  -0.10694  -0.179962  0  3.996269  0
C  C61  1  0.60430492  0.00423210  0.11012145  1  0  0.249885  0  3.800068  0  0  0.247197  0  4.051487  0  0  0.252678  0  4.075238  0  0  0.069906  0.243389  0  4.035545  0
C  C62  1  0.39568311  0.99577302  0.88987052  1  0  0.250076  0  3.799957  0  0  0.247299  0  4.051547  0  0  0.252781  0  4.075294  0  0  0.070028  0.243494  0  4.0356  0
C  C63  1  0.58013269  0.87868987  0.19641187  1  0  -0.140735  0  3.727199  0  0  -0.157873  0  3.98081  0  0  -0.161446  0  4.000855  0  0  -0.097772  -0.155562  0  3.967493  0
C  C64  1  0.41985592  0.12131190  0.80357983  1  0  -0.140861  0  3.727234  0  0  -0.157952  0  3.980881  0  0  -0.161521  0  4.0009  0  0  -0.097814  -0.155647  0  3.967545  0
C  C65  1  0.45878594  0.89808345  0.28997314  1  0  -0.142359  0  3.721432  0  0  -0.167195  0  3.974733  0  0  -0.169257  0  3.99348  0  0  -0.092856  -0.165956  0  3.962738  0
C  C66  1  0.54121829  0.10190573  0.71002557  1  0  -0.14225  0  3.721512  0  0  -0.167057  0  3.974851  0  0  -0.169117  0  3.993555  0  0  -0.092808  -0.16582  0  3.962854  0
N  N67  1  0.06111778  0.86714157  0.87669993  1  0  -0.327651  0  3.277935  0  0  -0.24491  0  3.537633  0  0  -0.262616  0  3.555049  0  0  -0.325873  -0.232502  0  3.52511  0
N  N68  1  0.93887677  0.13285836  0.12329754  1  0  -0.327648  0  3.277737  0  0  -0.244932  0  3.537474  0  0  -0.262633  0  3.554893  0  0  -0.325879  -0.232535  0  3.524968  0
N  N69  1  0.12778382  0.48029470  0.64707213  1  0  -0.439085  0  3.37243  0  0  -0.385001  0  3.612153  0  0  -0.40805  0  3.623759  0  0  -0.394201  -0.368642  0  3.603353  0
N  N70  1  0.87221527  0.51970924  0.35292706  1  0  -0.439129  0  3.372683  0  0  -0.384992  0  3.612371  0  0  -0.408047  0  3.624019  0  0  -0.39416  -0.368643  0  3.603617  0
N  N71  1  0.73021148  0.98565193  0.01439469  1  0  -0.660523  0  3.161854  0  0  -0.610106  0  3.40478  0  0  -0.629699  0  3.403611  0  0  -0.604666  -0.596597  0  3.405485  0
N  N72  1  0.26977103  0.01436047  0.98559283  1  0  -0.660234  0  3.161704  0  0  -0.610043  0  3.4048  0  0  -0.629645  0  3.40369  0  0  -0.604717  -0.596529  0  3.405545  0
N  N73  1  0.81714360  0.31792325  0.84704597  1  0  0.694143  0  4.135949  0  0  0.718376  0  4.445017  0  0  0.746639  0  4.449776  0  0  0.102631  0.713088  0  4.422385  0
N  N74  1  0.18283803  0.68208631  0.15295496  1  0  0.693469  0  4.136829  0  0  0.732081  0  4.425824  0  0  0.746215  0  4.450363  0  0  0.102536  0.712845  0  4.422708  0
O  O75  1  0.31033794  0.63526329  0.55004143  1  0  -0.518202  0  1.952514  0  0  -0.4735  0  2.170008  0  0  -0.492711  0  2.16398  0  0  -0.277604  -0.460411  0  2.174494  0
O  O76  1  0.68967033  0.36472682  0.44997637  1  0  -0.51863  0  1.951582  0  0  -0.473945  0  2.169074  0  0  -0.493179  0  2.163046  0  0  -0.277875  -0.460852  0  2.173543  0
O  O77  1  0.23716742  0.05414465  0.39052863  1  0  -0.301001  0  2.359971  0  0  -0.233051  0  2.589711  0  0  -0.251559  0  2.593823  0  0  -0.157405  -0.220147  0  2.587514  0
O  O78  1  0.76285596  0.94583789  0.60948577  1  0  -0.301108  0  2.360174  0  0  -0.233107  0  2.589855  0  0  -0.25167  0  2.594  0  0  -0.157459  -0.22012  0  2.5876  0
O  O79  1  0.96194625  0.21986467  0.86723504  1  0  -0.517314  0  1.829241  0  0  -0.493038  0  2.084996  0  0  -0.511057  0  2.075484  0  0  -0.208647  -0.484914  0  2.086367  0
O  O80  1  0.03803265  0.78013947  0.13276734  1  0  -0.517217  0  1.829559  0  0  -0.497573  0  2.079818  0  0  -0.510936  0  2.075594  0  0  -0.208628  -0.484857  0  2.086423  0
O  O81  1  0.82019720  0.45575892  0.80813618  1  0  -0.448778  0  1.783477  0  0  -0.440816  0  2.001267  0  0  -0.454013  0  1.994006  0  0  -0.178263  -0.436518  0  2.000723  0
O  O82  1  0.17979701  0.54424891  0.19185908  1  0  -0.44837  0  1.78364  0  0  -0.445341  0  1.995734  0  0  -0.453797  0  1.994164  0  0  -0.178192  -0.43637  0  2.000803  0
O  O83  1  0.67827305  0.27645807  0.86431904  1  0  -0.4329  0  1.781106  0  0  -0.426513  0  1.991459  0  0  -0.438933  0  1.984699  0  0  -0.172637  -0.422294  0  1.990309  0
O  O84  1  0.32170356  0.72356047  0.13568661  1  0  -0.43268  0  1.781331  0  0  -0.431208  0  1.985808  0  0  -0.438821  0  1.984824  0  0  -0.172638  -0.422244  0  1.990362  0
