# generated using pymatgen
data_CdH4C8SN10O
_symmetry_space_group_name_H-M   'P 1'
_cell_length_a   7.17329857
_cell_length_b   11.67529297
_cell_length_c   14.72487696
_cell_angle_alpha   89.99912193
_cell_angle_beta   99.70318423
_cell_angle_gamma   90.00194739
_symmetry_Int_Tables_number   1
_chemical_formula_structural   CdH4C8SN10O
_chemical_formula_sum   'Cd4 H16 C32 S4 N40 O4'
_cell_volume   1215.57155296
_cell_formula_units_Z   4
loop_
 _symmetry_equiv_pos_site_id
 _symmetry_equiv_pos_as_xyz
  1  'x, y, z'
loop_
 _atom_site_type_symbol
 _atom_site_label
 _atom_site_symmetry_multiplicity
 _atom_site_fract_x
 _atom_site_fract_y
 _atom_site_fract_z
 _atom_site_occupancy
 _atom_site_hle17_bader_spin_density
 _atom_site_hle17_ddec_charge
 _atom_site_hle17_ddec_spin_density
 _atom_site_hle17_ddec_sum_bond_order
 _atom_site_hle17_magmom
 _atom_site_hse06_10hf_bader_spin_density
 _atom_site_hse06_10hf_ddec_charge
 _atom_site_hse06_10hf_ddec_spin_density
 _atom_site_hse06_10hf_ddec_sum_bond_order
 _atom_site_hse06_10hf_magmom
 _atom_site_hse06_bader_spin_density
 _atom_site_hse06_ddec_charge
 _atom_site_hse06_ddec_spin_density
 _atom_site_hse06_ddec_sum_bond_order
 _atom_site_hse06_magmom
 _atom_site_pbe_bader_spin_density
 _atom_site_pbe_cm5_charge
 _atom_site_pbe_ddec_charge
 _atom_site_pbe_ddec_spin_density
 _atom_site_pbe_ddec_sum_bond_order
 _atom_site_pbe_magmom
Cd  Cd0  1  0.62737884  0.43657539  0.13721580  1  0  1.071923  0  1.858747  0  0  0.880918  0  2.341088  0  0  0.92703  0  2.295218  0  0  0.816206  0.848363  0  2.372397  0
Cd  Cd1  1  0.87261990  0.93657940  0.86278408  1  0  1.07196  0  1.858627  0  0  0.880991  0  2.340896  0  0  0.927088  0  2.295053  0  0  0.816267  0.848412  0  2.372203  0
Cd  Cd2  1  0.37261267  0.56342335  0.86278117  1  0  1.071952  0  1.858756  0  0  0.880961  0  2.341074  0  0  0.927051  0  2.295243  0  0  0.81622  0.848422  0  2.372379  0
Cd  Cd3  1  0.12737700  0.06342534  0.13722017  1  0  1.071941  0  1.858674  0  0  0.880974  0  2.34096  0  0  0.927069  0  2.295122  0  0  0.816221  0.848412  0  2.372265  0
H  H4  1  0.00287035  0.40133368  0.08155503  1  0  0.412864  0  0.886004  0  0  0.374988  0  0.965725  0  0  0.384861  0  0.951346  0  0  0.294114  0.36795  0  0.975965  0
H  H5  1  0.49712926  0.90133617  0.91844621  1  0  0.412789  0  0.886158  0  0  0.374904  0  0.965865  0  0  0.384776  0  0.951485  0  0  0.294094  0.367863  0  0.976109  0
H  H6  1  0.99714931  0.59866078  0.91844790  1  0  0.412842  0  0.886089  0  0  0.374945  0  0.965813  0  0  0.38482  0  0.95143  0  0  0.294095  0.367911  0  0.976048  0
H  H7  1  0.50286211  0.09866086  0.08155414  1  0  0.412865  0  0.88613  0  0  0.374988  0  0.965756  0  0  0.38486  0  0.951378  0  0  0.294113  0.367948  0  0.975998  0
H  H8  1  0.98165062  0.53874566  0.09134189  1  0  0.398131  0  0.919378  0  0  0.35682  0  1.00104  0  0  0.36808  0  0.984739  0  0  0.28248  0.348915  0  1.012463  0
H  H9  1  0.51835719  0.03874687  0.90865409  1  0  0.398116  0  0.919416  0  0  0.356788  0  1.001097  0  0  0.368047  0  0.984798  0  0  0.282487  0.348882  0  1.012522  0
H  H10  1  0.01836338  0.46124623  0.90866053  1  0  0.39798  0  0.919604  0  0  0.356676  0  1.001252  0  0  0.367937  0  0.984951  0  0  0.282443  0.34877  0  1.012676  0
H  H11  1  0.48164421  0.96125359  0.09134378  1  0  0.39811  0  0.919422  0  0  0.356792  0  1.00109  0  0  0.368052  0  0.984791  0  0  0.282492  0.348885  0  1.012516  0
H  H12  1  0.84716884  0.97508288  0.37060592  1  0  0.123407  0  0.970032  0  0  0.128287  0  1.038546  0  0  0.132028  0  1.035779  0  0  0.108321  0.125618  0  1.040494  0
H  H13  1  0.65283167  0.47508753  0.62940179  1  0  0.1234  0  0.970042  0  0  0.128283  0  1.038548  0  0  0.131999  0  1.035814  0  0  0.108336  0.12561  0  1.040496  0
H  H14  1  0.15282414  0.02490901  0.62938983  1  0  0.123411  0  0.969937  0  0  0.128243  0  1.038547  0  0  0.131969  0  1.035789  0  0  0.108305  0.125571  0  1.04049  0
H  H15  1  0.34717631  0.52491806  0.37060959  1  0  0.123446  0  0.970064  0  0  0.128249  0  1.038676  0  0  0.132006  0  1.035882  0  0  0.108292  0.125582  0  1.040623  0
H  H16  1  0.68610352  0.93002431  0.21673029  1  0  0.122167  0  0.969577  0  0  0.127577  0  1.037419  0  0  0.131539  0  1.03451  0  0  0.111148  0.124698  0  1.039614  0
H  H17  1  0.81389499  0.43002674  0.78327293  1  0  0.122138  0  0.969486  0  0  0.127594  0  1.0373  0  0  0.13156  0  1.034387  0  0  0.111157  0.124712  0  1.039516  0
H  H18  1  0.31389093  0.06997357  0.78326423  1  0  0.122031  0  0.969632  0  0  0.127465  0  1.037483  0  0  0.131431  0  1.034562  0  0  0.111119  0.124577  0  1.039694  0
H  H19  1  0.18611021  0.56997885  0.21673683  1  0  0.121897  0  0.969499  0  0  0.127324  0  1.037379  0  0  0.13129  0  1.03446  0  0  0.111067  0.12444  0  1.039591  0
C  C20  1  0.76600564  0.65699183  0.29405039  1  0  0.145262  0  3.779631  0  0  0.133945  0  4.029653  0  0  0.137357  0  4.052211  0  0  0.111602  0.131625  0  4.014451  0
C  C21  1  0.73397842  0.15699327  0.70595082  1  0  0.145189  0  3.779341  0  0  0.133855  0  4.029366  0  0  0.137263  0  4.051923  0  0  0.11155  0.131529  0  4.014166  0
C  C22  1  0.23397195  0.34300006  0.70593988  1  0  0.145155  0  3.779665  0  0  0.133893  0  4.029569  0  0  0.1373  0  4.052132  0  0  0.111466  0.131575  0  4.01437  0
C  C23  1  0.26602683  0.84300890  0.29405759  1  0  0.145178  0  3.779548  0  0  0.133848  0  4.029518  0  0  0.137257  0  4.052074  0  0  0.111476  0.131526  0  4.014317  0
C  C24  1  0.86366537  0.68381305  0.38548821  1  0  0.131873  0  3.824424  0  0  0.126287  0  4.07805  0  0  0.128566  0  4.100547  0  0  0.112383  0.124681  0  4.062847  0
C  C25  1  0.63632054  0.18381866  0.61451330  1  0  0.131947  0  3.824336  0  0  0.126432  0  4.077878  0  0  0.128712  0  4.100377  0  0  0.112456  0.124823  0  4.062677  0
C  C26  1  0.13632352  0.31617969  0.61450309  1  0  0.132102  0  3.824587  0  0  0.126534  0  4.078107  0  0  0.128815  0  4.100607  0  0  0.112463  0.124927  0  4.062902  0
C  C27  1  0.36369039  0.81618693  0.38549495  1  0  0.132182  0  3.824426  0  0  0.126725  0  4.077859  0  0  0.129008  0  4.100352  0  0  0.112601  0.125118  0  4.062658  0
C  C28  1  0.89248976  0.79978600  0.41459074  1  0  -0.025966  0  3.838348  0  0  -0.010154  0  4.075177  0  0  -0.012969  0  4.094566  0  0  0.004405  -0.008437  0  4.062197  0
C  C29  1  0.60749418  0.29978593  0.58540234  1  0  -0.026029  0  3.838552  0  0  -0.010233  0  4.075365  0  0  -0.013052  0  4.094754  0  0  0.004326  -0.008516  0  4.062391  0
C  C30  1  0.10749927  0.20020760  0.58539717  1  0  -0.026127  0  3.838686  0  0  -0.01028  0  4.075423  0  0  -0.013103  0  4.094827  0  0  0.004368  -0.008568  0  4.062446  0
C  C31  1  0.39251681  0.70021881  0.41460455  1  0  -0.026064  0  3.838731  0  0  -0.010271  0  4.075471  0  0  -0.013094  0  4.094879  0  0  0.0043  -0.008561  0  4.062502  0
C  C32  1  0.82502273  0.88510060  0.35177697  1  0  -0.052433  0  3.665705  0  0  -0.084456  0  3.929274  0  0  -0.083004  0  3.945666  0  0  -0.069544  -0.08508  0  3.917929  0
C  C33  1  0.67496793  0.38510260  0.64822599  1  0  -0.052437  0  3.665301  0  0  -0.08444  0  3.928912  0  0  -0.082968  0  3.94531  0  0  -0.069541  -0.085056  0  3.917569  0
C  C34  1  0.17497038  0.11489558  0.64821539  1  0  -0.052433  0  3.665334  0  0  -0.084438  0  3.928936  0  0  -0.08297  0  3.945349  0  0  -0.069436  -0.085056  0  3.917578  0
C  C35  1  0.32503863  0.61490299  0.35178526  1  0  -0.052679  0  3.665662  0  0  -0.084628  0  3.929258  0  0  -0.083185  0  3.945652  0  0  -0.069485  -0.085252  0  3.917918  0
C  C36  1  0.73045697  0.85837701  0.26264457  1  0  -0.06324  0  3.655325  0  0  -0.096167  0  3.92314  0  0  -0.097612  0  3.940315  0  0  -0.075274  -0.095103  0  3.911447  0
C  C37  1  0.76953037  0.35837570  0.73735931  1  0  -0.063173  0  3.655213  0  0  -0.096176  0  3.923111  0  0  -0.09762  0  3.940276  0  0  -0.07526  -0.09512  0  3.911427  0
C  C38  1  0.26952467  0.14162001  0.73735082  1  0  -0.063073  0  3.654923  0  0  -0.09607  0  3.922862  0  0  -0.097511  0  3.940036  0  0  -0.075391  -0.095005  0  3.911156  0
C  C39  1  0.23047195  0.64162903  0.26265155  1  0  -0.062753  0  3.654831  0  0  -0.095755  0  3.922754  0  0  -0.097197  0  3.939937  0  0  -0.07525  -0.094697  0  3.911062  0
C  C40  1  0.69708996  0.74646904  0.23108628  1  0  -0.036547  0  3.731138  0  0  -0.023153  0  3.977201  0  0  -0.024022  0  3.997145  0  0  0.007372  -0.022741  0  3.963777  0
C  C41  1  0.80289262  0.24647431  0.76891864  1  0  -0.036466  0  3.73112  0  0  -0.023071  0  3.977243  0  0  -0.023935  0  3.997187  0  0  0.007409  -0.022653  0  3.963819  0
C  C42  1  0.30288309  0.25352799  0.76891105  1  0  -0.036647  0  3.731028  0  0  -0.02328  0  3.977163  0  0  -0.024149  0  3.997109  0  0  0.007342  -0.022869  0  3.963739  0
C  C43  1  0.19710410  0.75353043  0.23109035  1  0  -0.036569  0  3.731249  0  0  -0.023161  0  3.977305  0  0  -0.024029  0  3.997247  0  0  0.007407  -0.022744  0  3.963881  0
C  C44  1  0.99029912  0.82702097  0.50398817  1  0  0.273621  0  3.74121  0  0  0.255459  0  4.022404  0  0  0.26573  0  4.040491  0  0  0.183331  0.248557  0  4.010276  0
C  C45  1  0.50969765  0.32702582  0.49601505  1  0  0.273553  0  3.741361  0  0  0.255394  0  4.022534  0  0  0.265668  0  4.040623  0  0  0.18329  0.248497  0  4.01041  0
C  C46  1  0.00969407  0.17297177  0.49600216  1  0  0.273544  0  3.741069  0  0  0.255382  0  4.022239  0  0  0.265656  0  4.040329  0  0  0.183318  0.248484  0  4.010112  0
C  C47  1  0.49032025  0.67297891  0.50399655  1  0  0.273548  0  3.741366  0  0  0.255384  0  4.022559  0  0  0.265658  0  4.040649  0  0  0.183313  0.24849  0  4.010432  0
C  C48  1  0.60057293  0.72806824  0.13696636  1  0  0.277092  0  3.770904  0  0  0.245845  0  4.046606  0  0  0.25494  0  4.064697  0  0  0.215756  0.239878  0  4.034253  0
C  C49  1  0.89941774  0.22806918  0.86304124  1  0  0.277149  0  3.770865  0  0  0.245902  0  4.046582  0  0  0.254996  0  4.064671  0  0  0.215844  0.239933  0  4.034232  0
C  C50  1  0.39941439  0.27193136  0.86302887  1  0  0.277075  0  3.771018  0  0  0.245769  0  4.046805  0  0  0.254865  0  4.064894  0  0  0.215756  0.239804  0  4.034455  0
C  C51  1  0.10057593  0.77193470  0.13697290  1  0  0.277031  0  3.771016  0  0  0.245782  0  4.046716  0  0  0.254879  0  4.064804  0  0  0.215828  0.239812  0  4.034367  0
S  S52  1  0.86006164  0.47927452  0.37280658  1  0  0.574935  0  2.913031  0  0  0.553496  0  3.282432  0  0  0.566213  0  3.287802  0  0  0.451028  0.543945  0  3.279283  0
S  S53  1  0.63993627  0.97927513  0.62719684  1  0  0.575023  0  2.913207  0  0  0.553589  0  3.282613  0  0  0.566303  0  3.287978  0  0  0.451131  0.544034  0  3.279457  0
S  S54  1  0.13993441  0.52071822  0.62718333  1  0  0.574942  0  2.913155  0  0  0.553478  0  3.282556  0  0  0.566191  0  3.287928  0  0  0.451077  0.543928  0  3.279412  0
S  S55  1  0.36005623  0.02073047  0.37281109  1  0  0.574944  0  2.913022  0  0  0.553505  0  3.282453  0  0  0.566221  0  3.287815  0  0  0.451  0.543954  0  3.279302  0
N  N56  1  0.34409860  0.40048012  0.18383594  1  0  -0.5225  0  2.631503  0  0  -0.495358  0  2.917499  0  0  -0.515659  0  2.924493  0  0  -0.273582  -0.480952  0  2.912477  0
N  N57  1  0.15590391  0.90047586  0.81616352  1  0  -0.52236  0  2.631913  0  0  -0.495207  0  2.9179  0  0  -0.515499  0  2.924894  0  0  -0.273516  -0.480804  0  2.912874  0
N  N58  1  0.65589428  0.59952205  0.81616251  1  0  -0.522621  0  2.631493  0  0  -0.495438  0  2.917545  0  0  -0.515742  0  2.924538  0  0  -0.273617  -0.481031  0  2.912525  0
N  N59  1  0.84408776  0.09952717  0.18382938  1  0  -0.522359  0  2.631698  0  0  -0.495266  0  2.917773  0  0  -0.515556  0  2.92476  0  0  -0.273518  -0.480863  0  2.912752  0
N  N60  1  0.30414236  0.30664742  0.20478721  1  0  0.424777  0  4.255031  0  0  0.454709  0  4.535062  0  0  0.472518  0  4.565797  0  0  0.088562  0.44262  0  4.514029  0
N  N61  1  0.19584560  0.80665073  0.79521724  1  0  0.424601  0  4.255071  0  0  0.454478  0  4.535168  0  0  0.472287  0  4.565911  0  0  0.088452  0.442389  0  4.514132  0
N  N62  1  0.69585030  0.69336160  0.79521666  1  0  0.424742  0  4.255359  0  0  0.454588  0  4.535489  0  0  0.472399  0  4.566223  0  0  0.088512  0.442498  0  4.514459  0
N  N63  1  0.80414588  0.19335572  0.20478040  1  0  0.424674  0  4.254976  0  0  0.454581  0  4.535039  0  0  0.472389  0  4.565775  0  0  0.088504  0.442491  0  4.514009  0
N  N64  1  0.26046380  0.21506123  0.22769172  1  0  -0.484928  0  2.618793  0  0  -0.46572  0  2.900709  0  0  -0.483712  0  2.908318  0  0  -0.262991  -0.45283  0  2.89528  0
N  N65  1  0.23951690  0.71505436  0.77231364  1  0  -0.48491  0  2.618306  0  0  -0.465655  0  2.900267  0  0  -0.483646  0  2.907867  0  0  -0.262978  -0.452767  0  2.89484  0
N  N66  1  0.73952011  0.78494693  0.77231814  1  0  -0.484776  0  2.619175  0  0  -0.46554  0  2.901158  0  0  -0.483519  0  2.908747  0  0  -0.262893  -0.452645  0  2.895722  0
N  N67  1  0.76047594  0.28494695  0.22768548  1  0  -0.484976  0  2.618555  0  0  -0.465728  0  2.900488  0  0  -0.483725  0  2.9081  0  0  -0.263018  -0.452838  0  2.895061  0
N  N68  1  0.75514522  0.54277299  0.27956521  1  0  -0.412628  0  3.014879  0  0  -0.354957  0  3.299415  0  0  -0.369164  0  3.311533  0  0  -0.310179  -0.34513  0  3.291367  0
N  N69  1  0.74484989  0.04277244  0.72043099  1  0  -0.412611  0  3.015091  0  0  -0.354971  0  3.299674  0  0  -0.36917  0  3.311788  0  0  -0.310226  -0.34514  0  3.291615  0
N  N70  1  0.24484506  0.45722232  0.72042689  1  0  -0.412513  0  3.014804  0  0  -0.354835  0  3.299291  0  0  -0.369031  0  3.311398  0  0  -0.310099  -0.345012  0  3.291254  0
N  N71  1  0.25514843  0.95722887  0.27957340  1  0  -0.412515  0  3.014919  0  0  -0.354873  0  3.29947  0  0  -0.36907  0  3.311579  0  0  -0.310115  -0.345046  0  3.291424  0
N  N72  1  0.92258885  0.59058873  0.43591378  1  0  -0.388341  0  2.94133  0  0  -0.365888  0  3.238973  0  0  -0.375251  0  3.251848  0  0  -0.298886  -0.359112  0  3.230248  0
N  N73  1  0.57739117  0.09059541  0.56408944  1  0  -0.388426  0  2.941386  0  0  -0.365964  0  3.238935  0  0  -0.375331  0  3.251815  0  0  -0.298927  -0.359192  0  3.23021  0
N  N74  1  0.07740426  0.40940230  0.56407858  1  0  -0.388441  0  2.941388  0  0  -0.365959  0  3.238934  0  0  -0.375322  0  3.251802  0  0  -0.298911  -0.35918  0  3.230209  0
N  N75  1  0.42260701  0.90941189  0.43591833  1  0  -0.388542  0  2.941314  0  0  -0.366124  0  3.238892  0  0  -0.375491  0  3.251772  0  0  -0.298951  -0.359343  0  3.230157  0
N  N76  1  0.07259343  0.85178996  0.57668479  1  0  -0.35986  0  2.581447  0  0  -0.344535  0  2.812447  0  0  -0.354674  0  2.825573  0  0  -0.28706  -0.337823  0  2.803683  0
N  N77  1  0.42742120  0.35179972  0.42331009  1  0  -0.359793  0  2.581122  0  0  -0.344485  0  2.812138  0  0  -0.354629  0  2.825269  0  0  -0.287001  -0.33777  0  2.803367  0
N  N78  1  0.92740845  0.14819679  0.42330089  1  0  -0.359763  0  2.581131  0  0  -0.344466  0  2.812177  0  0  -0.35461  0  2.825315  0  0  -0.287028  -0.337743  0  2.803387  0
N  N79  1  0.57261113  0.64820417  0.57669535  1  0  -0.359762  0  2.58135  0  0  -0.344453  0  2.812371  0  0  -0.354593  0  2.825505  0  0  -0.286985  -0.337727  0  2.803578  0
N  N80  1  0.53755099  0.81616985  0.08046844  1  0  -0.28618  0  3.029364  0  0  -0.241412  0  3.297533  0  0  -0.253536  0  3.311463  0  0  -0.196748  -0.233231  0  3.288155  0
N  N81  1  0.96249843  0.31617300  0.91952662  1  0  -0.286136  0  3.029769  0  0  -0.241338  0  3.297884  0  0  -0.253463  0  3.311818  0  0  -0.196738  -0.233162  0  3.288515  0
N  N82  1  0.46247347  0.18383146  0.91952067  1  0  -0.286201  0  3.029626  0  0  -0.241375  0  3.297766  0  0  -0.253502  0  3.311699  0  0  -0.196784  -0.233193  0  3.288386  0
N  N83  1  0.03753964  0.68382917  0.08047731  1  0  -0.286346  0  3.029367  0  0  -0.241572  0  3.297544  0  0  -0.253698  0  3.311469  0  0  -0.196891  -0.233397  0  3.28818  0
N  N84  1  0.46235118  0.76997795  0.00013025  1  0  -0.072309  0  3.007907  0  0  -0.061442  0  3.294718  0  0  -0.06168  0  3.308748  0  0  -0.084289  -0.061041  0  3.285265  0
N  N85  1  0.03771173  0.26998072  0.99986522  1  0  -0.07238  0  3.008085  0  0  -0.061516  0  3.294871  0  0  -0.061753  0  3.308901  0  0  -0.084306  -0.061121  0  3.285422  0
N  N86  1  0.53768473  0.23002251  0.99985650  1  0  -0.072303  0  3.008113  0  0  -0.061465  0  3.294932  0  0  -0.061704  0  3.308965  0  0  -0.084251  -0.061063  0  3.285474  0
N  N87  1  0.96233490  0.73001802  0.00013745  1  0  -0.072173  0  3.007563  0  0  -0.061314  0  3.294371  0  0  -0.06155  0  3.308399  0  0  -0.084288  -0.06092  0  3.284923  0
N  N88  1  0.47721175  0.65721516  0.00643926  1  0  -0.111456  0  3.141963  0  0  -0.071103  0  3.445598  0  0  -0.078497  0  3.46091  0  0  -0.103849  -0.065891  0  3.43509  0
N  N89  1  0.02280071  0.15721426  0.99356395  1  0  -0.111552  0  3.141906  0  0  -0.071201  0  3.445565  0  0  -0.078597  0  3.460876  0  0  -0.103896  -0.065983  0  3.435046  0
N  N90  1  0.52280126  0.34278444  0.99355219  1  0  -0.111354  0  3.141942  0  0  -0.070991  0  3.445559  0  0  -0.078386  0  3.460869  0  0  -0.103774  -0.065776  0  3.43505  0
N  N91  1  0.97720174  0.84278362  0.00644352  1  0  -0.111424  0  3.141586  0  0  -0.071069  0  3.445214  0  0  -0.078467  0  3.460526  0  0  -0.103764  -0.065848  0  3.434694  0
N  N92  1  0.56277066  0.62795379  0.09136133  1  0  -0.291242  0  3.083316  0  0  -0.237908  0  3.3687  0  0  -0.252749  0  3.384214  0  0  -0.220167  -0.227805  0  3.358028  0
N  N93  1  0.93719275  0.12795482  0.90864736  1  0  -0.291231  0  3.083167  0  0  -0.237945  0  3.368624  0  0  -0.252783  0  3.384135  0  0  -0.220245  -0.22784  0  3.357943  0
N  N94  1  0.43720954  0.37204581  0.90863461  1  0  -0.291326  0  3.08334  0  0  -0.237975  0  3.368729  0  0  -0.252814  0  3.384242  0  0  -0.220214  -0.227876  0  3.358064  0
N  N95  1  0.06277398  0.87204735  0.09136637  1  0  -0.291236  0  3.083262  0  0  -0.237917  0  3.368664  0  0  -0.252757  0  3.384179  0  0  -0.220178  -0.227813  0  3.357985  0
O  O96  1  0.92569893  0.46259727  0.10186820  1  0  -0.848399  0  1.973924  0  0  -0.786027  0  2.198255  0  0  -0.80628  0  2.16431  0  0  -0.604149  -0.771619  0  2.22184  0
O  O97  1  0.57429056  0.96260075  0.89812553  1  0  -0.848338  0  1.974062  0  0  -0.785978  0  2.198468  0  0  -0.806232  0  2.164533  0  0  -0.604159  -0.771576  0  2.222054  0
O  O98  1  0.07429301  0.53739462  0.89811794  1  0  -0.848265  0  1.974196  0  0  -0.785901  0  2.198602  0  0  -0.806156  0  2.16466  0  0  -0.604086  -0.771487  0  2.22218  0
O  O99  1  0.42571048  0.03739713  0.10188181  1  0  -0.848395  0  1.974055  0  0  -0.786015  0  2.198352  0  0  -0.806263  0  2.164406  0  0  -0.60417  -0.771609  0  2.221943  0
