# generated using pymatgen
data_Zr3H20C33N3O16
_symmetry_space_group_name_H-M   'P 1'
_cell_length_a   14.22368765
_cell_length_b   14.22460009
_cell_length_c   14.22038312
_cell_angle_alpha   88.66070395
_cell_angle_beta   88.65383752
_cell_angle_gamma   88.61638251
_symmetry_Int_Tables_number   1
_chemical_formula_structural   Zr3H20C33N3O16
_chemical_formula_sum   'Zr6 H40 C66 N6 O32'
_cell_volume   2874.77559973
_cell_formula_units_Z   2
loop_
 _symmetry_equiv_pos_site_id
 _symmetry_equiv_pos_as_xyz
  1  'x, y, z'
loop_
 _atom_site_type_symbol
 _atom_site_label
 _atom_site_symmetry_multiplicity
 _atom_site_fract_x
 _atom_site_fract_y
 _atom_site_fract_z
 _atom_site_occupancy
 _atom_site_pbe_bader_charge
 _atom_site_pbe_bader_spin_density
 _atom_site_pbe_cm5_charge
 _atom_site_pbe_ddec_charge
 _atom_site_pbe_ddec_spin_density
 _atom_site_pbe_ddec_sum_bond_order
 _atom_site_pbe_magmom
Zr  Zr0  1  0.95381981  0.80726225  0.81650356  1  2.630141  0  1.620863  2.378804  0  2.726238  0
Zr  Zr1  1  0.84586723  0.01484444  0.71730228  1  2.632147  0  1.621112  2.378895  0  2.725433  0
Zr  Zr2  1  0.96784710  0.91725368  0.03397687  1  2.625961  0  1.621034  2.378328  0  2.728033  0
Zr  Zr3  1  0.74652693  0.90683542  0.92473515  1  2.63123  0  1.620889  2.378481  0  2.727267  0
Zr  Zr4  1  0.06339062  0.02828074  0.82716969  1  2.629877  0  1.6209  2.378563  0  2.727298  0
Zr  Zr5  1  0.85670932  0.12408399  0.93857499  1  2.626533  0  1.621042  2.378695  0  2.725143  0
H  H6  1  0.20363907  0.53308666  0.16536542  1  0.102552  0  0.11741  0.136153  0  0.986152  0
H  H7  1  0.19528004  0.34979222  0.14678442  1  0.064582  0  0.103911  0.116294  0  1.057295  0
H  H8  1  0.61203710  0.39568659  0.59669782  1  0.096317  0  0.117267  0.136581  0  0.985757  0
H  H9  1  0.62168224  0.57994810  0.61562027  1  0.093557  0  0.104593  0.118455  0  1.042919  0
H  H10  1  0.47229432  0.25501674  0.17403156  1  0.130514  0  0.117475  0.136602  0  0.985932  0
H  H11  1  0.28896900  0.23669188  0.16552948  1  0.097022  0  0.10421  0.116555  0  1.057922  0
H  H12  1  0.33565458  0.68665101  0.58284543  1  0.097676  0  0.117082  0.135997  0  0.986382  0
H  H13  1  0.51978404  0.70650733  0.59288435  1  0.078129  0  0.10465  0.118438  0  1.042256  0
H  H14  1  0.19413557  0.26428345  0.44354382  1  0.091438  0  0.117328  0.136267  0  0.985575  0
H  H15  1  0.17555114  0.25540414  0.26027502  1  0.101781  0  0.104445  0.117033  0  1.057879  0
H  H16  1  0.62546514  0.67266452  0.30542584  1  0.078844  0  0.11727  0.136313  0  0.986441  0
H  H17  1  0.64400060  0.68210475  0.48979908  1  0.105227  0  0.104284  0.11823  0  1.04374  0
H  H18  1  0.77102664  0.83223044  0.74195085  1  0.587852  0  0.319883  0.396724  0  0.899139  0
H  H19  1  0.12001260  0.86082754  0.90959014  1  0.587767  0  0.329875  0.421659  0  0.863494  0
H  H20  1  0.80051748  0.99980676  0.09076167  1  0.604674  0  0.330116  0.421815  0  0.862016  0
H  H21  1  0.93912169  0.18072219  0.77117877  1  0.615732  0  0.329673  0.421289  0  0.864103  0
H  H22  1  0.88893085  0.65196949  0.22233433  1  0.110077  0  0.117964  0.127263  0  0.971513  0
H  H23  1  0.68603110  0.70330991  0.16347475  1  0.031206  0  0.107116  0.124058  0  0.989722  0
H  H24  1  0.78154810  0.79067458  0.49409779  1  0.092348  0  0.106881  0.127941  0  0.994914  0
H  H25  1  0.89198671  0.61933395  0.57760986  1  0.111231  0  0.116386  0.129168  0  0.976266  0
H  H26  1  0.04944695  0.14701417  0.24373521  1  0.089782  0  0.105164  0.123165  0  1.006317  0
H  H27  1  0.92188626  0.31383799  0.17740591  1  0.153253  0  0.117786  0.130414  0  0.974881  0
H  H28  1  0.13034829  0.21240341  0.57217348  1  0.073932  0  0.108288  0.12678  0  0.990454  0
H  H29  1  0.92810275  0.28199017  0.52851182  1  0.071109  0  0.116979  0.12633  0  0.974174  0
H  H30  1  0.19309642  0.74634507  0.61286626  1  0.029631  0  0.107085  0.124237  0  0.990128  0
H  H31  1  0.25096829  0.94945998  0.56143840  1  0.104767  0  0.118094  0.127556  0  0.971699  0
H  H32  1  0.60711252  0.95376517  0.52916011  1  0.088135  0  0.116516  0.129409  0  0.976223  0
H  H33  1  0.52250986  0.84450916  0.70068778  1  0.090719  0  0.106901  0.127857  0  0.994938  0
H  H34  1  0.27229719  0.11031720  0.05723994  1  0.083456  0  0.105013  0.122807  0  1.006664  0
H  H35  1  0.20637983  0.98289529  0.22423146  1  0.092953  0  0.117417  0.129494  0  0.974782  0
H  H36  1  0.60167315  0.19140699  0.12302294  1  0.058258  0  0.108231  0.127062  0  0.99013  0
H  H37  1  0.55720948  0.98904430  0.19142766  1  0.081415  0  0.117185  0.126398  0  0.973873  0
H  H38  1  0.64209789  0.25350719  0.65696084  1  0.078932  0  0.10732  0.124404  0  0.990767  0
H  H39  1  0.59064122  0.31223284  0.85991556  1  0.132131  0  0.11817  0.126942  0  0.971892  0
H  H40  1  0.55835244  0.66750987  0.86351951  1  0.112908  0  0.116586  0.129528  0  0.976026  0
H  H41  1  0.72973759  0.58427312  0.75289660  1  0.067254  0  0.106671  0.127501  0  0.995935  0
H  H42  1  0.25421501  0.26713020  0.89283367  1  0.105798  0  0.117766  0.130443  0  0.974161  0
H  H43  1  0.08696377  0.33304757  0.02003780  1  0.088867  0  0.105167  0.123027  0  1.006393  0
H  H44  1  0.22112011  0.61845128  0.89915673  1  0.127534  0  0.116753  0.125378  0  0.975007  0
H  H45  1  0.15077966  0.66131327  0.10136532  1  0.028003  0  0.108271  0.126727  0  0.989687  0
C  C46  1  0.26414046  0.53409150  0.02114225  1  0.255559  0  0.076924  0.11177  0  3.923503  0
C  C47  1  0.23534617  0.49434467  0.10748311  1  0.01277  0  -0.092814  -0.165506  0  3.975813  0
C  C48  1  0.23107662  0.39674962  0.09759252  1  0.020165  0  -0.101567  -0.188341  0  4.033242  0
C  C49  1  0.26074858  0.37331690  0.00707682  1  0.245997  0  0.078769  0.116795  0  3.912528  0
C  C50  1  0.54620138  0.39552302  0.73840390  1  0.323493  0  0.077918  0.111015  0  3.927883  0
C  C51  1  0.57874172  0.43515930  0.65328244  1  -0.056882  0  -0.094117  -0.166736  0  3.976908  0
C  C52  1  0.58461418  0.53266490  0.66368290  1  -0.026637  0  -0.10231  -0.19112  0  4.037463  0
C  C53  1  0.55307660  0.55597186  0.75370112  1  0.251598  0  0.076341  0.113852  0  3.915054  0
C  C54  1  0.47315479  0.11102269  0.23491125  1  0.246714  0  0.077055  0.112138  0  3.922196  0
C  C55  1  0.43348665  0.19730688  0.20590986  1  -0.10397  0  -0.092322  -0.164802  0  3.976063  0
C  C56  1  0.33588403  0.18757057  0.20151675  1  0.025152  0  -0.102538  -0.189689  0  4.03297  0
C  C57  1  0.31239811  0.09713337  0.23124679  1  0.259901  0  0.078204  0.115162  0  3.913342  0
C  C58  1  0.33482033  0.82830543  0.51696153  1  0.260899  0  0.077589  0.110974  0  3.926941  0
C  C59  1  0.37486644  0.74336857  0.54957507  1  -0.029911  0  -0.09345  -0.166005  0  3.976094  0
C  C60  1  0.47228662  0.75423740  0.55560457  1  -0.034642  0  -0.103074  -0.191275  0  4.038626  0
C  C61  1  0.49516409  0.84427036  0.52399460  1  0.301778  0  0.076246  0.112289  0  3.917164  0
C  C62  1  0.05009381  0.32524121  0.44441627  1  0.252226  0  0.076456  0.117005  0  3.924584  0
C  C63  1  0.13635651  0.29614760  0.40474068  1  -0.030442  0  -0.091809  -0.162646  0  3.972421  0
C  C64  1  0.12646614  0.29150777  0.30714081  1  0.016652  0  -0.102537  -0.190387  0  4.032951  0
C  C65  1  0.03598697  0.32115976  0.28364759  1  0.241531  0  0.078369  0.123223  0  3.91565  0
C  C66  1  0.76738455  0.60727345  0.30537611  1  0.254941  0  0.078477  0.112268  0  3.926755  0
C  C67  1  0.68207582  0.63948225  0.34492561  1  -0.008708  0  -0.093537  -0.165915  0  3.975514  0
C  C68  1  0.69226440  0.64522744  0.44252829  1  0.003399  0  -0.102947  -0.191862  0  4.037443  0
C  C69  1  0.78229894  0.61389745  0.46592022  1  0.248951  0  0.0761  0.112093  0  3.91586  0
C  C70  1  0.07068248  0.71901506  0.98877204  1  1.515993  0  0.215164  0.664092  0  4.157626  0
C  C71  1  0.87628873  0.81249394  0.60868039  1  1.506454  0  0.217809  0.666176  0  4.145069  0
C  C72  1  0.75160827  0.69892131  0.84743292  1  1.558841  0  0.218229  0.667721  0  4.141517  0
C  C73  1  0.14331410  0.85631160  0.70191561  1  1.540871  0  0.223148  0.680144  0  4.127111  0
C  C74  1  0.73140893  0.20431161  0.76687220  1  1.545975  0  0.221653  0.67811  0  4.128496  0
C  C75  1  0.94522836  0.12216633  0.13954983  1  1.541126  0  0.221785  0.67594  0  4.130371  0
C  C76  1  0.63781699  0.93817677  0.72262013  1  1.549293  0  0.218296  0.667737  0  4.142651  0
C  C77  1  0.01798135  0.13175122  0.62923398  1  1.527809  0  0.215276  0.663333  0  4.156364  0
C  C78  1  0.16876176  0.00556540  0.03225511  1  1.571776  0  0.221014  0.675114  0  4.133176  0
C  C79  1  0.79593423  0.79248137  0.11423804  1  1.536199  0  0.221581  0.678139  0  4.129134  0
C  C80  1  0.65861429  0.07905414  0.04199949  1  1.544206  0  0.215938  0.663727  0  4.157811  0
C  C81  1  0.06207945  0.22915634  0.91566104  1  1.529162  0  0.222592  0.676485  0  4.131177  0
C  C82  1  0.81211913  0.65025582  0.22348304  1  -0.112348  0  -0.065886  -0.082478  0  3.981417  0
C  C83  1  0.76238766  0.70834448  0.16497755  1  0.101238  0  -0.100644  -0.235222  0  3.89152  0
C  C84  1  0.82851584  0.75250805  0.54187181  1  -0.019824  0  -0.092743  -0.225233  0  3.868727  0
C  C85  1  0.83904744  0.65752851  0.53630906  1  -0.025534  0  -0.067552  -0.087936  0  3.944899  0
C  C86  1  0.99659051  0.18388060  0.20157339  1  -0.037447  0  -0.089813  -0.215711  0  3.862039  0
C  C87  1  0.98007752  0.27751304  0.21287272  1  -0.080751  0  -0.066977  -0.090141  0  3.94485  0
C  C88  1  0.05366672  0.21300893  0.57553697  1  -0.014975  0  -0.103116  -0.238619  0  3.906919  0
C  C89  1  0.00488957  0.27830591  0.52388010  1  0.006336  0  -0.068192  -0.087219  0  3.986105  0
C  C90  1  0.88787163  0.50469460  0.37739735  1  0.348607  0  0.069422  -0.047837  0  4.142856  0
C  C91  1  0.92939782  0.42848136  0.37320016  1  0.527383  0  0.068776  -0.042972  0  4.153831  0
C  C92  1  0.19422842  0.82274020  0.61780871  1  0.105158  0  -0.100773  -0.235517  0  3.891671  0
C  C93  1  0.25257060  0.87262672  0.55973880  1  -0.081826  0  -0.065827  -0.082771  0  3.981442  0
C  C94  1  0.56540092  0.90127059  0.56749844  1  -0.058041  0  -0.068062  -0.089447  0  3.945318  0
C  C95  1  0.57065274  0.89103906  0.66256915  1  0.005582  0  -0.092348  -0.224213  0  3.86828  0
C  C96  1  0.23030756  0.05735622  0.09407943  1  -0.062914  0  -0.089536  -0.215518  0  3.861623  0
C  C97  1  0.24161055  0.04109613  0.18775995  1  0.005924  0  -0.067062  -0.08929  0  3.944367  0
C  C98  1  0.60481260  0.11469720  0.12328195  1  -0.020713  0  -0.10363  -0.240803  0  3.908969  0
C  C99  1  0.55274024  0.06585449  0.18811970  1  0.022988  0  -0.067924  -0.086447  0  3.987065  0
C  C100  1  0.40628530  0.94901753  0.41439557  1  0.452898  0  0.069793  -0.047119  0  4.144609  0
C  C101  1  0.40207158  0.99032483  0.33807751  1  0.411895  0  0.068866  -0.050792  0  4.146258  0
C  C102  1  0.64711091  0.25494725  0.73335344  1  -0.051669  0  -0.101042  -0.236195  0  3.892776  0
C  C103  1  0.58898902  0.31348400  0.78307944  1  -0.034538  0  -0.065473  -0.080768  0  3.980431  0
C  C104  1  0.59661215  0.62630670  0.81054214  1  -0.036455  0  -0.068442  -0.090364  0  3.944442  0
C  C105  1  0.69160594  0.63202789  0.79987675  1  -0.00039  0  -0.092442  -0.224405  0  3.86843  0
C  C106  1  0.21751335  0.30238985  0.95096682  1  -0.040927  0  -0.067303  -0.091407  0  3.944162  0
C  C107  1  0.12387477  0.29096968  0.96717049  1  -0.011987  0  -0.090506  -0.216039  0  3.862317  0
C  C108  1  0.21719770  0.61354444  0.97595105  1  -0.10621  0  -0.068268  -0.08588  0  3.988323  0
C  C109  1  0.15166347  0.66497240  0.02464281  1  0.087992  0  -0.102599  -0.239283  0  3.907968  0
C  C110  1  0.44350930  0.46750100  0.85879814  1  0.4099  0  0.069808  -0.047573  0  4.146347  0
C  C111  1  0.36729216  0.46318579  0.90024339  1  0.452085  0  0.068499  -0.050058  0  4.147183  0
N  N112  1  0.29541138  0.45754399  0.96418186  1  -1.194557  0  -0.204646  0.04081  0  3.717021  0
N  N113  1  0.51573938  0.47229146  0.79521778  1  -1.167651  0  -0.204609  0.041677  0  3.722216  0
N  N114  1  0.39656121  0.05419375  0.26612891  1  -1.175733  0  -0.20456  0.04212  0  3.715925  0
N  N115  1  0.41130270  0.88543534  0.48660885  1  -1.16985  0  -0.204374  0.042984  0  3.720381  0
N  N116  1  0.99314166  0.35639914  0.36777472  1  -1.189932  0  -0.203971  0.020173  0  3.746526  0
N  N117  1  0.82411991  0.57685102  0.38219358  1  -1.165664  0  -0.204934  0.041939  0  3.720786  0
O  O118  1  0.03419992  0.77649514  0.04830012  1  -1.175082  0  -0.370921  -0.630051  0  2.295854  0
O  O119  1  0.86172727  0.90139222  0.60127605  1  -1.147111  0  -0.345904  -0.618346  0  2.165807  0
O  O120  1  0.84051418  0.69146785  0.83271696  1  -1.178214  0  -0.345932  -0.618826  0  2.166138  0
O  O121  1  0.08929884  0.79479418  0.74072844  1  -1.177095  0  -0.37924  -0.639723  0  2.291467  0
O  O122  1  0.15903371  0.93693770  0.73603183  1  -1.182584  0  -0.362016  -0.627503  0  2.195129  0
O  O123  1  0.70912359  0.76234163  0.89595172  1  -1.18071  0  -0.371387  -0.628956  0  2.299774  0
O  O124  1  0.92485852  0.76990668  0.67199179  1  -1.179238  0  -0.371015  -0.627916  0  2.30185  0
O  O125  1  0.03881968  0.70571316  0.90648966  1  -1.174248  0  -0.360291  -0.622731  0  2.184857  0
O  O126  1  0.96458023  0.94655449  0.76571250  1  -1.194443  0  -0.788183  -1.145465  0  2.12945  0
O  O127  1  0.88583222  0.85582115  0.93534644  1  -1.195817  0  -0.787943  -1.145782  0  2.129172  0
O  O128  1  0.80951470  0.87057013  0.78039725  1  -1.22682  0  -0.689452  -1.056049  0  2.379644  0
O  O129  1  0.05775745  0.88858557  0.90101223  1  -1.214852  0  -0.696304  -1.074463  0  2.377895  0
O  O130  1  0.77035575  0.15047333  0.70518174  1  -1.179116  0  -0.378714  -0.63861  0  2.292039  0
O  O131  1  0.96327205  0.03383235  0.14733615  1  -1.154668  0  -0.349101  -0.623766  0  2.181838  0
O  O132  1  0.63049980  0.92336665  0.81151970  1  -1.172681  0  -0.34607  -0.618873  0  2.164611  0
O  O133  1  0.07760692  0.09498872  0.68645856  1  -1.170039  0  -0.370493  -0.62983  0  2.294725  0
O  O134  1  0.17679161  0.02341253  0.94387380  1  -1.175823  0  -0.348449  -0.623441  0  2.182198  0
O  O135  1  0.73432508  0.83133264  0.06026051  1  -1.174579  0  -0.378895  -0.639011  0  2.293964  0
O  O136  1  0.71603044  0.13858076  0.00546982  1  -1.174077  0  -0.370841  -0.629984  0  2.295668  0
O  O137  1  0.97376639  0.23713946  0.93378992  1  -1.156536  0  -0.348807  -0.623445  0  2.179773  0
O  O138  1  0.64516418  0.99690789  0.00992632  1  -1.177145  0  -0.361169  -0.622976  0  2.183884  0
O  O139  1  0.10111635  0.17235605  0.85720594  1  -1.178356  0  -0.376843  -0.637461  0  2.289976  0
O  O140  1  0.70135827  0.98637660  0.68005311  1  -1.179139  0  -0.371065  -0.628657  0  2.303313  0
O  O141  1  0.87652999  0.82657338  0.12998485  1  -1.181164  0  -0.361108  -0.625985  0  2.196185  0
O  O142  1  0.11211202  0.94708465  0.07136584  1  -1.188305  0  -0.376357  -0.637196  0  2.290216  0
O  O143  1  0.93574243  0.09990567  0.61587463  1  -1.175081  0  -0.360943  -0.623097  0  2.183892  0
O  O144  1  0.76556588  0.22004589  0.84748039  1  -1.177542  0  -0.361482  -0.626471  0  2.194454  0
O  O145  1  0.88691264  0.16139425  0.08272920  1  -1.175946  0  -0.376712  -0.63766  0  2.291112  0
O  O146  1  0.97811019  0.03858718  0.94864325  1  -1.204635  0  -0.778274  -1.146488  0  2.079086  0
O  O147  1  0.79509674  0.02555525  0.85665430  1  -1.194167  0  -0.788054  -1.146071  0  2.131038  0
O  O148  1  0.82817202  0.99128306  0.02844928  1  -1.232644  0  -0.696662  -1.074229  0  2.377595  0
O  O149  1  0.93053807  0.11845464  0.79885318  1  -1.241683  0  -0.696217  -1.074464  0  2.379602  0
