# generated using pymatgen
data_MgH9C11N2ClO6
_symmetry_space_group_name_H-M   'P 1'
_cell_length_a   6.22101368
_cell_length_b   12.35324809
_cell_length_c   16.98800000
_cell_angle_alpha   104.65369968
_cell_angle_beta   90.00000000
_cell_angle_gamma   90.00000000
_symmetry_Int_Tables_number   1
_chemical_formula_structural   MgH9C11N2ClO6
_chemical_formula_sum   'Mg4 H36 C44 N8 Cl4 O24'
_cell_volume   1263.05772728
_cell_formula_units_Z   4
loop_
 _symmetry_equiv_pos_site_id
 _symmetry_equiv_pos_as_xyz
  1  'x, y, z'
loop_
 _atom_site_type_symbol
 _atom_site_label
 _atom_site_symmetry_multiplicity
 _atom_site_fract_x
 _atom_site_fract_y
 _atom_site_fract_z
 _atom_site_occupancy
 _atom_site_hle17_bader_spin_density
 _atom_site_hle17_ddec_charge
 _atom_site_hle17_ddec_spin_density
 _atom_site_hle17_ddec_sum_bond_order
 _atom_site_hle17_magmom
 _atom_site_hse06_10hf_bader_spin_density
 _atom_site_hse06_10hf_ddec_charge
 _atom_site_hse06_10hf_ddec_spin_density
 _atom_site_hse06_10hf_ddec_sum_bond_order
 _atom_site_hse06_10hf_magmom
 _atom_site_hse06_bader_spin_density
 _atom_site_hse06_ddec_charge
 _atom_site_hse06_ddec_spin_density
 _atom_site_hse06_ddec_sum_bond_order
 _atom_site_hse06_magmom
 _atom_site_pbe_bader_charge
 _atom_site_pbe_bader_spin_density
 _atom_site_pbe_cm5_charge
 _atom_site_pbe_ddec_charge
 _atom_site_pbe_ddec_spin_density
 _atom_site_pbe_ddec_sum_bond_order
 _atom_site_pbe_magmom
Mg  Mg0  1  0.30155857  0.60432780  0.90613148  1  0  1.546932  0  1.099165  0  0  1.438486  0  1.357133  0  0  1.462829  0  1.318506  0  1.697092  0  0.830119  1.421226  0  1.384221  0
Mg  Mg1  1  0.80155908  0.89567207  0.09386891  1  0  1.546883  0  1.09926  0  0  1.438474  0  1.357154  0  0  1.462816  0  1.318529  0  1.697095  0  0.830108  1.421215  0  1.384239  0
Mg  Mg2  1  0.69844084  0.39567239  0.09386903  1  0  1.546883  0  1.099277  0  0  1.438472  0  1.357175  0  0  1.462813  0  1.318554  0  1.697092  0  0.830103  1.421214  0  1.384261  0
Mg  Mg3  1  0.19844194  0.10432728  0.90613026  1  0  1.546909  0  1.099236  0  0  1.438501  0  1.357155  0  0  1.462836  0  1.318539  0  1.69714  0  0.830103  1.421246  0  1.384237  0
H  H4  1  0.39031742  0.32364920  0.65406928  1  0  0.110852  0  0.950236  0  0  0.121045  0  1.013093  0  0  0.124838  0  1.010284  0  0.102648  0  0.104571  0.118327  0  1.015131  0
H  H5  1  0.89032114  0.17635131  0.34593075  1  0  0.110858  0  0.950231  0  0  0.121045  0  1.013088  0  0  0.124837  0  1.010279  0  0.10267  0  0.104586  0.118328  0  1.015125  0
H  H6  1  0.60968038  0.67635015  0.34593166  1  0  0.110849  0  0.950237  0  0  0.121027  0  1.013103  0  0  0.124819  0  1.010296  0  0.102649  0  0.104562  0.11831  0  1.015141  0
H  H7  1  0.10968148  0.82364636  0.65406929  1  0  0.110868  0  0.950295  0  0  0.121054  0  1.013139  0  0  0.124845  0  1.010333  0  0.102687  0  0.104576  0.118337  0  1.015177  0
H  H8  1  0.24117452  0.97867470  0.53972008  1  0  0.104507  0  0.960924  0  0  0.109638  0  1.030867  0  0  0.113162  0  1.028904  0  0.097287  0  0.095896  0.10711  0  1.032297  0
H  H9  1  0.74117342  0.52132516  0.46027971  1  0  0.104514  0  0.960911  0  0  0.109642  0  1.030855  0  0  0.113167  0  1.028893  0  0.097294  0  0.095896  0.107114  0  1.032286  0
H  H10  1  0.75882810  0.02132465  0.46027968  1  0  0.10449  0  0.960921  0  0  0.109622  0  1.030859  0  0  0.113145  0  1.028897  0  0.097279  0  0.095891  0.107094  0  1.032288  0
H  H11  1  0.25882599  0.47867252  0.53971915  1  0  0.104552  0  0.960843  0  0  0.109651  0  1.030824  0  0  0.113176  0  1.02886  0  0.097266  0  0.095879  0.107124  0  1.032254  0
H  H12  1  0.98511437  0.18796081  0.77434084  1  0  0.323839  0  0.880102  0  0  0.301974  0  0.947717  0  0  0.310419  0  0.94072  0  0.533885  0  0.322966  0.295978  0  0.952729  0
H  H13  1  0.48511708  0.31204054  0.22565935  1  0  0.323824  0  0.880083  0  0  0.301981  0  0.947686  0  0  0.31043  0  0.94069  0  0.533874  0  0.322942  0.295984  0  0.952699  0
H  H14  1  0.01488503  0.81204022  0.22566159  1  0  0.323824  0  0.880141  0  0  0.301988  0  0.947731  0  0  0.310442  0  0.940734  0  0.533868  0  0.322968  0.295993  0  0.952742  0
H  H15  1  0.51488393  0.68795881  0.77433924  1  0  0.323817  0  0.880123  0  0  0.301973  0  0.947721  0  0  0.310426  0  0.940724  0  0.53386  0  0.322963  0.295977  0  0.952734  0
H  H16  1  0.54969177  0.91878060  0.61301984  1  0  0.089807  0  0.969066  0  0  0.093094  0  1.039708  0  0  0.096201  0  1.038277  0  0.079396  0  0.092362  0.090846  0  1.040852  0
H  H17  1  0.04968965  0.58122010  0.38697893  1  0  0.089847  0  0.968996  0  0  0.093129  0  1.03964  0  0  0.096236  0  1.038208  0  0.079384  0  0.092377  0.090882  0  1.040784  0
H  H18  1  0.45030925  0.08121958  0.38698067  1  0  0.089839  0  0.969027  0  0  0.093127  0  1.039663  0  0  0.096235  0  1.038232  0  0.079397  0  0.092384  0.090881  0  1.040806  0
H  H19  1  0.95030815  0.41877925  0.61301965  1  0  0.08987  0  0.969112  0  0  0.093158  0  1.039744  0  0  0.096265  0  1.038314  0  0.079358  0  0.092401  0.090912  0  1.040886  0
H  H20  1  0.77323090  0.05839470  0.70671933  1  0  0.103383  0  0.974841  0  0  0.110797  0  1.042584  0  0  0.114261  0  1.040273  0  0.101601  0  0.10521  0.108318  0  1.044248  0
H  H21  1  0.27323039  0.44160665  0.29327968  1  0  0.103361  0  0.974829  0  0  0.110781  0  1.042567  0  0  0.114245  0  1.04026  0  0.101599  0  0.105205  0.108299  0  1.044244  0
H  H22  1  0.22677012  0.94160549  0.29328059  1  0  0.103403  0  0.974813  0  0  0.110819  0  1.042553  0  0  0.114284  0  1.040241  0  0.101541  0  0.105224  0.108338  0  1.044226  0
H  H23  1  0.72676741  0.55839186  0.70671875  1  0  0.103384  0  0.974802  0  0  0.110798  0  1.042548  0  0  0.11426  0  1.040241  0  0.10151  0  0.105209  0.108318  0  1.044218  0
H  H24  1  0.48014522  0.62384848  0.04736491  1  0  0.431925  0  0.858335  0  0  0.398682  0  0.930501  0  0  0.409642  0  0.914398  0  0.629551  0  0.302391  0.390887  0  0.94196  0
H  H25  1  0.98014412  0.87615390  0.95263593  1  0  0.431926  0  0.858309  0  0  0.398713  0  0.930467  0  0  0.409671  0  0.914365  0  0.629545  0  0.30239  0.390917  0  0.941927  0
H  H26  1  0.51985258  0.37615338  0.95263590  1  0  0.431896  0  0.858358  0  0  0.398661  0  0.930525  0  0  0.409619  0  0.914426  0  0.629544  0  0.302382  0.390866  0  0.941984  0
H  H27  1  0.01985368  0.12384713  0.04736355  1  0  0.431959  0  0.858283  0  0  0.398738  0  0.930441  0  0  0.4097  0  0.914333  0  0.629545  0  0.302393  0.390942  0  0.941901  0
H  H28  1  0.38883534  0.74232302  0.04865066  1  0  0.43894  0  0.851842  0  0  0.403802  0  0.923938  0  0  0.415418  0  0.906636  0  0.646769  0  0.302968  0.395536  0  0.93626  0
H  H29  1  0.88883585  0.75767851  0.95134827  1  0  0.438944  0  0.851869  0  0  0.403793  0  0.923967  0  0  0.415412  0  0.906661  0  0.646775  0  0.302961  0.395527  0  0.936291  0
H  H30  1  0.61116246  0.25767800  0.95134883  1  0  0.438958  0  0.851831  0  0  0.403817  0  0.923921  0  0  0.415434  0  0.906618  0  0.646769  0  0.302981  0.395551  0  0.936243  0
H  H31  1  0.11116356  0.24232335  0.04865078  1  0  0.438936  0  0.851854  0  0  0.403795  0  0.923952  0  0  0.415411  0  0.90665  0  0.64676  0  0.302957  0.395529  0  0.936274  0
H  H32  1  0.44580516  0.47888170  0.76694741  1  0  0.390717  0  0.93236  0  0  0.345526  0  1.023131  0  0  0.357149  0  1.006223  0  0.628719  0  0.282914  0.337355  0  1.034989  0
H  H33  1  0.94580727  0.02111965  0.23305336  1  0  0.390705  0  0.93235  0  0  0.345511  0  1.023148  0  0  0.357134  0  1.006242  0  0.628692  0  0.2829  0.33734  0  1.035006  0
H  H34  1  0.55418943  0.52112100  0.23305297  1  0  0.390783  0  0.932355  0  0  0.3456  0  1.023058  0  0  0.357223  0  1.006151  0  0.628668  0  0.282929  0.337428  0  1.034916  0
H  H35  1  0.05419213  0.97887970  0.76694640  1  0  0.390699  0  0.932355  0  0  0.345506  0  1.023155  0  0  0.357129  0  1.006249  0  0.628676  0  0.282892  0.337335  0  1.035013  0
H  H36  1  0.22121797  0.51699430  0.73348643  1  0  0.399874  0  0.879933  0  0  0.373824  0  0.954165  0  0  0.380293  0  0.945173  0  0.594595  0  0.294025  0.369224  0  0.959001  0
H  H37  1  0.72121847  0.98300640  0.26651293  1  0  0.399856  0  0.879996  0  0  0.373819  0  0.954171  0  0  0.380288  0  0.945179  0  0.5946  0  0.294034  0.369219  0  0.959028  0
H  H38  1  0.77877823  0.48300673  0.26651305  1  0  0.39992  0  0.879892  0  0  0.373871  0  0.954105  0  0  0.380339  0  0.945114  0  0.594612  0  0.294048  0.36927  0  0.958958  0
H  H39  1  0.27877772  0.01699462  0.73348596  1  0  0.399852  0  0.880019  0  0  0.373814  0  0.954183  0  0  0.380283  0  0.945192  0  0.594622  0  0.294031  0.369215  0  0.959053  0
C  C40  1  0.17793724  0.35458107  0.88156896  1  0  0.709387  0  3.898063  0  0  0.654396  0  4.196664  0  0  0.688873  0  4.184948  0  1.679128  0  0.240969  0.631022  0  4.20411  0
C  C41  1  0.67793775  0.14542781  0.11843203  1  0  0.709164  0  3.89854  0  0  0.654252  0  4.19701  0  0  0.688687  0  4.185368  0  1.679281  0  0.240815  0.630878  0  4.204459  0
C  C42  1  0.82206217  0.64542665  0.11843352  1  0  0.709242  0  3.898333  0  0  0.654328  0  4.19686  0  0  0.688778  0  4.185189  0  1.679198  0  0.240863  0.630947  0  4.20432  0
C  C43  1  0.32206327  0.85457656  0.88156807  1  0  0.709454  0  3.898149  0  0  0.654502  0  4.196717  0  0  0.688968  0  4.185019  0  1.679115  0  0.240962  0.631131  0  4.20416  0
C  C44  1  0.80891158  0.55873910  0.87871105  1  0  0.711777  0  3.891551  0  0  0.654343  0  4.192665  0  0  0.688339  0  4.182137  0  1.663558  0  0.236016  0.631365  0  4.199171  0
C  C45  1  0.30890786  0.94126160  0.12129067  1  0  0.711797  0  3.891576  0  0  0.654385  0  4.192645  0  0  0.688376  0  4.182116  0  1.663582  0  0.236041  0.631405  0  4.19915  0
C  C46  1  0.19108944  0.44126276  0.12129153  1  0  0.711869  0  3.891382  0  0  0.654416  0  4.192499  0  0  0.68841  0  4.181968  0  1.663558  0  0.236066  0.631439  0  4.199005  0
C  C47  1  0.69109155  0.05873775  0.87870733  1  0  0.711932  0  3.891248  0  0  0.654538  0  4.192332  0  0  0.688529  0  4.181797  0  1.663569  0  0.236097  0.631561  0  4.198839  0
C  C48  1  0.72193379  0.28547049  0.74569270  1  0  0.329175  0  3.735984  0  0  0.29574  0  4.004587  0  0  0.308812  0  4.018936  0  0.992114  0  0.219869  0.287288  0  3.994529  0
C  C49  1  0.22193650  0.21453085  0.25430808  1  0  0.329046  0  3.736171  0  0  0.29572  0  4.004612  0  0  0.308785  0  4.018975  0  0.99245  0  0.21982  0.287268  0  3.994556  0
C  C50  1  0.27806562  0.71453136  0.25430988  1  0  0.329138  0  3.736002  0  0  0.295784  0  4.00446  0  0  0.308855  0  4.018823  0  0.992308  0  0.219881  0.287333  0  3.994404  0
C  C51  1  0.77806452  0.78546850  0.74569109  1  0  0.329151  0  3.735981  0  0  0.295759  0  4.004497  0  0  0.308841  0  4.018852  0  0.992336  0  0.219855  0.287307  0  3.994442  0
C  C52  1  0.59624849  0.20165457  0.68819203  1  0  0.024877  0  3.791091  0  0  0.043153  0  4.031604  0  0  0.042503  0  4.052414  0  -0.008482  0  0.000583  0.043313  0  4.017516  0
C  C53  1  0.09624959  0.29834762  0.31180772  1  0  0.024801  0  3.791134  0  0  0.0431  0  4.031549  0  0  0.042455  0  4.052357  0  -0.008296  0  0.000577  0.04326  0  4.017462  0
C  C54  1  0.40375092  0.79834562  0.31180788  1  0  0.024782  0  3.791127  0  0  0.043121  0  4.031495  0  0  0.042476  0  4.052301  0  -0.008496  0  0.000563  0.04328  0  4.017407  0
C  C55  1  0.90374982  0.70165006  0.68819173  1  0  0.024786  0  3.79101  0  0  0.043089  0  4.031462  0  0  0.04244  0  4.052268  0  -0.008269  0  0.000547  0.043249  0  4.017376  0
C  C56  1  0.98359533  0.36073347  0.83159231  1  0  0.021774  0  3.651772  0  0  0.006596  0  3.913476  0  0  0.006912  0  3.929083  0  0.388927  0  0.10154  0.006248  0  3.903214  0
C  C57  1  0.48359643  0.13926621  0.16840874  1  0  0.021949  0  3.651633  0  0  0.006669  0  3.913419  0  0  0.007003  0  3.929038  0  0.389203  0  0.101556  0.00632  0  3.903158  0
C  C58  1  0.01640408  0.63926672  0.16840996  1  0  0.021999  0  3.651466  0  0  0.006642  0  3.913312  0  0  0.006978  0  3.92893  0  0.389014  0  0.101537  0.006296  0  3.903053  0
C  C59  1  0.51640459  0.86073231  0.83158969  1  0  0.021866  0  3.651633  0  0  0.006562  0  3.913506  0  0  0.006886  0  3.929123  0  0.388983  0  0.101523  0.006214  0  3.903243  0
C  C60  1  0.82985833  0.44167777  0.82787129  1  0  0.001282  0  3.723998  0  0  -0.005392  0  3.989638  0  0  -0.007174  0  4.00742  0  0.453813  0  0.089257  -0.004371  0  3.977863  0
C  C61  1  0.32985943  0.05832274  0.17213051  1  0  0.00122  0  3.724079  0  0  -0.005409  0  3.989696  0  0  -0.007185  0  4.007467  0  0.45359  0  0.089265  -0.004388  0  3.977921  0
C  C62  1  0.17014269  0.55832241  0.17213039  1  0  0.001138  0  3.72411  0  0  -0.005404  0  3.989675  0  0  -0.007182  0  4.007447  0  0.453805  0  0.089287  -0.004384  0  3.9779  0
C  C63  1  0.67014159  0.94167745  0.82786764  1  0  0.00123  0  3.724022  0  0  -0.005423  0  3.989706  0  0  -0.007195  0  4.007472  0  0.453869  0  0.089276  -0.004403  0  3.977931  0
C  C64  1  0.51362369  0.00751960  0.62250938  1  0  -0.073359  0  3.797971  0  0  -0.077002  0  4.044669  0  0  -0.078709  0  4.064256  0  -0.039363  0  -0.094802  -0.075914  0  4.031474  0
C  C65  1  0.01362157  0.49248091  0.37749007  1  0  -0.073395  0  3.797905  0  0  -0.077013  0  4.044588  0  0  -0.07872  0  4.064174  0  -0.039366  0  -0.094819  -0.075924  0  4.031392  0
C  C66  1  0.48637893  0.99248058  0.37749054  1  0  -0.073461  0  3.798101  0  0  -0.077103  0  4.04481  0  0  -0.07881  0  4.064398  0  -0.039382  0  -0.094858  -0.076014  0  4.031613  0
C  C67  1  0.98637623  0.50751677  0.62250880  1  0  -0.073388  0  3.798097  0  0  -0.07702  0  4.04477  0  0  -0.078725  0  4.064356  0  -0.039436  0  -0.094819  -0.07593  0  4.031573  0
C  C68  1  0.34043809  0.04017595  0.58127402  1  0  -0.137213  0  3.754958  0  0  -0.16019  0  4.002045  0  0  -0.162364  0  4.021789  0  -0.054401  0  -0.100762  -0.158518  0  3.988608  0
C  C69  1  0.84043859  0.45982372  0.41872528  1  0  -0.137226  0  3.754887  0  0  -0.160189  0  4.001964  0  0  -0.162364  0  4.021709  0  -0.054371  0  -0.10075  -0.158518  0  3.988528  0
C  C70  1  0.65956293  0.95982423  0.41872590  1  0  -0.137125  0  3.754922  0  0  -0.160112  0  4.002012  0  0  -0.162285  0  4.021756  0  -0.054375  0  -0.100734  -0.158441  0  3.988574  0
C  C71  1  0.15956081  0.54017563  0.58127331  1  0  -0.137321  0  3.75503  0  0  -0.160282  0  4.002128  0  0  -0.162457  0  4.021872  0  -0.054388  0  -0.100792  -0.158611  0  3.988692  0
C  C72  1  0.64089555  0.08683147  0.67511921  1  0  -0.098227  0  3.699406  0  0  -0.126534  0  3.948922  0  0  -0.127226  0  3.966871  0  -0.052536  0  -0.091005  -0.125965  0  3.936811  0
C  C73  1  0.14089183  0.41316905  0.32488083  1  0  -0.098155  0  3.699445  0  0  -0.126492  0  3.948945  0  0  -0.127185  0  3.966895  0  -0.052534  0  -0.090992  -0.125924  0  3.936832  0
C  C74  1  0.35910707  0.91316956  0.32488204  1  0  -0.098171  0  3.699499  0  0  -0.126511  0  3.94899  0  0  -0.127204  0  3.96694  0  -0.052456  0  -0.091004  -0.125942  0  3.936876  0
C  C75  1  0.85910597  0.58682947  0.67511819  1  0  -0.098218  0  3.699503  0  0  -0.126542  0  3.949016  0  0  -0.127236  0  3.966967  0  -0.052481  0  -0.091006  -0.125974  0  3.936903  0
C  C76  1  0.29975340  0.15443259  0.59351035  1  0  0.138684  0  3.801554  0  0  0.152094  0  4.067342  0  0  0.154785  0  4.08892  0  0.077244  0  0.009301  0.15001  0  4.052777  0
C  C77  1  0.79975551  0.34556708  0.40649012  1  0  0.138643  0  3.801561  0  0  0.152004  0  4.06742  0  0  0.154693  0  4.089  0  0.07717  0  0.009254  0.149921  0  4.052855  0
C  C78  1  0.70024762  0.84556676  0.40649000  1  0  0.138681  0  3.801578  0  0  0.152107  0  4.067336  0  0  0.154798  0  4.088913  0  0.077195  0  0.009313  0.150023  0  4.052772  0
C  C79  1  0.20024711  0.65442892  0.59350903  1  0  0.138694  0  3.801639  0  0  0.15212  0  4.067392  0  0  0.154812  0  4.088969  0  0.077276  0  0.009327  0.150036  0  4.052829  0
C  C80  1  0.42427651  0.23510329  0.64604168  1  0  -0.149708  0  3.701034  0  0  -0.183783  0  3.951782  0  0  -0.185483  0  3.969848  0  0.000404  0  -0.093804  -0.182412  0  3.939595  0
C  C81  1  0.92427863  0.26489722  0.35395835  1  0  -0.149585  0  3.700988  0  0  -0.183648  0  3.951731  0  0  -0.185346  0  3.969796  0  0.000206  0  -0.093766  -0.182278  0  3.939543  0
C  C82  1  0.57572450  0.76489690  0.35395882  1  0  -0.14968  0  3.700991  0  0  -0.183763  0  3.951697  0  0  -0.185461  0  3.969762  0  0.000447  0  -0.093791  -0.182393  0  3.939512  0
C  C83  1  0.07572399  0.73510213  0.64604141  1  0  -0.149659  0  3.700964  0  0  -0.183739  0  3.951698  0  0  -0.185436  0  3.969761  0  0.00014  0  -0.093776  -0.182368  0  3.939512  0
N  N84  1  0.66956773  0.39365924  0.77432457  1  0  -0.41273  0  3.063113  0  0  -0.365495  0  3.319529  0  0  -0.380576  0  3.334315  0  -1.198845  0  -0.315923  -0.355159  0  3.309395  0
N  N85  1  0.16956883  0.10634378  0.22567651  1  0  -0.412637  0  3.063246  0  0  -0.36545  0  3.31963  0  0  -0.380529  0  3.33442  0  -1.199111  0  -0.315889  -0.355114  0  3.309496  0
N  N86  1  0.33043168  0.60634262  0.22567801  1  0  -0.412638  0  3.063197  0  0  -0.36548  0  3.319588  0  0  -0.380557  0  3.334375  0  -1.199044  0  -0.315928  -0.355144  0  3.309455  0
N  N87  1  0.83043219  0.89365557  0.77432089  1  0  -0.412704  0  3.06323  0  0  -0.365486  0  3.319647  0  0  -0.38057  0  3.334433  0  -1.199057  0  -0.315917  -0.355149  0  3.309514  0
N  N88  1  0.91019893  0.26373334  0.77981736  1  0  -0.322865  0  3.410068  0  0  -0.266316  0  3.64269  0  0  -0.282202  0  3.657335  0  -1.278206  0  -0.36274  -0.255675  0  3.63281  0
N  N89  1  0.41020164  0.23626801  0.22018342  1  0  -0.322903  0  3.410083  0  0  -0.266411  0  3.642697  0  0  -0.282313  0  3.657359  0  -1.278181  0  -0.362732  -0.255769  0  3.63282  0
N  N90  1  0.08980048  0.73626852  0.22018522  1  0  -0.322966  0  3.410006  0  0  -0.266447  0  3.642638  0  0  -0.282367  0  3.657318  0  -1.278224  0  -0.362788  -0.255806  0  3.632759  0
N  N91  1  0.58980099  0.76373134  0.77981516  1  0  -0.322877  0  3.410098  0  0  -0.266326  0  3.642723  0  0  -0.282252  0  3.657403  0  -1.278185  0  -0.362744  -0.255686  0  3.632845  0
Cl  Cl92  1  0.09009625  0.19709946  0.54056812  1  0  -0.105812  0  1.337243  0  0  -0.083313  0  1.562802  0  0  -0.088066  0  1.559445  0  -0.236088  0  0.003502  -0.079768  0  1.564995  0
Cl  Cl93  1  0.59009676  0.30289854  0.45943145  1  0  -0.10585  0  1.337249  0  0  -0.083331  0  1.562819  0  0  -0.088086  0  1.559468  0  -0.236084  0  0.003486  -0.079784  0  1.565012  0
Cl  Cl94  1  0.90990316  0.80290072  0.45943298  1  0  -0.10582  0  1.337275  0  0  -0.083323  0  1.562819  0  0  -0.088075  0  1.559459  0  -0.236093  0  0.003498  -0.079777  0  1.565013  0
Cl  Cl95  1  0.40990426  0.69709914  0.54056800  1  0  -0.105811  0  1.337241  0  0  -0.083316  0  1.562795  0  0  -0.08807  0  1.559438  0  -0.236082  0  0.003495  -0.079768  0  1.564989  0
O  O96  1  0.28654173  0.44165602  0.91398219  1  0  -0.709248  0  2.031273  0  0  -0.648441  0  2.263455  0  0  -0.67251  0  2.25107  0  -1.229041  0  -0.337041  -0.631805  0  2.271667  0
O  O97  1  0.78654706  0.05834031  0.08601707  1  0  -0.70929  0  2.031079  0  0  -0.648458  0  2.263161  0  0  -0.672516  0  2.250792  0  -1.229004  0  -0.337028  -0.631819  0  2.271374  0
O  O98  1  0.71345447  0.55834082  0.08601711  1  0  -0.709294  0  2.031086  0  0  -0.648459  0  2.263179  0  0  -0.67252  0  2.250805  0  -1.228992  0  -0.337019  -0.63182  0  2.271397  0
O  O99  1  0.21345557  0.94165653  0.91398046  1  0  -0.709335  0  2.031245  0  0  -0.648497  0  2.263373  0  0  -0.672562  0  2.250989  0  -1.228983  0  -0.337035  -0.631864  0  2.271587  0
O  O100  1  0.97595831  0.61189091  0.90966546  1  0  -0.712963  0  2.05082  0  0  -0.650688  0  2.28686  0  0  -0.674808  0  2.274157  0  -1.235487  0  -0.341082  -0.633921  0  2.295053  0
O  O101  1  0.47595941  0.88811063  0.09033406  1  0  -0.712967  0  2.050705  0  0  -0.650711  0  2.286711  0  0  -0.67484  0  2.274043  0  -1.235464  0  -0.341117  -0.633945  0  2.294904  0
O  O102  1  0.02403949  0.38811095  0.09033594  1  0  -0.712953  0  2.050651  0  0  -0.650707  0  2.286706  0  0  -0.674816  0  2.273996  0  -1.23546  0  -0.341115  -0.633938  0  2.294889  0
O  O103  1  0.52404161  0.11188956  0.90966350  1  0  -0.712975  0  2.050677  0  0  -0.650724  0  2.286691  0  0  -0.674839  0  2.273996  0  -1.235394  0  -0.341083  -0.633952  0  2.294869  0
O  O104  1  0.22794517  0.25795328  0.88683330  1  0  -0.696123  0  2.041352  0  0  -0.637951  0  2.282555  0  0  -0.660712  0  2.270037  0  -1.228586  0  -0.351028  -0.622091  0  2.290659  0
O  O105  1  0.72793924  0.24203886  0.11316402  1  0  -0.695916  0  2.041909  0  0  -0.637779  0  2.283108  0  0  -0.660517  0  2.27059  0  -1.228744  0  -0.350871  -0.621913  0  2.291194  0
O  O106  1  0.77205585  0.74204105  0.11316907  1  0  -0.695977  0  2.041852  0  0  -0.637831  0  2.283042  0  0  -0.660582  0  2.270534  0  -1.228671  0  -0.350909  -0.621967  0  2.291142  0
O  O107  1  0.27206177  0.75795630  0.88683498  1  0  -0.696128  0  2.041543  0  0  -0.637986  0  2.282809  0  0  -0.660723  0  2.270252  0  -1.228601  0  -0.350998  -0.622122  0  2.290901  0
O  O108  1  0.33968258  0.54224065  0.77119168  1  0  -0.874927  0  1.961932  0  0  -0.823033  0  2.166743  0  0  -0.839362  0  2.138201  0  -1.277488  0  -0.582283  -0.811539  0  2.185139  0
O  O109  1  0.83968470  0.95776004  0.22880886  1  0  -0.874906  0  1.962005  0  0  -0.823049  0  2.166838  0  0  -0.839376  0  2.138299  0  -1.277469  0  -0.58228  -0.811555  0  2.185254  0
O  O110  1  0.66031200  0.45776121  0.22880736  1  0  -0.875069  0  1.962011  0  0  -0.823224  0  2.166745  0  0  -0.839553  0  2.138206  0  -1.277489  0  -0.582324  -0.811726  0  2.185155  0
O  O111  1  0.16031471  0.04224014  0.77119106  1  0  -0.8749  0  1.962043  0  0  -0.823034  0  2.166852  0  0  -0.839359  0  2.138317  0  -1.27748  0  -0.582271  -0.811541  0  2.18528  0
O  O112  1  0.35581661  0.66129254  0.02901700  1  0  -0.884764  0  1.830538  0  0  -0.833438  0  2.023171  0  0  -0.850734  0  1.989708  0  -1.29585  0  -0.610548  -0.821307  0  2.046705  0
O  O113  1  0.85581712  0.83870983  0.97098267  1  0  -0.884732  0  1.830503  0  0  -0.833441  0  2.023041  0  0  -0.850736  0  1.989581  0  -1.295848  0  -0.61053  -0.821308  0  2.046576  0
O  O114  1  0.64418280  0.33870849  0.97098307  1  0  -0.884723  0  1.83053  0  0  -0.833406  0  2.023152  0  0  -0.850701  0  1.98969  0  -1.295844  0  -0.61053  -0.821276  0  2.046684  0
O  O115  1  0.14418229  0.16129203  0.02901637  1  0  -0.884791  0  1.830504  0  0  -0.833507  0  2.023049  0  0  -0.850801  0  1.989587  0  -1.295843  0  -0.610537  -0.821377  0  2.046582  0
O  O116  1  0.62361541  0.60089808  0.88832195  1  0  -0.699787  0  2.050574  0  0  -0.641602  0  2.295949  0  0  -0.664498  0  2.283462  0  -1.232451  0  -0.35345  -0.625603  0  2.303944  0
O  O117  1  0.12361490  0.89910345  0.11167933  1  0  -0.69975  0  2.050688  0  0  -0.641597  0  2.29606  0  0  -0.664486  0  2.283571  0  -1.232481  0  -0.353432  -0.625597  0  2.304054  0
O  O118  1  0.37638400  0.39910127  0.11167899  1  0  -0.699812  0  2.050513  0  0  -0.641623  0  2.295867  0  0  -0.664525  0  2.283402  0  -1.232447  0  -0.353464  -0.625625  0  2.303861  0
O  O119  1  0.87638611  0.10089757  0.88831898  1  0  -0.699889  0  2.050523  0  0  -0.641739  0  2.29588  0  0  -0.664639  0  2.283417  0  -1.232455  0  -0.353527  -0.625743  0  2.30388  0
