# generated using pymatgen
data_CdH8C10S2N2O3
_symmetry_space_group_name_H-M   'P 1'
_cell_length_a   6.54819305
_cell_length_b   10.08018177
_cell_length_c   18.13146731
_cell_angle_alpha   105.14284823
_cell_angle_beta   89.99991109
_cell_angle_gamma   89.99943599
_symmetry_Int_Tables_number   1
_chemical_formula_structural   CdH8C10S2N2O3
_chemical_formula_sum   'Cd4 H32 C40 S8 N8 O12'
_cell_volume   1155.24738081
_cell_formula_units_Z   4
loop_
 _symmetry_equiv_pos_site_id
 _symmetry_equiv_pos_as_xyz
  1  'x, y, z'
loop_
 _atom_site_type_symbol
 _atom_site_label
 _atom_site_symmetry_multiplicity
 _atom_site_fract_x
 _atom_site_fract_y
 _atom_site_fract_z
 _atom_site_occupancy
 _atom_site_pbe_bader_spin_density
 _atom_site_pbe_cm5_charge
 _atom_site_pbe_ddec_charge
 _atom_site_pbe_ddec_spin_density
 _atom_site_pbe_ddec_sum_bond_order
 _atom_site_pbe_magmom
Cd  Cd0  1  0.80911353  0.31734074  0.19365170  1  0  0.665825  0.726605  0  2.366475  0
Cd  Cd1  1  0.30911682  0.18265798  0.30634816  1  0  0.665825  0.726593  0  2.366529  0
Cd  Cd2  1  0.19088239  0.68265804  0.80634691  1  0  0.665858  0.72666  0  2.366508  0
Cd  Cd3  1  0.69087910  0.81734287  0.69365295  1  0  0.665866  0.726648  0  2.366504  0
H  H4  1  0.77971709  0.01779543  0.07408744  1  0  0.110062  0.083033  0  1.017622  0
H  H5  1  0.27970619  0.48220041  0.42591202  1  0  0.110057  0.083041  0  1.017609  0
H  H6  1  0.22028188  0.98220335  0.92591061  1  0  0.110066  0.082988  0  1.017639  0
H  H7  1  0.72028515  0.51779838  0.57409045  1  0  0.110041  0.082956  0  1.017646  0
H  H8  1  0.71779828  0.90986623  0.93323111  1  0  0.107521  0.130786  0  1.01236  0
H  H9  1  0.21779027  0.59013550  0.56676554  1  0  0.107512  0.130782  0  1.012344  0
H  H10  1  0.28220374  0.09013357  0.06676765  1  0  0.107515  0.130778  0  1.012355  0
H  H11  1  0.78220106  0.40986227  0.43323733  1  0  0.107539  0.130766  0  1.012316  0
H  H12  1  0.65840675  0.06752710  0.84885809  1  0  0.104051  0.11545  0  1.016678  0
H  H13  1  0.15840695  0.43247794  0.65114168  1  0  0.104044  0.115461  0  1.016694  0
H  H14  1  0.34159528  0.93247168  0.15113941  1  0  0.104074  0.115494  0  1.016655  0
H  H15  1  0.84159354  0.56751880  0.34885938  1  0  0.104058  0.11547  0  1.016659  0
H  H16  1  0.68562904  0.31860985  0.90283537  1  0  0.110816  0.132017  0  1.03253  0
H  H17  1  0.18562411  0.18139397  0.59716698  1  0  0.110786  0.131995  0  1.032574  0
H  H18  1  0.31437451  0.68138996  0.09716283  1  0  0.110824  0.131988  0  1.032593  0
H  H19  1  0.81437945  0.81860276  0.40283354  1  0  0.110786  0.131957  0  1.032693  0
H  H20  1  0.72431292  0.51774229  0.95007622  1  0  0.10786  0.120788  0  1.042759  0
H  H21  1  0.22430366  0.98225427  0.54992520  1  0  0.10784  0.120712  0  1.042742  0
H  H22  1  0.27569827  0.48226266  0.04992438  1  0  0.107849  0.120756  0  1.042729  0
H  H23  1  0.77570753  0.01773938  0.45007543  1  0  0.107868  0.120792  0  1.042689  0
H  H24  1  0.76697528  0.76206473  0.01449465  1  0  0.10839  0.109779  0  0.995467  0
H  H25  1  0.26697543  0.73793245  0.48550680  1  0  0.108381  0.109787  0  0.99552  0
H  H26  1  0.23302522  0.23793714  0.98550771  1  0  0.108414  0.10979  0  0.995474  0
H  H27  1  0.73302813  0.26206427  0.51449096  1  0  0.108396  0.109743  0  0.995555  0
H  H28  1  0.82656185  0.83422739  0.15812085  1  0  0.10023  0.1091  0  1.049358  0
H  H29  1  0.32655608  0.66577141  0.34187805  1  0  0.10023  0.109092  0  1.049362  0
H  H30  1  0.17343712  0.16577448  0.84188207  1  0  0.100249  0.109141  0  1.049328  0
H  H31  1  0.67343831  0.33422531  0.65811916  1  0  0.100238  0.109135  0  1.049352  0
H  H32  1  0.84487042  0.65108135  0.22700276  1  0  0.119572  0.098239  0  0.984119  0
H  H33  1  0.34487441  0.84891630  0.27299761  1  0  0.119566  0.098266  0  0.984109  0
H  H34  1  0.15512244  0.34891334  0.77299911  1  0  0.119553  0.098228  0  0.984101  0
H  H35  1  0.65512304  0.15108453  0.72700184  1  0  0.119554  0.098244  0  0.984086  0
C  C36  1  0.75737467  0.07995078  0.03366921  1  0  0.043924  0.08894  0  3.977027  0
C  C37  1  0.25737063  0.42004933  0.46632978  1  0  0.043903  0.088914  0  3.976933  0
C  C38  1  0.24262430  0.92005109  0.96632984  1  0  0.04389  0.088994  0  3.977104  0
C  C39  1  0.74262376  0.57995254  0.53367148  1  0  0.043883  0.088987  0  3.976992  0
C  C40  1  0.72270704  0.02112090  0.95625073  1  0  -0.086547  -0.13609  0  3.964591  0
C  C41  1  0.22271160  0.47887853  0.54374986  1  0  -0.086505  -0.136062  0  3.964522  0
C  C42  1  0.27729346  0.97887993  0.04374707  1  0  -0.086538  -0.136109  0  3.964674  0
C  C43  1  0.77729042  0.52112026  0.45625371  1  0  -0.086538  -0.136074  0  3.964733  0
C  C44  1  0.69290895  0.10885658  0.90916301  1  0  -0.065973  -0.01114  0  3.936825  0
C  C45  1  0.19290699  0.39114924  0.59083962  1  0  -0.066042  -0.011241  0  3.936996  0
C  C46  1  0.30709307  0.89114425  0.09083534  1  0  -0.06598  -0.011163  0  3.936853  0
C  C47  1  0.80708893  0.60884750  0.40916365  1  0  -0.066015  -0.01115  0  3.93712  0
C  C48  1  0.70496763  0.25032642  0.93992667  1  0  -0.0755  -0.154543  0  3.924425  0
C  C49  1  0.20497252  0.24968035  0.56007720  1  0  -0.075363  -0.154414  0  3.924437  0
C  C50  1  0.29503592  0.74967647  0.06007198  1  0  -0.07552  -0.154537  0  3.924365  0
C  C51  1  0.79502645  0.75031638  0.43992332  1  0  -0.07534  -0.154417  0  3.924601  0
C  C52  1  0.74234599  0.30221812  0.01824571  1  0  0.121718  0.170398  0  3.973492  0
C  C53  1  0.24233759  0.19778211  0.48175606  1  0  0.121662  0.17033  0  3.973423  0
C  C54  1  0.25765604  0.69778169  0.98175139  1  0  0.12171  0.170401  0  3.973437  0
C  C55  1  0.75765985  0.80221462  0.51824335  1  0  0.121597  0.170246  0  3.973399  0
C  C56  1  0.76121411  0.45185656  0.05435480  1  0  0.120234  0.167544  0  3.978104  0
C  C57  1  0.26120507  0.04814662  0.44564793  1  0  0.120237  0.16759  0  3.977969  0
C  C58  1  0.23879097  0.54814839  0.94564524  1  0  0.120237  0.167627  0  3.977885  0
C  C59  1  0.73879085  0.95185525  0.55435332  1  0  0.120268  0.167681  0  3.977847  0
C  C60  1  0.74955224  0.54872057  0.01145490  1  0  -0.079635  -0.154415  0  3.926377  0
C  C61  1  0.24954763  0.95127879  0.48854522  1  0  -0.079574  -0.154188  0  3.926247  0
C  C62  1  0.25045589  0.45128026  0.98854290  1  0  -0.079583  -0.154317  0  3.926183  0
C  C63  1  0.75045745  0.04871897  0.51145434  1  0  -0.079642  -0.154362  0  3.926348  0
C  C64  1  0.77364479  0.68731112  0.04824165  1  0  -0.067781  -0.022858  0  3.962312  0
C  C65  1  0.27363632  0.81268910  0.45176079  1  0  -0.067786  -0.022948  0  3.96234  0
C  C66  1  0.22636182  0.31269075  0.95175961  1  0  -0.067791  -0.02284  0  3.962422  0
C  C67  1  0.72636876  0.18730865  0.54823767  1  0  -0.067781  -0.022838  0  3.962479  0
C  C68  1  0.80711767  0.72717678  0.12682037  1  0  -0.077011  -0.107944  0  3.930507  0
C  C69  1  0.30711167  0.77281908  0.37318032  1  0  -0.077019  -0.107942  0  3.930345  0
C  C70  1  0.19288588  0.27282406  0.87318074  1  0  -0.077083  -0.108077  0  3.930581  0
C  C71  1  0.69289341  0.22717970  0.62681828  1  0  -0.07699  -0.107967  0  3.930447  0
C  C72  1  0.81682179  0.62524355  0.16569621  1  0  0.055998  0.120093  0  3.9176  0
C  C73  1  0.31681901  0.87475738  0.33430410  1  0  0.05598  0.120036  0  3.917603  0
C  C74  1  0.18318023  0.37475626  0.83430475  1  0  0.056049  0.120148  0  3.917604  0
C  C75  1  0.68318301  0.12524037  0.66569546  1  0  0.055957  0.120013  0  3.917569  0
S  S76  1  0.99686606  0.10993817  0.22045366  1  0  -0.20669  -0.470554  0  2.48626  0
S  S77  1  0.49686329  0.39006022  0.27954715  1  0  -0.206696  -0.470578  0  2.486325  0
S  S78  1  0.00313138  0.89006267  0.77954690  1  0  -0.206688  -0.470579  0  2.486264  0
S  S79  1  0.50313263  0.60993856  0.72045256  1  0  -0.206693  -0.470578  0  2.486321  0
S  S80  1  0.27402450  0.44049641  0.20666992  1  0  0.473668  1.155844  0  6.238851  0
S  S81  1  0.77402313  0.05950564  0.29333044  1  0  0.473594  1.155808  0  6.238778  0
S  S82  1  0.72597447  0.55950443  0.79333008  1  0  0.473602  1.155731  0  6.238975  0
S  S83  1  0.22597279  0.94049623  0.70666972  1  0  0.473617  1.155843  0  6.238847  0
N  N84  1  0.76485045  0.21623887  0.06370009  1  0  -0.329606  -0.256065  0  3.503887  0
N  N85  1  0.26484249  0.28376119  0.43629889  1  0  -0.329585  -0.256042  0  3.50379  0
N  N86  1  0.23515157  0.78376299  0.93629786  1  0  -0.329592  -0.256086  0  3.503934  0
N  N87  1  0.73514885  0.71624068  0.56370182  1  0  -0.329557  -0.256003  0  3.503682  0
N  N88  1  0.79570866  0.49152756  0.13025645  1  0  -0.329832  -0.263306  0  3.511128  0
N  N89  1  0.29570208  0.00847228  0.36974359  1  0  -0.329831  -0.263368  0  3.511075  0
N  N90  1  0.20429184  0.50847328  0.86974246  1  0  -0.329864  -0.263387  0  3.511095  0
N  N91  1  0.70429537  0.99152548  0.63025708  1  0  -0.329857  -0.263377  0  3.510992  0
O  O92  1  0.09041785  0.46148175  0.25710895  1  0  -0.355878  -0.606073  0  2.291994  0
O  O93  1  0.59042160  0.03852572  0.24289064  1  0  -0.355866  -0.606093  0  2.291932  0
O  O94  1  0.90957959  0.53852319  0.74288999  1  0  -0.355853  -0.606068  0  2.292014  0
O  O95  1  0.40957584  0.96147717  0.75711021  1  0  -0.355849  -0.606079  0  2.291932  0
O  O96  1  0.34291129  0.56657143  0.18913484  1  0  -0.329795  -0.554561  0  2.178861  0
O  O97  1  0.84290574  0.93343035  0.31086614  1  0  -0.329768  -0.554542  0  2.178936  0
O  O98  1  0.65709226  0.43343044  0.81086587  1  0  -0.329758  -0.554505  0  2.178988  0
O  O99  1  0.15708560  0.06657050  0.68913497  1  0  -0.329782  -0.554549  0  2.178911  0
O  O100  1  0.25044804  0.32245827  0.13972940  1  0  -0.34562  -0.591052  0  2.197691  0
O  O101  1  0.75044765  0.17754600  0.36027074  1  0  -0.345601  -0.591029  0  2.197577  0
O  O102  1  0.74955246  0.67754360  0.86027020  1  0  -0.345623  -0.591039  0  2.197689  0
O  O103  1  0.24955590  0.82245689  0.63972956  1  0  -0.345621  -0.591078  0  2.1977  0
