# generated using pymatgen
data_Cu2PH14C17I2N
_symmetry_space_group_name_H-M   'P 1'
_cell_length_a   7.67646023
_cell_length_b   8.42991403
_cell_length_c   14.22455081
_cell_angle_alpha   77.19561196
_cell_angle_beta   86.35303990
_cell_angle_gamma   86.41088779
_symmetry_Int_Tables_number   1
_chemical_formula_structural   Cu2PH14C17I2N
_chemical_formula_sum   'Cu4 P2 H28 C34 I4 N2'
_cell_volume   894.67605962
_cell_formula_units_Z   2
loop_
 _symmetry_equiv_pos_site_id
 _symmetry_equiv_pos_as_xyz
  1  'x, y, z'
loop_
 _atom_site_type_symbol
 _atom_site_label
 _atom_site_symmetry_multiplicity
 _atom_site_fract_x
 _atom_site_fract_y
 _atom_site_fract_z
 _atom_site_occupancy
 _atom_site_hle17_bader_spin_density
 _atom_site_hle17_ddec_charge
 _atom_site_hle17_ddec_spin_density
 _atom_site_hle17_ddec_sum_bond_order
 _atom_site_hle17_magmom
 _atom_site_hse06_10hf_bader_spin_density
 _atom_site_hse06_10hf_ddec_charge
 _atom_site_hse06_10hf_ddec_spin_density
 _atom_site_hse06_10hf_ddec_sum_bond_order
 _atom_site_hse06_10hf_magmom
 _atom_site_hse06_bader_spin_density
 _atom_site_hse06_ddec_charge
 _atom_site_hse06_ddec_spin_density
 _atom_site_hse06_ddec_sum_bond_order
 _atom_site_hse06_magmom
 _atom_site_pbe_bader_spin_density
 _atom_site_pbe_cm5_charge
 _atom_site_pbe_ddec_charge
 _atom_site_pbe_ddec_spin_density
 _atom_site_pbe_ddec_sum_bond_order
 _atom_site_pbe_magmom
Cu  Cu0  1  0.92357351  0.45535757  0.58617907  1  0  0.058184  0  2.533384  0  0  0.020374  0  2.985418  0  0  0.027425  0  2.933224  0  0  0.21789  0.016863  0  3.019347  0
Cu  Cu1  1  0.07642506  0.54464374  0.41381910  1  0  0.058194  0  2.533309  0  0  0.020381  0  2.985352  0  0  0.027427  0  2.933159  0  0  0.217868  0.016853  0  3.019304  0
Cu  Cu2  1  0.28832278  0.47228020  0.55406307  1  0  0.268402  0  2.090025  0  0  0.19304  0  2.53159  0  0  0.20776  0  2.478448  0  0  0.261193  0.185524  0  2.565512  0
Cu  Cu3  1  0.71167697  0.52772354  0.44593475  1  0  0.268359  0  2.090036  0  0  0.192998  0  2.531618  0  0  0.207718  0  2.478474  0  0  0.261176  0.185468  0  2.565555  0
P  P4  1  0.02560720  0.30030147  0.72031858  1  0  0.316948  0  3.773875  0  0  0.243138  0  4.233365  0  0  0.262608  0  4.213944  0  0  -0.046311  0.22942  0  4.246755  0
P  P5  1  0.97439132  0.69970105  0.27968015  1  0  0.317056  0  3.773804  0  0  0.243245  0  4.233262  0  0  0.262716  0  4.213842  0  0  -0.046285  0.229531  0  4.246632  0
H  H6  1  0.12605737  0.94239359  0.78827474  1  0  0.094781  0  0.989948  0  0  0.105042  0  1.053568  0  0  0.106855  0  1.055116  0  0  0.099965  0.103718  0  1.052693  0
H  H7  1  0.87393856  0.05760775  0.21172213  1  0  0.094792  0  0.989945  0  0  0.105083  0  1.05354  0  0  0.106897  0  1.055087  0  0  0.09997  0.10376  0  1.052667  0
H  H8  1  0.36320683  0.77066349  0.72499645  1  0  0.091831  0  0.969264  0  0  0.101531  0  1.032514  0  0  0.103822  0  1.031507  0  0  0.093602  0.099758  0  1.033449  0
H  H9  1  0.63678905  0.22933907  0.27500027  1  0  0.091836  0  0.969302  0  0  0.101592  0  1.032481  0  0  0.103883  0  1.031476  0  0  0.093602  0.099798  0  1.033443  0
H  H10  1  0.57661632  0.90712851  0.59633704  1  0  0.102033  0  0.96675  0  0  0.110428  0  1.030311  0  0  0.113867  0  1.02921  0  0  0.09598  0.107907  0  1.031303  0
H  H11  1  0.42338344  0.09287522  0.40366149  1  0  0.102006  0  0.966725  0  0  0.110393  0  1.030303  0  0  0.113832  0  1.029204  0  0  0.095995  0.10787  0  1.031299  0
H  H12  1  0.53877450  0.20858064  0.53248253  1  0  0.062289  0  1.00691  0  0  0.067003  0  1.082994  0  0  0.070335  0  1.079368  0  0  0.088628  0.064316  0  1.085991  0
H  H13  1  0.46122782  0.79142429  0.46751645  1  0  0.062249  0  1.007009  0  0  0.067031  0  1.083002  0  0  0.070363  0  1.079375  0  0  0.088606  0.064342  0  1.086003  0
H  H14  1  0.80611396  0.05622317  0.68562074  1  0  0.093701  0  0.955367  0  0  0.10152  0  1.024237  0  0  0.104889  0  1.022176  0  0  0.094824  0.099003  0  1.02592  0
H  H15  1  0.19388334  0.94377811  0.31438031  1  0  0.093692  0  0.955391  0  0  0.101481  0  1.024285  0  0  0.104849  0  1.022228  0  0  0.094828  0.098965  0  1.025968  0
H  H16  1  0.93592445  0.23582424  0.93233107  1  0  0.085254  0  0.985996  0  0  0.095119  0  1.051391  0  0  0.096866  0  1.052452  0  0  0.096045  0.093875  0  1.050702  0
H  H17  1  0.06407545  0.76417704  0.06766917  1  0  0.085281  0  0.985993  0  0  0.095136  0  1.051392  0  0  0.096883  0  1.052454  0  0  0.096057  0.09389  0  1.050704  0
H  H18  1  0.75160701  0.03001913  0.03940269  1  0  0.085039  0  0.95461  0  0  0.096895  0  1.014877  0  0  0.099399  0  1.014636  0  0  0.09761  0.095135  0  1.015116  0
H  H19  1  0.24839292  0.96998214  0.96059895  1  0  0.08505  0  0.954626  0  0  0.09691  0  1.014886  0  0  0.099412  0  1.014648  0  0  0.097627  0.095149  0  1.015127  0
H  H20  1  0.60391216  0.83104329  0.97044467  1  0  0.080589  0  0.975061  0  0  0.090436  0  1.03964  0  0  0.092631  0  1.039427  0  0  0.095258  0.088897  0  1.039784  0
H  H21  1  0.39608783  0.16895676  0.02955713  1  0  0.080598  0  0.975087  0  0  0.090462  0  1.039647  0  0  0.092656  0  1.039434  0  0  0.095278  0.088923  0  1.039793  0
H  H22  1  0.63354396  0.84307858  0.79368278  1  0  0.087636  0  0.969117  0  0  0.099682  0  1.028121  0  0  0.102224  0  1.027608  0  0  0.097015  0.097898  0  1.028482  0
H  H23  1  0.36645472  0.15692147  0.20631837  1  0  0.087601  0  0.969125  0  0  0.099649  0  1.028129  0  0  0.102191  0  1.027616  0  0  0.097006  0.097867  0  1.02849  0
H  H24  1  0.89312800  0.57368442  0.79586863  1  0  0.090569  0  0.957411  0  0  0.099347  0  1.024199  0  0  0.102723  0  1.022194  0  0  0.094083  0.09684  0  1.02572  0
H  H25  1  0.10687202  0.42631560  0.20413528  1  0  0.090586  0  0.957476  0  0  0.099359  0  1.024264  0  0  0.102733  0  1.022266  0  0  0.094093  0.096838  0  1.025796  0
H  H26  1  0.37200068  0.27286834  0.81296850  1  0  0.095617  0  0.951837  0  0  0.106993  0  1.010602  0  0  0.10929  0  1.01074  0  0  0.098583  0.105324  0  1.010598  0
H  H27  1  0.62799920  0.72713180  0.18702626  1  0  0.095667  0  0.951782  0  0  0.107031  0  1.010557  0  0  0.109327  0  1.010695  0  0  0.098608  0.105356  0  1.01056  0
H  H28  1  0.48944690  0.43474961  0.91722579  1  0  0.082236  0  0.958739  0  0  0.095205  0  1.017368  0  0  0.097787  0  1.016346  0  0  0.097405  0.093362  0  1.0182  0
H  H29  1  0.51056107  0.56524564  0.08276999  1  0  0.08221  0  0.958772  0  0  0.095197  0  1.017385  0  0  0.097782  0  1.016359  0  0  0.0974  0.093352  0  1.018215  0
H  H30  1  0.30491038  0.65821840  0.96835919  1  0  0.075744  0  0.977755  0  0  0.086618  0  1.042947  0  0  0.089216  0  1.041626  0  0  0.094787  0.084761  0  1.043923  0
H  H31  1  0.69509410  0.34177066  0.03164453  1  0  0.075746  0  0.977769  0  0  0.086569  0  1.043018  0  0  0.08917  0  1.04169  0  0  0.094751  0.084714  0  1.043998  0
H  H32  1  0.00448345  0.72514804  0.90831871  1  0  0.085296  0  0.963089  0  0  0.097709  0  1.022188  0  0  0.099857  0  1.02248  0  0  0.097945  0.096183  0  1.022064  0
H  H33  1  0.99551959  0.27484463  0.09168812  1  0  0.085285  0  0.963084  0  0  0.097725  0  1.022156  0  0  0.099874  0  1.022444  0  0  0.097924  0.0962  0  1.022036  0
C  C34  1  0.20236769  0.16296835  0.68967140  1  0  0.077549  0  3.692225  0  0  0.096858  0  3.938914  0  0  0.099377  0  3.959568  0  0  0.09617  0.094969  0  3.925561  0
C  C35  1  0.79762951  0.83703418  0.31032667  1  0  0.077488  0  3.692475  0  0  0.0969  0  3.939047  0  0  0.099422  0  3.959696  0  0  0.096186  0.095005  0  3.925689  0
C  C36  1  0.21859993  0.99681232  0.73101173  1  0  -0.122826  0  3.734782  0  0  -0.142566  0  3.97794  0  0  -0.149084  0  4.000379  0  0  -0.086944  -0.138482  0  3.963305  0
C  C37  1  0.78140118  0.00319020  0.26898619  1  0  -0.122919  0  3.734953  0  0  -0.142729  0  3.978099  0  0  -0.149249  0  4.00054  0  0  -0.086999  -0.138641  0  3.963458  0
C  C38  1  0.35122902  0.90166876  0.69614398  1  0  -0.00431  0  3.741113  0  0  -0.020438  0  3.986232  0  0  -0.015243  0  4.002072  0  0  -0.075432  -0.02407  0  3.976005  0
C  C39  1  0.64876544  0.09833623  0.30385318  1  0  -0.00429  0  3.741114  0  0  -0.020448  0  3.986221  0  0  -0.015256  0  4.002064  0  0  -0.075393  -0.024065  0  3.975999  0
C  C40  1  0.46935091  0.97733177  0.62425976  1  0  -0.11252  0  3.723688  0  0  -0.12372  0  3.968805  0  0  -0.130224  0  3.988236  0  0  -0.087665  -0.119823  0  3.956346  0
C  C41  1  0.53064766  0.02266955  0.37573841  1  0  -0.112402  0  3.72362  0  0  -0.123606  0  3.96875  0  0  -0.130109  0  3.988182  0  0  -0.087674  -0.11971  0  3.956286  0
C  C42  1  0.44817318  0.14409726  0.58804339  1  0  0.132906  0  3.671861  0  0  0.104897  0  3.914254  0  0  0.112  0  3.930761  0  0  0.037126  0.100059  0  3.90389  0
C  C43  1  0.55182527  0.85590648  0.41195519  1  0  0.13285  0  3.671898  0  0  0.104816  0  3.914289  0  0  0.111923  0  3.930793  0  0  0.037116  0.099979  0  3.903921  0
C  C44  1  0.79513517  0.04995580  0.76327918  1  0  -0.070554  0  3.728376  0  0  -0.090359  0  3.971791  0  0  -0.09066  0  3.992178  0  0  -0.085007  -0.090132  0  3.958175  0
C  C45  1  0.20486476  0.95004547  0.23672246  1  0  -0.070565  0  3.728464  0  0  -0.090351  0  3.971905  0  0  -0.090652  0  3.992291  0  0  -0.08503  -0.090124  0  3.958288  0
C  C46  1  0.88381088  0.15944948  0.80226651  1  0  -0.086293  0  3.74325  0  0  -0.04422  0  3.978148  0  0  -0.050501  0  4.003205  0  0  -0.026984  -0.040101  0  3.96126  0
C  C47  1  0.11618892  0.84055422  0.19773413  1  0  -0.08626  0  3.743251  0  0  -0.044199  0  3.978169  0  0  -0.050478  0  4.003224  0  0  -0.026964  -0.040081  0  3.961275  0
C  C48  1  0.86640223  0.15198383  0.90179693  1  0  -0.087439  0  3.764393  0  0  -0.108217  0  4.006039  0  0  -0.109718  0  4.029683  0  0  -0.092221  -0.107032  0  3.989889  0
C  C49  1  0.13359763  0.84801865  0.09820386  1  0  -0.087478  0  3.764521  0  0  -0.108247  0  4.006171  0  0  -0.109749  0  4.029814  0  0  -0.092226  -0.107061  0  3.990021  0
C  C50  1  0.76370333  0.03575650  0.96187333  1  0  -0.079476  0  3.788839  0  0  -0.090624  0  4.038217  0  0  -0.093629  0  4.060105  0  0  -0.096061  -0.088615  0  4.0233  0
C  C51  1  0.23629802  0.96424233  0.03812787  1  0  -0.079447  0  3.788879  0  0  -0.090599  0  4.038266  0  0  -0.093603  0  4.060152  0  0  -0.096053  -0.08859  0  4.023349  0
C  C52  1  0.68056871  0.92401162  0.92315886  1  0  -0.072024  0  3.779776  0  0  -0.084759  0  4.023991  0  0  -0.085597  0  4.045111  0  0  -0.093421  -0.084053  0  4.009546  0
C  C53  1  0.31943370  0.07599207  0.07684238  1  0  -0.072051  0  3.779687  0  0  -0.084802  0  4.02391  0  0  -0.085638  0  4.045027  0  0  -0.093468  -0.084102  0  4.00947  0
C  C54  1  0.69718415  0.93097042  0.82394552  1  0  -0.071974  0  3.766684  0  0  -0.081348  0  4.006875  0  0  -0.0841  0  4.028261  0  0  -0.092762  -0.079482  0  3.992353  0
C  C55  1  0.30281708  0.06903084  0.17605607  1  0  -0.071978  0  3.766679  0  0  -0.08135  0  4.00687  0  0  -0.084102  0  4.028253  0  0  -0.092783  -0.079483  0  3.99235  0
C  C56  1  0.02198853  0.54048814  0.82490491  1  0  -0.070233  0  3.729596  0  0  -0.089962  0  3.971466  0  0  -0.090509  0  3.992172  0  0  -0.084938  -0.08957  0  3.957741  0
C  C57  1  0.97801178  0.45950581  0.17509835  1  0  -0.070187  0  3.729778  0  0  -0.089898  0  3.971655  0  0  -0.090446  0  3.99236  0  0  -0.084924  -0.089495  0  3.957935  0
C  C58  1  0.12277788  0.40989023  0.79927945  1  0  -0.088228  0  3.743608  0  0  -0.044478  0  3.979177  0  0  -0.050781  0  4.002673  0  0  -0.025979  -0.040544  0  3.963755  0
C  C59  1  0.87722613  0.59010739  0.20072109  1  0  -0.088326  0  3.743657  0  0  -0.044621  0  3.979302  0  0  -0.050923  0  4.002798  0  0  -0.025979  -0.040678  0  3.963869  0
C  C60  1  0.29075789  0.37159320  0.83366940  1  0  -0.065687  0  3.740647  0  0  -0.087753  0  3.98476  0  0  -0.087578  0  4.005311  0  0  -0.088009  -0.087798  0  3.97107  0
C  C61  1  0.70924211  0.62840567  0.16632903  1  0  -0.065657  0  3.740317  0  0  -0.087694  0  3.98444  0  0  -0.087517  0  4.004989  0  0  -0.087967  -0.087737  0  3.970744  0
C  C62  1  0.35667537  0.46264753  0.89316237  1  0  -0.077385  0  3.783297  0  0  -0.088105  0  4.030721  0  0  -0.090711  0  4.051625  0  0  -0.095832  -0.086458  0  4.016631  0
C  C63  1  0.64332604  0.53734892  0.10683491  1  0  -0.077293  0  3.783218  0  0  -0.088035  0  4.03063  0  0  -0.090641  0  4.051534  0  0  -0.095826  -0.086389  0  4.016537  0
C  C64  1  0.25407063  0.58879157  0.92085255  1  0  -0.071776  0  3.774471  0  0  -0.086336  0  4.021235  0  0  -0.087159  0  4.041987  0  0  -0.093507  -0.085638  0  4.007064  0
C  C65  1  0.74593104  0.41120117  0.07915011  1  0  -0.071801  0  3.774593  0  0  -0.086316  0  4.021362  0  0  -0.087139  0  4.042119  0  0  -0.093474  -0.085618  0  4.007194  0
C  C66  1  0.08613050  0.62710288  0.88700553  1  0  -0.071348  0  3.768861  0  0  -0.081218  0  4.014191  0  0  -0.08404  0  4.036263  0  0  -0.092629  -0.079309  0  3.999203  0
C  C67  1  0.91387247  0.37288986  0.11299638  1  0  -0.071426  0  3.768937  0  0  -0.081319  0  4.014271  0  0  -0.084142  0  4.036346  0  0  -0.092679  -0.079412  0  3.99929  0
I  I68  1  0.91114465  0.26279195  0.45734866  1  0  -0.260076  0  1.644277  0  0  -0.21729  0  2.038844  0  0  -0.234083  0  2.008565  0  0  -0.151914  -0.205665  0  2.058755  0
I  I69  1  0.08885254  0.73721059  0.54264871  1  0  -0.260086  0  1.644307  0  0  -0.217294  0  2.038856  0  0  -0.234098  0  2.008595  0  0  -0.151898  -0.205668  0  2.058767  0
I  I70  1  0.40445097  0.46342384  0.36569331  1  0  -0.37659  0  1.625903  0  0  -0.329799  0  2.044146  0  0  -0.349559  0  2.011136  0  0  -0.184367  -0.315532  0  2.065564  0
I  I71  1  0.59554892  0.53657746  0.63430552  1  0  -0.376546  0  1.625869  0  0  -0.329767  0  2.044122  0  0  -0.349527  0  2.011113  0  0  -0.184359  -0.315502  0  2.065544  0
N  N72  1  0.31431812  0.23535038  0.61760218  1  0  -0.277908  0  3.380848  0  0  -0.200685  0  3.640332  0  0  -0.215792  0  3.653623  0  0  -0.354136  -0.191534  0  3.632019  0
N  N73  1  0.68568171  0.76465213  0.38239650  1  0  -0.277791  0  3.380831  0  0  -0.200645  0  3.640344  0  0  -0.215753  0  3.653633  0  0  -0.3541  -0.191477  0  3.632004  0
