# generated using pymatgen
data_ZnCdH10(C7N3)2
_symmetry_space_group_name_H-M   'P 1'
_cell_length_a   8.35669233
_cell_length_b   8.35674923
_cell_length_c   13.92018169
_cell_angle_alpha   89.99986258
_cell_angle_beta   90.00034795
_cell_angle_gamma   110.67705721
_symmetry_Int_Tables_number   1
_chemical_formula_structural   ZnCdH10(C7N3)2
_chemical_formula_sum   'Zn2 Cd2 H20 C28 N12'
_cell_volume   909.49468971
_cell_formula_units_Z   2
loop_
 _symmetry_equiv_pos_site_id
 _symmetry_equiv_pos_as_xyz
  1  'x, y, z'
loop_
 _atom_site_type_symbol
 _atom_site_label
 _atom_site_symmetry_multiplicity
 _atom_site_fract_x
 _atom_site_fract_y
 _atom_site_fract_z
 _atom_site_occupancy
 _atom_site_hle17_bader_spin_density
 _atom_site_hle17_ddec_charge
 _atom_site_hle17_ddec_spin_density
 _atom_site_hle17_ddec_sum_bond_order
 _atom_site_hle17_magmom
 _atom_site_hse06_10hf_bader_spin_density
 _atom_site_hse06_10hf_ddec_charge
 _atom_site_hse06_10hf_ddec_spin_density
 _atom_site_hse06_10hf_ddec_sum_bond_order
 _atom_site_hse06_10hf_magmom
 _atom_site_hse06_bader_spin_density
 _atom_site_hse06_ddec_charge
 _atom_site_hse06_ddec_spin_density
 _atom_site_hse06_ddec_sum_bond_order
 _atom_site_hse06_magmom
 _atom_site_pbe_bader_spin_density
 _atom_site_pbe_cm5_charge
 _atom_site_pbe_ddec_charge
 _atom_site_pbe_ddec_spin_density
 _atom_site_pbe_ddec_sum_bond_order
 _atom_site_pbe_magmom
Zn  Zn0  1  0.50000323  0.49999693  0.75000010  1  0  0.475048  0  2.763043  0  0  0.332484  0  3.255266  0  0  0.351765  0  3.21313  0  0  0.441349  0.320248  0  3.283742  0
Zn  Zn1  1  0.50000478  0.49999830  0.24999944  1  0  0.475007  0  2.76324  0  0  0.332466  0  3.255472  0  0  0.351741  0  3.213337  0  0  0.441309  0.320236  0  3.283949  0
Cd  Cd2  1  0.49999912  0.99999641  0.49999941  1  0  1.06757  0  1.967215  0  0  0.862882  0  2.452332  0  0  0.912574  0  2.407385  0  0  0.82298  0.828228  0  2.482682  0
Cd  Cd3  1  0.00000210  0.49999918  0.99999952  1  0  1.067571  0  1.967127  0  0  0.862877  0  2.452236  0  0  0.912571  0  2.407287  0  0  0.822972  0.828224  0  2.482584  0
H  H4  1  0.80659235  0.16305178  0.64844691  1  0  0.076854  0  0.932331  0  0  0.087218  0  0.991967  0  0  0.089307  0  0.990359  0  0  0.114978  0.08569  0  0.99312  0
H  H5  1  0.19340538  0.83694730  0.64844603  1  0  0.076816  0  0.93238  0  0  0.08719  0  0.992012  0  0  0.089278  0  0.990405  0  0  0.114971  0.085664  0  0.993165  0
H  H6  1  0.83694827  0.19341389  0.85154918  1  0  0.076927  0  0.932304  0  0  0.087284  0  0.991947  0  0  0.089372  0  0.99034  0  0  0.114983  0.08576  0  0.993102  0
H  H7  1  0.16304790  0.80658512  0.85154966  1  0  0.076909  0  0.932336  0  0  0.087282  0  0.991958  0  0  0.089371  0  0.990352  0  0  0.115001  0.085756  0  0.993112  0
H  H8  1  0.19340840  0.83694991  0.35155191  1  0  0.076872  0  0.932347  0  0  0.087249  0  0.991971  0  0  0.089337  0  0.990363  0  0  0.114982  0.08572  0  0.993124  0
H  H9  1  0.80658757  0.16304931  0.35155352  1  0  0.076884  0  0.932322  0  0  0.087259  0  0.99195  0  0  0.089347  0  0.990342  0  0  0.114983  0.085727  0  0.993104  0
H  H10  1  0.16304532  0.80658784  0.14844821  1  0  0.076946  0  0.932388  0  0  0.087321  0  0.991993  0  0  0.08941  0  0.990385  0  0  0.114996  0.085792  0  0.993147  0
H  H11  1  0.83694845  0.19340762  0.14844557  1  0  0.076856  0  0.932366  0  0  0.087196  0  0.992023  0  0  0.089284  0  0.990415  0  0  0.114958  0.085671  0  0.993174  0
H  H12  1  0.28261560  0.41941378  0.50000015  1  0  0.095579  0  0.932618  0  0  0.108634  0  0.988436  0  0  0.109978  0  0.988565  0  0  0.108786  0.107622  0  0.988382  0
H  H13  1  0.71738020  0.58058410  0.50000011  1  0  0.095637  0  0.932546  0  0  0.108686  0  0.988366  0  0  0.110032  0  0.988493  0  0  0.108828  0.107672  0  0.988315  0
H  H14  1  0.58058224  0.71738913  0.99999898  1  0  0.095598  0  0.932763  0  0  0.108657  0  0.988551  0  0  0.110003  0  0.988677  0  0  0.108816  0.107642  0  0.988499  0
H  H15  1  0.41940970  0.28260727  0.99999972  1  0  0.095534  0  0.932651  0  0  0.108595  0  0.988472  0  0  0.109941  0  0.988598  0  0  0.108777  0.107583  0  0.988416  0
H  H16  1  0.12082593  0.33277430  0.65539660  1  0  0.097978  0  0.965234  0  0  0.107843  0  1.026234  0  0  0.109912  0  1.026591  0  0  0.103021  0.106347  0  1.02612  0
H  H17  1  0.87917848  0.66722986  0.65539056  1  0  0.097966  0  0.96534  0  0  0.107819  0  1.026342  0  0  0.109887  0  1.026699  0  0  0.103012  0.106322  0  1.026228  0
H  H18  1  0.66722436  0.87917504  0.84460307  1  0  0.098015  0  0.965147  0  0  0.107838  0  1.026192  0  0  0.109905  0  1.02655  0  0  0.103021  0.106343  0  1.026078  0
H  H19  1  0.33277035  0.12082013  0.84460588  1  0  0.098027  0  0.965291  0  0  0.107823  0  1.026346  0  0  0.109891  0  1.026704  0  0  0.103011  0.106328  0  1.026232  0
H  H20  1  0.87916941  0.66722230  0.34459864  1  0  0.09787  0  0.965211  0  0  0.107731  0  1.026227  0  0  0.109799  0  1.026585  0  0  0.102988  0.106236  0  1.026113  0
H  H21  1  0.12082154  0.33277311  0.34460540  1  0  0.097992  0  0.965222  0  0  0.107839  0  1.026233  0  0  0.109907  0  1.02659  0  0  0.103023  0.106344  0  1.026119  0
H  H22  1  0.33277446  0.12082794  0.15540007  1  0  0.097908  0  0.965239  0  0  0.107777  0  1.026244  0  0  0.109845  0  1.026602  0  0  0.103003  0.10628  0  1.02613  0
H  H23  1  0.66722168  0.87917392  0.15539726  1  0  0.097926  0  0.965236  0  0  0.10777  0  1.026257  0  0  0.109836  0  1.026618  0  0  0.103  0.106274  0  1.026143  0
C  C24  1  0.46961020  0.29545617  0.66831735  1  0  -0.043477  0  3.34755  0  0  -0.031336  0  3.669696  0  0  -0.02556  0  3.675393  0  0  0.006179  -0.035419  0  3.665835  0
C  C25  1  0.53039332  0.70455184  0.66831573  1  0  -0.043449  0  3.347553  0  0  -0.031311  0  3.669686  0  0  -0.025537  0  3.675385  0  0  0.006193  -0.035394  0  3.665823  0
C  C26  1  0.70454296  0.53039918  0.83168976  1  0  -0.043456  0  3.347903  0  0  -0.031317  0  3.67005  0  0  -0.025543  0  3.675749  0  0  0.00624  -0.0354  0  3.666186  0
C  C27  1  0.29545355  0.46961136  0.83168547  1  0  -0.043407  0  3.347901  0  0  -0.031263  0  3.67003  0  0  -0.02549  0  3.675733  0  0  0.006217  -0.035343  0  3.666166  0
C  C28  1  0.53039983  0.70454802  0.33168219  1  0  -0.043455  0  3.347505  0  0  -0.031319  0  3.669639  0  0  -0.025542  0  3.675337  0  0  0.006167  -0.035404  0  3.665778  0
C  C29  1  0.46961468  0.29546006  0.33168238  1  0  -0.043619  0  3.347254  0  0  -0.031498  0  3.66943  0  0  -0.025719  0  3.675128  0  0  0.006091  -0.035583  0  3.665569  0
C  C30  1  0.29546211  0.46960119  0.16831841  1  0  -0.043542  0  3.347811  0  0  -0.031404  0  3.669969  0  0  -0.025628  0  3.675671  0  0  0.006193  -0.035488  0  3.666104  0
C  C31  1  0.70453921  0.53039806  0.16830977  1  0  -0.043443  0  3.347951  0  0  -0.031306  0  3.670101  0  0  -0.025531  0  3.675802  0  0  0.00624  -0.035392  0  3.666238  0
C  C32  1  0.88229984  0.20390270  0.58310089  1  0  0.124504  0  3.722538  0  0  0.094792  0  3.969341  0  0  0.101258  0  3.988956  0  0  0.046079  0.090723  0  3.955831  0
C  C33  1  0.11769843  0.79609640  0.58310194  1  0  0.124596  0  3.722549  0  0  0.094859  0  3.969363  0  0  0.101326  0  3.988976  0  0  0.046101  0.090789  0  3.955855  0
C  C34  1  0.79609664  0.11769510  0.91689601  1  0  0.124261  0  3.722307  0  0  0.094532  0  3.969124  0  0  0.100997  0  3.98874  0  0  0.046013  0.090457  0  3.95562  0
C  C35  1  0.20389999  0.88230002  0.91689797  1  0  0.124332  0  3.722291  0  0  0.094603  0  3.969079  0  0  0.101066  0  3.988696  0  0  0.046019  0.090531  0  3.955572  0
C  C36  1  0.11770146  0.79609386  0.41689865  1  0  0.124464  0  3.722529  0  0  0.094725  0  3.969344  0  0  0.101191  0  3.988959  0  0  0.046071  0.090657  0  3.955832  0
C  C37  1  0.88229947  0.20390402  0.41689976  1  0  0.124401  0  3.722508  0  0  0.094667  0  3.969319  0  0  0.101133  0  3.988934  0  0  0.046042  0.090602  0  3.955805  0
C  C38  1  0.20390641  0.88229631  0.08310282  1  0  0.124269  0  3.722192  0  0  0.094554  0  3.968973  0  0  0.101017  0  3.98859  0  0  0.046045  0.090486  0  3.955462  0
C  C39  1  0.79609149  0.11769916  0.08310014  1  0  0.124439  0  3.722565  0  0  0.094739  0  3.969362  0  0  0.101205  0  3.988977  0  0  0.046092  0.090669  0  3.955852  0
C  C40  1  0.14582384  0.34629922  0.49999924  1  0  0.011678  0  3.704795  0  0  -0.008432  0  3.949693  0  0  -0.005257  0  3.970964  0  0  -0.060542  -0.010155  0  3.935068  0
C  C41  1  0.85417452  0.65370248  0.50000318  1  0  0.011621  0  3.704645  0  0  -0.008497  0  3.949544  0  0  -0.005322  0  3.970813  0  0  -0.060582  -0.010217  0  3.934916  0
C  C42  1  0.65370691  0.85416724  0.99999902  1  0  0.011612  0  3.704849  0  0  -0.008514  0  3.949784  0  0  -0.005333  0  3.971038  0  0  -0.060669  -0.010235  0  3.935158  0
C  C43  1  0.34628981  0.14582914  0.99999753  1  0  0.011603  0  3.705057  0  0  -0.00854  0  3.94999  0  0  -0.005361  0  3.971255  0  0  -0.060704  -0.010258  0  3.935359  0
C  C44  1  0.05678059  0.29818351  0.58630905  1  0  -0.122729  0  3.744505  0  0  -0.131397  0  3.98825  0  0  -0.139176  0  4.011937  0  0  -0.083069  -0.126411  0  3.972275  0
C  C45  1  0.94322323  0.70181427  0.58630966  1  0  -0.122762  0  3.74476  0  0  -0.131402  0  3.988493  0  0  -0.13918  0  4.012178  0  0  -0.083079  -0.126417  0  3.972515  0
C  C46  1  0.70181477  0.94320911  0.91369557  1  0  -0.12266  0  3.744445  0  0  -0.131267  0  3.988182  0  0  -0.139044  0  4.01187  0  0  -0.083006  -0.126282  0  3.972205  0
C  C47  1  0.29819248  0.05679237  0.91369332  1  0  -0.122697  0  3.744525  0  0  -0.131276  0  3.98823  0  0  -0.139054  0  4.011917  0  0  -0.083006  -0.126293  0  3.972256  0
C  C48  1  0.94322283  0.70181559  0.41369050  1  0  -0.122547  0  3.744347  0  0  -0.131192  0  3.988086  0  0  -0.138971  0  4.011776  0  0  -0.082986  -0.126206  0  3.972106  0
C  C49  1  0.05677872  0.29818741  0.41369276  1  0  -0.122698  0  3.74464  0  0  -0.131336  0  3.988376  0  0  -0.139114  0  4.012063  0  0  -0.083067  -0.126351  0  3.972399  0
C  C50  1  0.29819912  0.05679250  0.08630685  1  0  -0.12249  0  3.744112  0  0  -0.131147  0  3.987833  0  0  -0.138926  0  4.011523  0  0  -0.082956  -0.126162  0  3.971853  0
C  C51  1  0.70180478  0.94321960  0.08630910  1  0  -0.122611  0  3.744279  0  0  -0.131245  0  3.988016  0  0  -0.139022  0  4.011705  0  0  -0.083025  -0.126259  0  3.972037  0
N  N52  1  0.46082506  0.17821104  0.62016575  1  0  -0.40783  0  3.03405  0  0  -0.349462  0  3.315356  0  0  -0.367862  0  3.328299  0  0  -0.362779  -0.336833  0  3.306359  0
N  N53  1  0.53918075  0.82178800  0.62016184  1  0  -0.407867  0  3.034279  0  0  -0.349488  0  3.315593  0  0  -0.367892  0  3.328545  0  0  -0.362793  -0.336856  0  3.306589  0
N  N54  1  0.82178645  0.53918450  0.87983517  1  0  -0.407862  0  3.034482  0  0  -0.349497  0  3.315803  0  0  -0.367897  0  3.328746  0  0  -0.362846  -0.336868  0  3.306804  0
N  N55  1  0.17821733  0.46081829  0.87983405  1  0  -0.407915  0  3.034571  0  0  -0.349543  0  3.31587  0  0  -0.367943  0  3.328816  0  0  -0.362823  -0.336914  0  3.306873  0
N  N56  1  0.53918148  0.82178677  0.37983667  1  0  -0.407863  0  3.034174  0  0  -0.349494  0  3.315502  0  0  -0.367896  0  3.328446  0  0  -0.362762  -0.336861  0  3.306499  0
N  N57  1  0.46082818  0.17820979  0.37983699  1  0  -0.407695  0  3.033708  0  0  -0.349322  0  3.315035  0  0  -0.367725  0  3.32798  0  0  -0.3627  -0.33669  0  3.306035  0
N  N58  1  0.17821742  0.46081589  0.12016940  1  0  -0.407755  0  3.034317  0  0  -0.349387  0  3.315626  0  0  -0.367788  0  3.328573  0  0  -0.362781  -0.336757  0  3.306626  0
N  N59  1  0.82178627  0.53918466  0.12016693  1  0  -0.407869  0  3.034469  0  0  -0.349499  0  3.315776  0  0  -0.367899  0  3.328721  0  0  -0.362849  -0.336869  0  3.306776  0
N  N60  1  0.79651956  0.15777384  0.50000056  1  0  -0.329115  0  3.273985  0  0  -0.253153  0  3.538126  0  0  -0.272596  0  3.55789  0  0  -0.32919  -0.239854  0  3.524252  0
N  N61  1  0.20347384  0.84222404  0.50000186  1  0  -0.329231  0  3.274036  0  0  -0.253261  0  3.538201  0  0  -0.272702  0  3.557955  0  0  -0.329261  -0.239966  0  3.524337  0
N  N62  1  0.84222617  0.20348465  0.00000067  1  0  -0.329019  0  3.273911  0  0  -0.253034  0  3.538024  0  0  -0.272481  0  3.557792  0  0  -0.329128  -0.239738  0  3.524158  0
N  N63  1  0.15777393  0.79651597  0.00000043  1  0  -0.329006  0  3.273985  0  0  -0.253049  0  3.538118  0  0  -0.272493  0  3.557885  0  0  -0.329126  -0.23975  0  3.524245  0
