# generated using pymatgen
data_K2H8C14Cl4O5
_symmetry_space_group_name_H-M   'P 1'
_cell_length_a   4.26154235
_cell_length_b   12.82796754
_cell_length_c   15.95334002
_cell_angle_alpha   93.95592654
_cell_angle_beta   97.67518853
_cell_angle_gamma   89.99440319
_symmetry_Int_Tables_number   1
_chemical_formula_structural   K2H8C14Cl4O5
_chemical_formula_sum   'K4 H16 C28 Cl8 O10'
_cell_volume   862.21092094
_cell_formula_units_Z   2
loop_
 _symmetry_equiv_pos_site_id
 _symmetry_equiv_pos_as_xyz
  1  'x, y, z'
loop_
 _atom_site_type_symbol
 _atom_site_label
 _atom_site_symmetry_multiplicity
 _atom_site_fract_x
 _atom_site_fract_y
 _atom_site_fract_z
 _atom_site_occupancy
 _atom_site_hle17_bader_spin_density
 _atom_site_hle17_ddec_charge
 _atom_site_hle17_ddec_spin_density
 _atom_site_hle17_ddec_sum_bond_order
 _atom_site_hle17_magmom
 _atom_site_hse06_10hf_bader_spin_density
 _atom_site_hse06_10hf_ddec_charge
 _atom_site_hse06_10hf_ddec_spin_density
 _atom_site_hse06_10hf_ddec_sum_bond_order
 _atom_site_hse06_10hf_magmom
 _atom_site_hse06_bader_spin_density
 _atom_site_hse06_ddec_charge
 _atom_site_hse06_ddec_spin_density
 _atom_site_hse06_ddec_sum_bond_order
 _atom_site_hse06_magmom
 _atom_site_pbe_bader_spin_density
 _atom_site_pbe_cm5_charge
 _atom_site_pbe_ddec_charge
 _atom_site_pbe_ddec_spin_density
 _atom_site_pbe_ddec_sum_bond_order
 _atom_site_pbe_magmom
K  K0  1  0.75647022  0.39461038  0.06680261  1  0  0.929692  0  0.482698  0  0  0.877072  0  0.67552  0  0  0.892918  0  0.651123  0  0  0.755907  0.865146  0  0.693039  0
K  K1  1  0.69028199  0.10535661  0.93324597  1  0  0.929742  0  0.482853  0  0  0.876915  0  0.67587  0  0  0.892767  0  0.651466  0  0  0.756051  0.864987  0  0.693397  0
K  K2  1  0.24352050  0.60539078  0.93319888  1  0  0.929685  0  0.482706  0  0  0.877055  0  0.675546  0  0  0.892905  0  0.651147  0  0  0.755902  0.865135  0  0.693065  0
K  K3  1  0.30972056  0.89464376  0.06675465  1  0  0.929747  0  0.482836  0  0  0.876918  0  0.675853  0  0  0.892769  0  0.65145  0  0  0.756059  0.865005  0  0.693385  0
H  H4  1  0.48718800  0.48330011  0.41588085  1  0  0.113653  0  0.979147  0  0  0.117588  0  1.053595  0  0  0.121493  0  1.050791  0  0  0.09065  0.114751  0  1.055772  0
H  H5  1  0.07246327  0.01678355  0.58413711  1  0  0.114336  0  0.978568  0  0  0.118426  0  1.053022  0  0  0.122438  0  1.050087  0  0  0.090895  0.115518  0  1.055264  0
H  H6  1  0.51281686  0.51669793  0.58411846  1  0  0.113658  0  0.979209  0  0  0.117606  0  1.053626  0  0  0.121513  0  1.050824  0  0  0.090677  0.114767  0  1.055813  0
H  H7  1  0.92753931  0.98321761  0.41586293  1  0  0.114309  0  0.97862  0  0  0.11837  0  1.053105  0  0  0.122379  0  1.050175  0  0  0.090865  0.115462  0  1.055349  0
H  H8  1  0.94762104  0.76954573  0.37019760  1  0  0.100524  0  0.982977  0  0  0.10357  0  1.058928  0  0  0.107095  0  1.056876  0  0  0.088528  0.100991  0  1.060574  0
H  H9  1  0.57728562  0.73020435  0.62961148  1  0  0.100455  0  0.98404  0  0  0.103887  0  1.059569  0  0  0.107417  0  1.057451  0  0  0.088684  0.101345  0  1.061175  0
H  H10  1  0.05237674  0.23045309  0.62980150  1  0  0.100524  0  0.982967  0  0  0.103557  0  1.058936  0  0  0.107081  0  1.056885  0  0  0.088512  0.100978  0  1.06058  0
H  H11  1  0.42271456  0.26979602  0.37038905  1  0  0.100487  0  0.984058  0  0  0.103907  0  1.059609  0  0  0.107438  0  1.05749  0  0  0.088685  0.101366  0  1.061191  0
H  H12  1  0.67278934  0.75661848  0.22267776  1  0  0.090891  0  0.967636  0  0  0.095958  0  1.039112  0  0  0.099807  0  1.036063  0  0  0.103372  0.093187  0  1.04138  0
H  H13  1  0.45054121  0.74320336  0.77719471  1  0  0.091112  0  0.966147  0  0  0.09575  0  1.038021  0  0  0.099676  0  1.034895  0  0  0.103515  0.092941  0  1.04031  0
H  H14  1  0.32720134  0.24338034  0.77732108  1  0  0.090923  0  0.967641  0  0  0.095963  0  1.039148  0  0  0.099811  0  1.036097  0  0  0.103371  0.093193  0  1.041406  0
H  H15  1  0.54945898  0.25679702  0.22280520  1  0  0.09115  0  0.966179  0  0  0.095787  0  1.038056  0  0  0.099713  0  1.03493  0  0  0.10353  0.092978  0  1.040338  0
H  H16  1  0.18062009  0.22335402  0.04403078  1  0  0.40527  0  0.913397  0  0  0.37609  0  0.976594  0  0  0.38732  0  0.960007  0  0  0.280894  0.368169  0  0.988274  0
H  H17  1  0.13681516  0.27651095  0.95610364  1  0  0.404742  0  0.914367  0  0  0.375619  0  0.977652  0  0  0.386836  0  0.961041  0  0  0.279887  0.367701  0  0.989357  0
H  H18  1  0.81938012  0.77664713  0.95596980  1  0  0.40529  0  0.913369  0  0  0.376118  0  0.976564  0  0  0.387347  0  0.959978  0  0  0.280892  0.368197  0  0.988244  0
H  H19  1  0.86318505  0.72349021  0.04389631  1  0  0.404755  0  0.914351  0  0  0.375633  0  0.977632  0  0  0.386851  0  0.961021  0  0  0.279877  0.367715  0  0.989337  0
C  C20  1  0.43055017  0.61256870  0.23354374  1  0  -0.120932  0  3.708369  0  0  -0.109566  0  3.948325  0  0  -0.115812  0  3.967968  0  0  -0.019786  -0.105624  0  3.935305  0
C  C21  1  0.19808272  0.88740672  0.76642707  1  0  -0.122354  0  3.710852  0  0  -0.110763  0  3.950889  0  0  -0.11701  0  3.970524  0  0  -0.020236  -0.106832  0  3.93787  0
C  C22  1  0.56944762  0.38743090  0.76645666  1  0  -0.120952  0  3.708444  0  0  -0.109559  0  3.948364  0  0  -0.115805  0  3.96801  0  0  -0.019799  -0.105614  0  3.93534  0
C  C23  1  0.80191983  0.11259366  0.23357355  1  0  -0.122333  0  3.710793  0  0  -0.110723  0  3.950819  0  0  -0.11697  0  3.970455  0  0  -0.020186  -0.106794  0  3.937803  0
C  C24  1  0.38662588  0.53567544  0.28943059  1  0  0.139019  0  3.757343  0  0  0.144556  0  4.023288  0  0  0.148984  0  4.044288  0  0  0.019974  0.141451  0  4.009237  0
C  C25  1  0.09838390  0.96436460  0.71058170  1  0  0.138988  0  3.757947  0  0  0.143995  0  4.024841  0  0  0.148398  0  4.045871  0  0  0.019931  0.14091  0  4.010742  0
C  C26  1  0.61337191  0.46432338  0.71056851  1  0  0.138981  0  3.757405  0  0  0.144535  0  4.023307  0  0  0.148962  0  4.044314  0  0  0.019936  0.141427  0  4.009258  0
C  C27  1  0.90162102  0.03563578  0.28941901  1  0  0.139013  0  3.757929  0  0  0.144002  0  4.024842  0  0  0.148404  0  4.045874  0  0  0.0199  0.140916  0  4.01075  0
C  C28  1  0.53194259  0.54279466  0.37345931  1  0  -0.20342  0  3.756322  0  0  -0.235568  0  4.012691  0  0  -0.23988  0  4.032288  0  0  -0.111379  -0.232601  0  3.999527  0
C  C29  1  0.15950307  0.95724062  0.62653304  1  0  -0.204118  0  3.756895  0  0  -0.236162  0  4.012375  0  0  -0.24061  0  4.032123  0  0  -0.110851  -0.233118  0  3.999196  0
C  C30  1  0.46805990  0.45720337  0.62653991  1  0  -0.203519  0  3.756396  0  0  -0.23567  0  4.012742  0  0  -0.239975  0  4.032319  0  0  -0.111471  -0.232698  0  3.999587  0
C  C31  1  0.84049950  0.04276053  0.37346826  1  0  -0.2041  0  3.756894  0  0  -0.236119  0  4.012383  0  0  -0.240562  0  4.032124  0  0  -0.110826  -0.233088  0  3.999214  0
C  C32  1  0.73308556  0.62727946  0.40168519  1  0  0.157597  0  3.798266  0  0  0.169663  0  4.063941  0  0  0.173955  0  4.084326  0  0  0.011248  0.166575  0  4.050277  0
C  C33  1  0.33198726  0.87266809  0.59824605  1  0  0.157957  0  3.797331  0  0  0.170191  0  4.063125  0  0  0.174454  0  4.083502  0  0  0.010689  0.167105  0  4.049473  0
C  C34  1  0.26691458  0.37271858  0.59831332  1  0  0.157709  0  3.798105  0  0  0.169772  0  4.063772  0  0  0.174062  0  4.084166  0  0  0.011326  0.166678  0  4.050115  0
C  C35  1  0.66801530  0.12733229  0.40175394  1  0  0.157954  0  3.797335  0  0  0.170191  0  4.063129  0  0  0.174453  0  4.083509  0  0  0.010686  0.167112  0  4.049459  0
C  C36  1  0.78660079  0.70476935  0.34788336  1  0  -0.13576  0  3.753963  0  0  -0.161305  0  4.011142  0  0  -0.164606  0  4.03135  0  0  -0.105395  -0.159071  0  3.997624  0
C  C37  1  0.43903783  0.79508754  0.65200051  1  0  -0.137305  0  3.755609  0  0  -0.163709  0  4.013569  0  0  -0.167006  0  4.033798  0  0  -0.106336  -0.161485  0  4.000053  0
C  C38  1  0.21339936  0.29522947  0.65211583  1  0  -0.135793  0  3.754093  0  0  -0.161331  0  4.01128  0  0  -0.164634  0  4.031494  0  0  -0.105436  -0.1591  0  3.997767  0
C  C39  1  0.56096239  0.20491362  0.34799881  1  0  -0.13732  0  3.755637  0  0  -0.163701  0  4.013562  0  0  -0.166997  0  4.033792  0  0  -0.106319  -0.161466  0  4.000017  0
C  C40  1  0.63185372  0.69682433  0.26529805  1  0  -0.036381  0  3.730367  0  0  -0.059623  0  3.986835  0  0  -0.059012  0  4.005583  0  0  -0.079788  -0.059904  0  3.974131  0
C  C41  1  0.36719477  0.80307747  0.73461141  1  0  -0.034597  0  3.730064  0  0  -0.057168  0  3.986336  0  0  -0.056622  0  4.005065  0  0  -0.079626  -0.057439  0  3.97374  0
C  C42  1  0.36813931  0.30317371  0.73470020  1  0  -0.036405  0  3.73052  0  0  -0.059638  0  3.986989  0  0  -0.05902  0  4.005728  0  0  -0.079729  -0.059919  0  3.974278  0
C  C43  1  0.63280780  0.19692369  0.26538926  1  0  -0.034692  0  3.730145  0  0  -0.057274  0  3.986429  0  0  -0.056731  0  4.00516  0  0  -0.079681  -0.057552  0  3.97383  0
C  C44  1  0.27688744  0.61187034  0.14246857  1  0  0.695141  0  3.91692  0  0  0.649103  0  4.212324  0  0  0.68297  0  4.202297  0  0  0.20019  0.626125  0  4.218318  0
C  C45  1  0.13547315  0.88812964  0.85749772  1  0  0.694741  0  3.917526  0  0  0.648452  0  4.213372  0  0  0.682324  0  4.203343  0  0  0.201454  0.625472  0  4.219359  0
C  C46  1  0.72310802  0.38813004  0.85753054  1  0  0.695167  0  3.916856  0  0  0.649074  0  4.212345  0  0  0.682939  0  4.202323  0  0  0.200161  0.626086  0  4.21835  0
C  C47  1  0.86452708  0.11187229  0.14250290  1  0  0.694801  0  3.917334  0  0  0.648506  0  4.21318  0  0  0.682377  0  4.203151  0  0  0.201445  0.625532  0  4.219168  0
Cl  Cl48  1  0.14377188  0.42679982  0.25869611  1  0  -0.094616  0  1.415861  0  0  -0.072605  0  1.667057  0  0  -0.076353  0  1.662566  0  0  0.026448  -0.069906  0  1.670324  0
Cl  Cl49  1  0.88632552  0.07323476  0.74135503  1  0  -0.094349  0  1.416169  0  0  -0.072248  0  1.66762  0  0  -0.075972  0  1.663147  0  0  0.026391  -0.069542  0  1.67085  0
Cl  Cl50  1  0.85622355  0.57319978  0.74130421  1  0  -0.094586  0  1.415819  0  0  -0.072579  0  1.666996  0  0  -0.076329  0  1.662504  0  0  0.026466  -0.069876  0  1.670274  0
Cl  Cl51  1  0.11367469  0.92676640  0.25864492  1  0  -0.094352  0  1.416221  0  0  -0.072249  0  1.667681  0  0  -0.075973  0  1.663209  0  0  0.026403  -0.069544  0  1.670918  0
Cl  Cl52  1  0.91982303  0.63575674  0.50517073  1  0  -0.086281  0  1.442792  0  0  -0.067739  0  1.701978  0  0  -0.072226  0  1.698909  0  0  0.017416  -0.06432  0  1.704165  0
Cl  Cl53  1  0.41482538  0.86414925  0.49470632  1  0  -0.086397  0  1.442673  0  0  -0.067713  0  1.701451  0  0  -0.072192  0  1.698476  0  0  0.01773  -0.06427  0  1.703573  0
Cl  Cl54  1  0.08018418  0.36424052  0.49482799  1  0  -0.086282  0  1.442791  0  0  -0.067731  0  1.701964  0  0  -0.072217  0  1.698891  0  0  0.017416  -0.064314  0  1.704145  0
Cl  Cl55  1  0.58517245  0.13585113  0.50529350  1  0  -0.086389  0  1.442675  0  0  -0.06771  0  1.701455  0  0  -0.07219  0  1.698479  0  0  0.017726  -0.06428  0  1.70357  0
O  O56  1  0.30034681  0.24989770  0.00007049  1  0  -0.943342  0  1.793702  0  0  -0.89709  0  1.961822  0  0  -0.916134  0  1.92999  0  0  -0.752289  -0.883469  0  1.984056  0
O  O57  1  0.69965338  0.75010268  0.99993004  1  0  -0.943368  0  1.793675  0  0  -0.897129  0  1.961765  0  0  -0.916173  0  1.929935  0  0  -0.752274  -0.883508  0  1.983998  0
O  O58  1  0.16757221  0.69904312  0.11877276  1  0  -0.696615  0  1.969564  0  0  -0.639748  0  2.196715  0  0  -0.665828  0  2.186877  0  0  -0.389209  -0.621331  0  2.2029  0
O  O59  1  0.04948465  0.80099683  0.88116801  1  0  -0.696906  0  1.970034  0  0  -0.639969  0  2.197275  0  0  -0.666045  0  2.187479  0  0  -0.390347  -0.621547  0  2.203436  0
O  O60  1  0.83243037  0.30095803  0.88122791  1  0  -0.696608  0  1.969524  0  0  -0.639724  0  2.196704  0  0  -0.665803  0  2.186868  0  0  -0.389189  -0.621295  0  2.20288  0
O  O61  1  0.95051556  0.19900433  0.11883195  1  0  -0.696909  0  1.969876  0  0  -0.639972  0  2.197114  0  0  -0.666046  0  2.187316  0  0  -0.390341  -0.62155  0  2.203273  0
O  O62  1  0.27376056  0.52760337  0.09545735  1  0  -0.785622  0  1.971736  0  0  -0.738405  0  2.214137  0  0  -0.762246  0  2.201718  0  0  -0.512166  -0.721433  0  2.222114  0
O  O63  1  0.17961547  0.97236613  0.90453632  1  0  -0.78488  0  1.971839  0  0  -0.737463  0  2.214387  0  0  -0.761309  0  2.20197  0  0  -0.512443  -0.720486  0  2.22236  0
O  O64  1  0.72623016  0.47239701  0.90454221  1  0  -0.785613  0  1.971672  0  0  -0.738374  0  2.214091  0  0  -0.762217  0  2.201675  0  0  -0.512126  -0.721406  0  2.222074  0
O  O65  1  0.82038711  0.02763503  0.09546372  1  0  -0.784921  0  1.971778  0  0  -0.737505  0  2.214324  0  0  -0.761349  0  2.201907  0  0  -0.512459  -0.720536  0  2.222305  0
