# generated using pymatgen
data_CdH16C14S(NO3)2
_symmetry_space_group_name_H-M   'P 1'
_cell_length_a   7.05262118
_cell_length_b   10.59583271
_cell_length_c   10.59577363
_cell_angle_alpha   88.09288208
_cell_angle_beta   74.67780133
_cell_angle_gamma   74.67705615
_symmetry_Int_Tables_number   1
_chemical_formula_structural   CdH16C14S(NO3)2
_chemical_formula_sum   'Cd2 H32 C28 S2 N4 O12'
_cell_volume   735.94484842
_cell_formula_units_Z   2
loop_
 _symmetry_equiv_pos_site_id
 _symmetry_equiv_pos_as_xyz
  1  'x, y, z'
loop_
 _atom_site_type_symbol
 _atom_site_label
 _atom_site_symmetry_multiplicity
 _atom_site_fract_x
 _atom_site_fract_y
 _atom_site_fract_z
 _atom_site_occupancy
 _atom_site_hle17_bader_spin_density
 _atom_site_hle17_ddec_charge
 _atom_site_hle17_ddec_spin_density
 _atom_site_hle17_ddec_sum_bond_order
 _atom_site_hle17_magmom
 _atom_site_hse06_10hf_bader_spin_density
 _atom_site_hse06_10hf_ddec_charge
 _atom_site_hse06_10hf_ddec_spin_density
 _atom_site_hse06_10hf_ddec_sum_bond_order
 _atom_site_hse06_10hf_magmom
 _atom_site_hse06_bader_spin_density
 _atom_site_hse06_ddec_charge
 _atom_site_hse06_ddec_spin_density
 _atom_site_hse06_ddec_sum_bond_order
 _atom_site_hse06_magmom
 _atom_site_pbe_bader_spin_density
 _atom_site_pbe_cm5_charge
 _atom_site_pbe_ddec_charge
 _atom_site_pbe_ddec_spin_density
 _atom_site_pbe_ddec_sum_bond_order
 _atom_site_pbe_magmom
Cd  Cd0  1  0.25000402  0.29731968  0.70268172  1  0  1.207477  0  1.562459  0  0  1.027144  0  1.994155  0  0  1.080474  0  1.94275  0  0  0.790839  0.989007  0  2.029377  0
Cd  Cd1  1  0.74999945  0.70268079  0.29731799  1  0  1.207504  0  1.562446  0  0  1.027142  0  1.994182  0  0  1.080486  0  1.94275  0  0  0.790826  0.989002  0  2.029405  0
H  H2  1  0.23874503  0.79250125  0.61173275  1  0  0.12405  0  0.966365  0  0  0.131402  0  1.027236  0  0  0.134743  0  1.02647  0  0  0.108131  0.129337  0  1.027388  0
H  H3  1  0.73872603  0.61173803  0.79249833  1  0  0.12403  0  0.966452  0  0  0.131363  0  1.02734  0  0  0.134704  0  1.026577  0  0  0.108117  0.1293  0  1.027492  0
H  H4  1  0.76125951  0.20750018  0.38826770  1  0  0.124039  0  0.966388  0  0  0.131389  0  1.027263  0  0  0.134731  0  1.026499  0  0  0.108116  0.129324  0  1.027416  0
H  H5  1  0.26126269  0.38826267  0.20750277  1  0  0.12403  0  0.966441  0  0  0.131396  0  1.027282  0  0  0.134739  0  1.026513  0  0  0.108122  0.129331  0  1.027434  0
H  H6  1  0.24396132  0.72154708  0.83786121  1  0  0.10413  0  0.941174  0  0  0.118889  0  0.997405  0  0  0.121199  0  0.996065  0  0  0.112124  0.117161  0  0.99852  0
H  H7  1  0.74394970  0.83786205  0.72155024  1  0  0.10405  0  0.941242  0  0  0.118783  0  0.997517  0  0  0.121085  0  0.996188  0  0  0.112072  0.117061  0  0.998624  0
H  H8  1  0.75605512  0.27844635  0.16213575  1  0  0.104063  0  0.941158  0  0  0.118795  0  0.997433  0  0  0.12111  0  0.996085  0  0  0.112075  0.117064  0  0.998551  0
H  H9  1  0.25603824  0.16214061  0.27845186  1  0  0.104078  0  0.941134  0  0  0.118816  0  0.997398  0  0  0.121118  0  0.996069  0  0  0.112077  0.117089  0  0.99851  0
H  H10  1  0.24400677  0.77692531  0.06406805  1  0  0.111851  0  0.947199  0  0  0.123209  0  1.007266  0  0  0.125707  0  1.006658  0  0  0.10596  0.120824  0  1.008985  0
H  H11  1  0.74400234  0.06406567  0.77692391  1  0  0.111838  0  0.947252  0  0  0.123175  0  1.007337  0  0  0.125693  0  1.006703  0  0  0.105923  0.120793  0  1.009048  0
H  H12  1  0.75599973  0.22307119  0.93592943  1  0  0.111867  0  0.94718  0  0  0.123229  0  1.007232  0  0  0.125725  0  1.006627  0  0  0.105929  0.120854  0  1.008939  0
H  H13  1  0.25599004  0.93593303  0.22307762  1  0  0.111833  0  0.947244  0  0  0.123167  0  1.007331  0  0  0.125693  0  1.006687  0  0  0.105951  0.120784  0  1.00904  0
H  H14  1  0.15589411  0.52324195  0.90992420  1  0  0.130597  0  0.977044  0  0  0.151274  0  1.03804  0  0  0.152895  0  1.037813  0  0  0.095642  0.149961  0  1.038935  0
H  H15  1  0.65589476  0.90992672  0.52324322  1  0  0.130676  0  0.976974  0  0  0.151322  0  1.037998  0  0  0.152943  0  1.03777  0  0  0.095651  0.150009  0  1.038893  0
H  H16  1  0.84409688  0.47676065  0.09007553  1  0  0.130494  0  0.977143  0  0  0.151253  0  1.038078  0  0  0.152865  0  1.03786  0  0  0.095634  0.149941  0  1.038972  0
H  H17  1  0.34411028  0.09007370  0.47675435  1  0  0.130657  0  0.977008  0  0  0.151288  0  1.038062  0  0  0.152906  0  1.037839  0  0  0.09563  0.149975  0  1.038955  0
H  H18  1  0.41608440  0.48017901  0.90484663  1  0  0.132109  0  0.943301  0  0  0.15433  0  1.002992  0  0  0.15575  0  1.002921  0  0  0.100296  0.153478  0  1.003331  0
H  H19  1  0.91608384  0.90484663  0.48018576  1  0  0.132158  0  0.943216  0  0  0.154367  0  1.002923  0  0  0.155788  0  1.002852  0  0  0.100285  0.153511  0  1.003265  0
H  H20  1  0.58390761  0.51982067  0.09515493  1  0  0.132064  0  0.943314  0  0  0.154311  0  1.003002  0  0  0.155732  0  1.002932  0  0  0.100286  0.153458  0  1.00334  0
H  H21  1  0.08392148  0.09515283  0.51981369  1  0  0.132179  0  0.943184  0  0  0.154389  0  1.002891  0  0  0.15581  0  1.00282  0  0  0.100297  0.153532  0  1.003236  0
H  H22  1  0.23209613  0.54810455  0.05385403  1  0  0.131829  0  0.961756  0  0  0.150249  0  1.025712  0  0  0.152487  0  1.024592  0  0  0.094024  0.148052  0  1.027751  0
H  H23  1  0.73209031  0.05385532  0.54810635  1  0  0.131854  0  0.961842  0  0  0.150285  0  1.025762  0  0  0.152522  0  1.024645  0  0  0.094058  0.148088  0  1.027801  0
H  H24  1  0.76789704  0.45189608  0.94614637  1  0  0.131799  0  0.961751  0  0  0.150279  0  1.025655  0  0  0.152519  0  1.024529  0  0  0.094022  0.14808  0  1.027696  0
H  H25  1  0.26791324  0.94614513  0.45189147  1  0  0.131848  0  0.961858  0  0  0.15029  0  1.02576  0  0  0.152525  0  1.024644  0  0  0.094063  0.148093  0  1.027797  0
H  H26  1  0.18561032  0.56511214  0.61400093  1  0  0.429214  0  0.873457  0  0  0.395973  0  0.93989  0  0  0.406878  0  0.924132  0  0  0.288536  0.387953  0  0.951437  0
H  H27  1  0.68561305  0.61400081  0.56510989  1  0  0.429219  0  0.873455  0  0  0.395993  0  0.939856  0  0  0.406895  0  0.924102  0  0  0.288554  0.387976  0  0.951399  0
H  H28  1  0.81439311  0.43488833  0.38599974  1  0  0.429246  0  0.873402  0  0  0.396003  0  0.939836  0  0  0.406903  0  0.924085  0  0  0.288553  0.387983  0  0.951384  0
H  H29  1  0.31439162  0.38600059  0.43488772  1  0  0.429226  0  0.873423  0  0  0.395987  0  0.939852  0  0  0.406888  0  0.924099  0  0  0.288554  0.387968  0  0.951397  0
H  H30  1  0.37279216  0.51801005  0.67735895  1  0  0.41573  0  0.896908  0  0  0.383371  0  0.963286  0  0  0.394023  0  0.947927  0  0  0.28619  0.375876  0  0.974032  0
H  H31  1  0.87278961  0.67735962  0.51800981  1  0  0.415762  0  0.896863  0  0  0.383407  0  0.963234  0  0  0.39406  0  0.947873  0  0  0.286205  0.375912  0  0.97398  0
H  H32  1  0.62721205  0.48199235  0.32264058  1  0  0.415806  0  0.896809  0  0  0.383431  0  0.963205  0  0  0.394079  0  0.947851  0  0  0.286219  0.375935  0  0.973952  0
H  H33  1  0.12721386  0.32264084  0.48198990  1  0  0.415808  0  0.8968  0  0  0.38344  0  0.963184  0  0  0.394088  0  0.947831  0  0  0.28623  0.375944  0  0.973932  0
C  C34  1  0.24555116  0.98962523  0.65165146  1  0  0.339829  0  3.713783  0  0  0.344565  0  3.960352  0  0  0.355402  0  3.97968  0  0  0.133846  0.337601  0  3.946585  0
C  C35  1  0.74553530  0.65165393  0.98962794  1  0  0.339785  0  3.714055  0  0  0.344609  0  3.960494  0  0  0.355442  0  3.979829  0  0  0.133787  0.337644  0  3.946726  0
C  C36  1  0.75445148  0.01037332  0.34835034  1  0  0.339937  0  3.71387  0  0  0.344621  0  3.960474  0  0  0.355458  0  3.979802  0  0  0.133837  0.337656  0  3.946706  0
C  C37  1  0.25445293  0.34834777  0.01037604  1  0  0.339767  0  3.713971  0  0  0.344559  0  3.960442  0  0  0.355393  0  3.979776  0  0  0.133835  0.337594  0  3.946674  0
C  C38  1  0.24358245  0.85986413  0.68551243  1  0  -0.158423  0  3.668514  0  0  -0.174951  0  3.917059  0  0  -0.183129  0  3.936881  0  0  -0.083499  -0.169289  0  3.902443  0
C  C39  1  0.74357309  0.68550952  0.85986413  1  0  -0.158451  0  3.668588  0  0  -0.174992  0  3.917085  0  0  -0.183171  0  3.936909  0  0  -0.083449  -0.169331  0  3.902473  0
C  C40  1  0.75641759  0.14013349  0.31448982  1  0  -0.158504  0  3.668469  0  0  -0.17503  0  3.917027  0  0  -0.183211  0  3.936854  0  0  -0.083494  -0.169368  0  3.902409  0
C  C41  1  0.25642007  0.31449111  0.14013627  1  0  -0.158368  0  3.668618  0  0  -0.174919  0  3.91711  0  0  -0.1831  0  3.936935  0  0  -0.083459  -0.169257  0  3.902493  0
C  C42  1  0.24565609  0.82135646  0.81041794  1  0  -0.024997  0  3.696413  0  0  -0.05123  0  3.946455  0  0  -0.047368  0  3.963775  0  0  -0.060862  -0.053215  0  3.933816  0
C  C43  1  0.74564112  0.81042003  0.82135762  1  0  -0.024811  0  3.696276  0  0  -0.05103  0  3.946292  0  0  -0.047162  0  3.963614  0  0  -0.060774  -0.053019  0  3.933652  0
C  C44  1  0.75435616  0.17863999  0.18958241  1  0  -0.02478  0  3.696223  0  0  -0.050996  0  3.946202  0  0  -0.047139  0  3.963521  0  0  -0.060736  -0.052981  0  3.93356  0
C  C45  1  0.25435037  0.18958157  0.17863923  1  0  -0.024963  0  3.696418  0  0  -0.051176  0  3.946471  0  0  -0.04731  0  3.963797  0  0  -0.060798  -0.053161  0  3.933826  0
C  C46  1  0.24752324  0.91194687  0.90421723  1  0  0.009388  0  3.819263  0  0  0.02474  0  4.053903  0  0  0.021637  0  4.078453  0  0  -0.005954  0.027007  0  4.037005  0
C  C47  1  0.74751079  0.90421915  0.91194829  1  0  0.009313  0  3.819481  0  0  0.024708  0  4.054025  0  0  0.021603  0  4.07858  0  0  -0.00601  0.026972  0  4.037134  0
C  C48  1  0.75248466  0.08804963  0.09578192  1  0  0.009223  0  3.819266  0  0  0.024675  0  4.053798  0  0  0.021573  0  4.078349  0  0  -0.005995  0.026942  0  4.036899  0
C  C49  1  0.25248261  0.09578052  0.08805493  1  0  0.009362  0  3.819255  0  0  0.024708  0  4.053901  0  0  0.021606  0  4.078455  0  0  -0.00601  0.026975  0  4.037002  0
C  C50  1  0.25027148  0.04111913  0.86356583  1  0  0.136634  0  3.754707  0  0  0.129706  0  3.994974  0  0  0.135024  0  4.016735  0  0  0.115521  0.125763  0  3.981099  0
C  C51  1  0.75025632  0.86356565  0.04112123  1  0  0.136586  0  3.755029  0  0  0.129666  0  3.99525  0  0  0.134982  0  4.017013  0  0  0.115565  0.125724  0  3.981374  0
C  C52  1  0.74972644  0.95887656  0.13643493  1  0  0.13676  0  3.754596  0  0  0.129724  0  3.994902  0  0  0.135036  0  4.016666  0  0  0.115449  0.125782  0  3.981025  0
C  C53  1  0.24973405  0.13643499  0.95887583  1  0  0.136556  0  3.754828  0  0  0.129593  0  3.995115  0  0  0.134906  0  4.016876  0  0  0.115494  0.125648  0  3.981241  0
C  C54  1  0.25225778  0.96478908  0.12387615  1  0  -0.091539  0  3.729783  0  0  -0.119161  0  3.994848  0  0  -0.12176  0  4.01707  0  0  -0.086653  -0.117009  0  3.97986  0
C  C55  1  0.75226264  0.12387400  0.96478938  1  0  -0.091467  0  3.729469  0  0  -0.119145  0  3.994504  0  0  -0.121724  0  4.016743  0  0  -0.086617  -0.117002  0  3.979512  0
C  C56  1  0.74773685  0.03520763  0.87612415  1  0  -0.091453  0  3.729552  0  0  -0.119114  0  3.994628  0  0  -0.121707  0  4.016853  0  0  -0.086574  -0.116963  0  3.979646  0
C  C57  1  0.24774592  0.87612445  0.03521149  1  0  -0.091438  0  3.729613  0  0  -0.119097  0  3.994672  0  0  -0.121678  0  4.016915  0  0  -0.086611  -0.116948  0  3.979687  0
C  C58  1  0.26347920  0.48304922  0.96826348  1  0  -0.403543  0  3.680999  0  0  -0.486871  0  3.913206  0  0  -0.49093  0  3.92046  0  0  -0.248794  -0.484268  0  3.909693  0
C  C59  1  0.76347559  0.96826412  0.48305239  1  0  -0.403726  0  3.68092  0  0  -0.486982  0  3.913164  0  0  -0.491041  0  3.92041  0  0  -0.248801  -0.48438  0  3.909654  0
C  C60  1  0.73651211  0.51695241  0.03173717  1  0  -0.403382  0  3.68103  0  0  -0.486873  0  3.913199  0  0  -0.490923  0  3.920451  0  0  -0.248773  -0.48427  0  3.909685  0
C  C61  1  0.23652945  0.03173630  0.51694519  1  0  -0.4037  0  3.680895  0  0  -0.48697  0  3.913119  0  0  -0.491027  0  3.920373  0  0  -0.248813  -0.484367  0  3.909608  0
S  S62  1  0.75000506  0.35690484  0.64309624  1  0  1.578333  0  5.823142  0  0  1.447359  0  6.371253  0  0  1.503408  0  6.334709  0  0  0.56525  1.408164  0  6.395696  0
S  S63  1  0.25000211  0.64309751  0.35690282  1  0  1.578274  0  5.823181  0  0  1.447285  0  6.371321  0  0  1.503337  0  6.334782  0  0  0.565172  1.408087  0  6.39577  0
N  N64  1  0.25233147  0.07640188  0.73859647  1  0  -0.423665  0  3.178542  0  0  -0.356509  0  3.436072  0  0  -0.378474  0  3.454694  0  0  -0.322397  -0.341758  0  3.423498  0
N  N65  1  0.75231679  0.73859952  0.07640129  1  0  -0.423685  0  3.178833  0  0  -0.356533  0  3.436278  0  0  -0.3785  0  3.454904  0  0  -0.32238  -0.341782  0  3.4237  0
N  N66  1  0.74766642  0.92360160  0.26140497  1  0  -0.423783  0  3.178708  0  0  -0.356561  0  3.436249  0  0  -0.378526  0  3.454871  0  0  -0.322402  -0.34181  0  3.423673  0
N  N67  1  0.24767189  0.26140119  0.92360076  1  0  -0.423591  0  3.17884  0  0  -0.356418  0  3.436301  0  0  -0.378379  0  3.454924  0  0  -0.322374  -0.341667  0  3.423725  0
O  O68  1  0.88147363  0.33381798  0.73479345  1  0  -0.747096  0  1.960684  0  0  -0.68658  0  2.237414  0  0  -0.709721  0  2.217768  0  0  -0.363942  -0.670033  0  2.251154  0
O  O69  1  0.38146752  0.73479485  0.33381647  1  0  -0.747025  0  1.960653  0  0  -0.68653  0  2.237411  0  0  -0.709672  0  2.217771  0  0  -0.363904  -0.669983  0  2.25115  0
O  O70  1  0.11853166  0.66618539  0.26520681  1  0  -0.747133  0  1.960663  0  0  -0.686567  0  2.237363  0  0  -0.70971  0  2.21772  0  0  -0.363935  -0.670023  0  2.251103  0
O  O71  1  0.61853579  0.26520954  0.66618691  1  0  -0.747063  0  1.960566  0  0  -0.68656  0  2.237315  0  0  -0.709705  0  2.217678  0  0  -0.363941  -0.670015  0  2.251051  0
O  O72  1  0.61829928  0.49580312  0.66232058  1  0  -0.757309  0  1.999702  0  0  -0.684834  0  2.234453  0  0  -0.707408  0  2.216197  0  0  -0.35479  -0.668611  0  2.246626  0
O  O73  1  0.11829777  0.66232373  0.49580146  1  0  -0.757292  0  1.999697  0  0  -0.68483  0  2.234475  0  0  -0.707416  0  2.216226  0  0  -0.35479  -0.668602  0  2.246648  0
O  O74  1  0.38170654  0.50419923  0.33767586  1  0  -0.757347  0  1.99981  0  0  -0.684827  0  2.234542  0  0  -0.707389  0  2.216281  0  0  -0.354737  -0.668599  0  2.246713  0
O  O75  1  0.88170644  0.33767477  0.50419820  1  0  -0.757397  0  1.999835  0  0  -0.684871  0  2.234554  0  0  -0.707427  0  2.216287  0  0  -0.354769  -0.66864  0  2.246721  0
O  O76  1  0.22621501  0.51946259  0.69051452  1  0  -0.851692  0  1.885297  0  0  -0.784834  0  2.08669  0  0  -0.808925  0  2.055273  0  0  -0.591452  -0.767426  0  2.108512  0
O  O77  1  0.72621416  0.69051511  0.51946204  1  0  -0.851736  0  1.885295  0  0  -0.78488  0  2.08668  0  0  -0.808971  0  2.055261  0  0  -0.591477  -0.767468  0  2.108492  0
O  O78  1  0.77378953  0.48053884  0.30948593  1  0  -0.851754  0  1.885154  0  0  -0.784898  0  2.086597  0  0  -0.808989  0  2.055188  0  0  -0.591481  -0.767488  0  2.108416  0
O  O79  1  0.27379190  0.30948628  0.48053723  1  0  -0.851753  0  1.885187  0  0  -0.78489  0  2.0866  0  0  -0.808978  0  2.055191  0  0  -0.591499  -0.767481  0  2.108419  0
