# generated using pymatgen
data_CdH26C22(IN2)2
_symmetry_space_group_name_H-M   'P 1'
_cell_length_a   9.21363617
_cell_length_b   10.46021905
_cell_length_c   14.03865107
_cell_angle_alpha   86.26944323
_cell_angle_beta   76.68427025
_cell_angle_gamma   70.73825601
_symmetry_Int_Tables_number   1
_chemical_formula_structural   CdH26C22(IN2)2
_chemical_formula_sum   'Cd2 H52 C44 I4 N8'
_cell_volume   1242.83332376
_cell_formula_units_Z   2
loop_
 _symmetry_equiv_pos_site_id
 _symmetry_equiv_pos_as_xyz
  1  'x, y, z'
loop_
 _atom_site_type_symbol
 _atom_site_label
 _atom_site_symmetry_multiplicity
 _atom_site_fract_x
 _atom_site_fract_y
 _atom_site_fract_z
 _atom_site_occupancy
 _atom_site_hle17_bader_spin_density
 _atom_site_hle17_ddec_charge
 _atom_site_hle17_ddec_spin_density
 _atom_site_hle17_ddec_sum_bond_order
 _atom_site_hle17_magmom
 _atom_site_hse06_10hf_bader_spin_density
 _atom_site_hse06_10hf_ddec_charge
 _atom_site_hse06_10hf_ddec_spin_density
 _atom_site_hse06_10hf_ddec_sum_bond_order
 _atom_site_hse06_10hf_magmom
 _atom_site_hse06_bader_spin_density
 _atom_site_hse06_ddec_charge
 _atom_site_hse06_ddec_spin_density
 _atom_site_hse06_ddec_sum_bond_order
 _atom_site_hse06_magmom
 _atom_site_pbe_bader_spin_density
 _atom_site_pbe_cm5_charge
 _atom_site_pbe_ddec_charge
 _atom_site_pbe_ddec_spin_density
 _atom_site_pbe_ddec_sum_bond_order
 _atom_site_pbe_magmom
Cd  Cd0  1  0.76880482  0.36361178  0.21320083  1  0  0.795629  0  2.055406  0  0  0.624742  0  2.528589  0  0  0.669374  0  2.492155  0  0  0.545747  0.594592  0  2.552793  0
Cd  Cd1  1  0.23119444  0.63638553  0.78680157  1  0  0.795642  0  2.055354  0  0  0.62476  0  2.52852  0  0  0.669397  0  2.492084  0  0  0.54578  0.59461  0  2.552722  0
H  H2  1  0.62878246  0.28609752  0.02945697  1  0  0.092375  0  0.941801  0  0  0.099422  0  1.012811  0  0  0.102482  0  1.00836  0  0  0.129506  0.097082  0  1.015952  0
H  H3  1  0.37122346  0.71390283  0.97054286  1  0  0.092347  0  0.941804  0  0  0.099393  0  1.012794  0  0  0.102443  0  1.008361  0  0  0.129501  0.097052  0  1.015936  0
H  H4  1  0.94802774  0.03217747  0.26976914  1  0  0.088873  0  1.000821  0  0  0.097787  0  1.070173  0  0  0.100827  0  1.067982  0  0  0.088651  0.095759  0  1.071505  0
H  H5  1  0.05197668  0.96782389  0.73023016  1  0  0.088945  0  1.00079  0  0  0.097847  0  1.070148  0  0  0.100885  0  1.067961  0  0  0.088663  0.09582  0  1.071479  0
H  H6  1  0.90012841  0.78110690  0.99134655  1  0  0.104523  0  0.974253  0  0  0.111447  0  1.046309  0  0  0.1147  0  1.044327  0  0  0.094278  0.109196  0  1.047091  0
H  H7  1  0.09987603  0.21889445  0.00865132  1  0  0.104563  0  0.974197  0  0  0.111473  0  1.04625  0  0  0.114726  0  1.044269  0  0  0.094294  0.109221  0  1.047034  0
H  H8  1  0.78966394  0.98417336  0.87396040  1  0  0.069418  0  0.961861  0  0  0.080179  0  1.035778  0  0  0.080906  0  1.035906  0  0  0.095796  0.07962  0  1.036011  0
H  H9  1  0.21033900  0.01582900  0.12603764  1  0  0.069447  0  0.961891  0  0  0.080236  0  1.035764  0  0  0.080952  0  1.035903  0  0  0.09581  0.079675  0  1.036002  0
H  H10  1  0.63133048  0.14004150  0.89713400  1  0  0.07452  0  0.943527  0  0  0.09317  0  1.004021  0  0  0.093841  0  1.004145  0  0  0.100129  0.09233  0  1.004436  0
H  H11  1  0.36866944  0.85996289  0.10286580  1  0  0.074561  0  0.94344  0  0  0.093156  0  1.003987  0  0  0.093829  0  1.00411  0  0  0.100101  0.092317  0  1.004402  0
H  H12  1  0.41703337  0.55790028  0.33468111  1  0  0.090679  0  0.954933  0  0  0.097951  0  1.025485  0  0  0.10083  0  1.021438  0  0  0.12779  0.095757  0  1.028423  0
H  H13  1  0.58296040  0.44209394  0.66531728  1  0  0.090707  0  0.954866  0  0  0.097917  0  1.025482  0  0  0.100795  0  1.021436  0  0  0.127775  0.095724  0  1.028415  0
H  H14  1  0.81842884  0.12386613  0.40107300  1  0  0.098976  0  0.982102  0  0  0.108762  0  1.049007  0  0  0.111611  0  1.047457  0  0  0.09626  0.106993  0  1.049714  0
H  H15  1  0.18156080  0.87613012  0.59892732  1  0  0.098928  0  0.982157  0  0  0.108715  0  1.049058  0  0  0.111564  0  1.047508  0  0  0.096257  0.106947  0  1.049763  0
H  H16  1  0.29768673  0.29343233  0.64162885  1  0  0.111053  0  0.949797  0  0  0.123456  0  1.009027  0  0  0.126468  0  1.007843  0  0  0.103545  0.121271  0  1.010031  0
H  H17  1  0.70231181  0.70656396  0.35837300  1  0  0.11107  0  0.949793  0  0  0.123468  0  1.009016  0  0  0.126483  0  1.007824  0  0  0.103558  0.121277  0  1.010027  0
H  H18  1  0.37848888  0.11124928  0.74479388  1  0  0.109823  0  0.961734  0  0  0.126925  0  1.029328  0  0  0.128002  0  1.030395  0  0  0.086486  0.126282  0  1.028355  0
H  H19  1  0.62150627  0.88875004  0.25520832  1  0  0.109895  0  0.961698  0  0  0.126999  0  1.029275  0  0  0.128077  0  1.030343  0  0  0.086496  0.126355  0  1.028301  0
H  H20  1  0.58300735  0.02047989  0.73121950  1  0  0.103728  0  0.956835  0  0  0.126143  0  1.016841  0  0  0.127221  0  1.016782  0  0  0.08702  0.125403  0  1.016928  0
H  H21  1  0.41698746  0.97951740  0.26878285  1  0  0.103786  0  0.956838  0  0  0.126223  0  1.016814  0  0  0.127302  0  1.016757  0  0  0.087037  0.125483  0  1.016904  0
H  H22  1  0.46726678  0.95920407  0.67364137  1  0  0.111891  0  0.937195  0  0  0.134236  0  0.995672  0  0  0.135117  0  0.996541  0  0  0.090196  0.133715  0  0.994898  0
H  H23  1  0.53272799  0.04079626  0.32636083  1  0  0.111964  0  0.937179  0  0  0.134337  0  0.995614  0  0  0.135219  0  0.996483  0  0  0.090224  0.133816  0  0.994841  0
H  H24  1  0.10971363  0.35786295  0.51677774  1  0  0.068304  0  0.93823  0  0  0.088923  0  0.996426  0  0  0.08953  0  0.997328  0  0  0.092159  0.088007  0  0.996748  0
H  H25  1  0.89028267  0.64213634  0.48321931  1  0  0.068266  0  0.938254  0  0  0.088901  0  0.996438  0  0  0.089513  0  0.997341  0  0  0.09214  0.087985  0  0.996759  0
H  H26  1  0.11263803  0.43895822  0.40271057  1  0  0.070818  0  0.961872  0  0  0.084782  0  1.029489  0  0  0.086388  0  1.0289  0  0  0.080117  0.083463  0  1.030016  0
H  H27  1  0.88736156  0.56104413  0.59728725  1  0  0.070852  0  0.961815  0  0  0.084824  0  1.029439  0  0  0.086436  0  1.028853  0  0  0.080147  0.083506  0  1.029964  0
H  H28  1  0.17591659  0.62819384  0.47159276  1  0  0.075196  0  0.915268  0  0  0.094589  0  0.973588  0  0  0.094679  0  0.974647  0  0  0.112749  0.094104  0  0.973621  0
H  H29  1  0.82408415  0.37180548  0.52840647  1  0  0.075186  0  0.915286  0  0  0.094585  0  0.973595  0  0  0.094676  0  0.974652  0  0  0.112745  0.094102  0  0.973628  0
H  H30  1  0.17860709  0.54218944  0.58374689  1  0  0.064171  0  0.956548  0  0  0.074373  0  1.03295  0  0  0.075169  0  1.032358  0  0  0.096771  0.073653  0  1.033804  0
H  H31  1  0.82138581  0.45781290  0.41625264  1  0  0.064129  0  0.956583  0  0  0.074358  0  1.032974  0  0  0.075156  0  1.032377  0  0  0.096749  0.073636  0  1.033829  0
H  H32  1  0.07003402  0.57914280  0.03908358  1  0  0.101813  0  0.96654  0  0  0.122375  0  1.030139  0  0  0.123665  0  1.030212  0  0  0.078559  0.121036  0  1.031101  0
H  H33  1  0.92996300  0.42085752  0.96091544  1  0  0.101841  0  0.96651  0  0  0.122397  0  1.030103  0  0  0.123687  0  1.030177  0  0  0.07857  0.121054  0  1.031074  0
H  H34  1  0.03580169  0.56002521  0.16767152  1  0  0.091743  0  1.007233  0  0  0.109811  0  1.077526  0  0  0.110947  0  1.077862  0  0  0.067983  0.108212  0  1.078834  0
H  H35  1  0.96419604  0.43997613  0.83232877  1  0  0.091744  0  1.007237  0  0  0.109808  0  1.077526  0  0  0.110944  0  1.077865  0  0  0.067978  0.10821  0  1.078832  0
H  H36  1  0.20844453  0.59184139  0.10427466  1  0  0.097238  0  0.961716  0  0  0.115965  0  1.028873  0  0  0.11708  0  1.028918  0  0  0.078922  0.114268  0  1.030552  0
H  H37  1  0.79155704  0.40815285  0.89572256  1  0  0.097227  0  0.961726  0  0  0.115954  0  1.028879  0  0  0.117069  0  1.028925  0  0  0.078927  0.11426  0  1.030553  0
H  H38  1  0.06378148  0.67864443  0.30467125  1  0  0.102926  0  0.946288  0  0  0.127459  0  1.002763  0  0  0.128516  0  1.003028  0  0  0.088281  0.126701  0  1.002373  0
H  H39  1  0.93622105  0.32135896  0.69532894  1  0  0.102948  0  0.946347  0  0  0.127505  0  1.002782  0  0  0.128561  0  1.003047  0  0  0.088299  0.126746  0  1.002391  0
H  H40  1  0.10020539  0.82934712  0.32911804  1  0  0.100001  0  0.952215  0  0  0.122708  0  1.010599  0  0  0.124215  0  1.010444  0  0  0.08666  0.12136  0  1.011033  0
H  H41  1  0.89979678  0.17065726  0.67087929  1  0  0.099998  0  0.952148  0  0  0.122709  0  1.010538  0  0  0.124216  0  1.010382  0  0  0.086655  0.12136  0  1.01097  0
H  H42  1  0.23012068  0.71510431  0.23413620  1  0  0.09874  0  0.970016  0  0  0.115322  0  1.042136  0  0  0.116774  0  1.041723  0  0  0.080665  0.113625  0  1.043511  0
H  H43  1  0.76988334  0.28489807  0.76586524  1  0  0.098762  0  0.969957  0  0  0.115363  0  1.042061  0  0  0.116815  0  1.04165  0  0  0.080692  0.113668  0  1.043432  0
H  H44  1  0.89759698  0.93205344  0.49522636  1  0  0.099113  0  0.952847  0  0  0.122132  0  1.011659  0  0  0.123285  0  1.011707  0  0  0.086081  0.121429  0  1.011583  0
H  H45  1  0.10240005  0.06794387  0.50477638  1  0  0.099104  0  0.952811  0  0  0.122119  0  1.011642  0  0  0.123273  0  1.01169  0  0  0.086089  0.121418  0  1.011564  0
H  H46  1  0.73995806  0.86735670  0.54281000  1  0  0.106463  0  0.951068  0  0  0.126894  0  1.01425  0  0  0.127909  0  1.015123  0  0  0.088495  0.126334  0  1.013612  0
H  H47  1  0.26004048  0.13263958  0.45719114  1  0  0.106466  0  0.951132  0  0  0.126909  0  1.014298  0  0  0.127924  0  1.015172  0  0  0.08849  0.126349  0  1.013661  0
H  H48  1  0.81264027  0.94015892  0.62292099  1  0  0.097625  0  0.987179  0  0  0.113563  0  1.058845  0  0  0.115247  0  1.058144  0  0  0.075199  0.112381  0  1.059312  0
H  H49  1  0.18735489  0.05984040  0.37708050  1  0  0.097608  0  0.987252  0  0  0.113579  0  1.058875  0  0  0.115265  0  1.058174  0  0  0.07522  0.112397  0  1.059344  0
H  H50  1  0.53053321  0.95044958  0.89389303  1  0  0.073793  0  0.941961  0  0  0.093852  0  1.000106  0  0  0.094377  0  1.001104  0  0  0.092392  0.093512  0  0.999466  0
H  H51  1  0.46946897  0.04955178  0.10610731  1  0  0.073832  0  0.941952  0  0  0.093901  0  1.00009  0  0  0.094426  0  1.001089  0  0  0.092394  0.093562  0  0.999456  0
H  H52  1  0.63094287  0.86135939  0.98294731  1  0  0.071246  0  0.950943  0  0  0.086744  0  1.019763  0  0  0.087678  0  1.019891  0  0  0.082725  0.086022  0  1.019561  0
H  H53  1  0.36906223  0.13864603  0.01705239  1  0  0.071248  0  0.950993  0  0  0.086739  0  1.019803  0  0  0.087672  0  1.01993  0  0  0.082698  0.086023  0  1.019596  0
C  C54  1  0.70135399  0.19278468  0.05658505  1  0  0.205899  0  3.661795  0  0  0.139861  0  3.933896  0  0  0.15788  0  3.94419  0  0  0.157358  0.129027  0  3.92506  0
C  C55  1  0.29865306  0.80721566  0.94341248  1  0  0.205895  0  3.661454  0  0  0.139895  0  3.933538  0  0  0.15792  0  3.943843  0  0  0.157393  0.129063  0  3.924703  0
C  C56  1  0.83375883  0.97477964  0.06560761  1  0  0.105188  0  3.788672  0  0  0.094634  0  4.03508  0  0  0.098716  0  4.056868  0  0  0.090651  0.091901  0  4.020344  0
C  C57  1  0.16625268  0.02522071  0.93438855  1  0  0.10501  0  3.788935  0  0  0.0945  0  4.035294  0  0  0.098577  0  4.057096  0  0  0.090627  0.091764  0  4.020553  0
C  C58  1  0.84620201  0.04684994  0.14329063  1  0  0.142988  0  3.852124  0  0  0.135407  0  4.105842  0  0  0.139318  0  4.128889  0  0  0.075198  0.132752  0  4.090487  0
C  C59  1  0.15380950  0.95315041  0.85670623  1  0  0.142902  0  3.852262  0  0  0.135358  0  4.105912  0  0  0.139258  0  4.128977  0  0  0.075177  0.132716  0  4.090538  0
C  C60  1  0.93419833  0.97766292  0.21076990  1  0  -0.207348  0  3.761749  0  0  -0.231895  0  4.011554  0  0  -0.235131  0  4.031419  0  0  -0.104597  -0.229837  0  3.998645  0
C  C61  1  0.06580571  0.02233944  0.78922798  1  0  -0.207437  0  3.761681  0  0  -0.231944  0  4.01156  0  0  -0.235174  0  4.031431  0  0  -0.104574  -0.22989  0  3.998638  0
C  C62  1  0.00861829  0.83805184  0.19943457  1  0  0.081136  0  3.71854  0  0  0.102897  0  3.952305  0  0  0.101859  0  3.978666  0  0  -0.019521  0.102843  0  3.935425  0
C  C63  1  0.99138838  0.16194951  0.80056297  1  0  0.081282  0  3.71833  0  0  0.102884  0  3.95234  0  0  0.101841  0  3.978695  0  0  -0.019492  0.102829  0  3.935455  0
C  C64  1  0.99707193  0.76687878  0.11954444  1  0  0.095107  0  3.727597  0  0  0.117319  0  3.9634  0  0  0.116675  0  3.989554  0  0  -0.015888  0.116546  0  3.946684  0
C  C65  1  0.00293511  0.23312157  0.88045380  1  0  0.095031  0  3.72751  0  0  0.117276  0  3.963362  0  0  0.116649  0  3.989492  0  0  -0.01594  0.116505  0  3.946643  0
C  C66  1  0.90837225  0.83553225  0.05251767  1  0  -0.195277  0  3.738133  0  0  -0.226004  0  3.997832  0  0  -0.229447  0  4.017762  0  0  -0.101641  -0.22226  0  3.983014  0
C  C67  1  0.09163702  0.16446810  0.94747953  1  0  -0.195252  0  3.738028  0  0  -0.225959  0  3.997731  0  0  -0.229405  0  4.017658  0  0  -0.101648  -0.222217  0  3.982916  0
C  C68  1  0.68658426  0.04211879  0.92885654  1  0  0.010157  0  3.624749  0  0  -0.051189  0  3.881093  0  0  -0.047117  0  3.892698  0  0  -0.055553  -0.05357  0  3.873098  0
C  C69  1  0.31341901  0.95788560  0.07114206  1  0  0.010044  0  3.624643  0  0  -0.051261  0  3.880985  0  0  -0.04719  0  3.892609  0  0  -0.055565  -0.053639  0  3.872995  0
C  C70  1  0.45339835  0.47023411  0.38026426  1  0  0.200599  0  3.670564  0  0  0.134004  0  3.942712  0  0  0.15217  0  3.952669  0  0  0.15322  0.12243  0  3.934525  0
C  C71  1  0.54659793  0.52976520  0.61973634  1  0  0.200652  0  3.670524  0  0  0.134055  0  3.942669  0  0  0.152222  0  3.952627  0  0  0.153265  0.12248  0  3.934477  0
C  C72  1  0.44464009  0.32685390  0.50315024  1  0  0.094626  0  3.808804  0  0  0.080105  0  4.064229  0  0  0.083767  0  4.0868  0  0  0.084533  0.077911  0  4.047213  0
C  C73  1  0.55535395  0.67314542  0.49685213  1  0  0.094703  0  3.808663  0  0  0.080111  0  4.064098  0  0  0.083772  0  4.08667  0  0  0.084538  0.077917  0  4.047076  0
C  C74  1  0.59077278  0.28040432  0.43527757  1  0  0.143781  0  3.859689  0  0  0.136818  0  4.115148  0  0  0.140762  0  4.138245  0  0  0.075479  0.1336  0  4.099291  0
C  C75  1  0.40922088  0.71959601  0.56472408  1  0  0.143593  0  3.859767  0  0  0.136611  0  4.115291  0  0  0.140556  0  4.138392  0  0  0.075389  0.133398  0  4.099424  0
C  C76  1  0.70434013  0.15958133  0.45208126  1  0  -0.206882  0  3.750346  0  0  -0.231809  0  3.998223  0  0  -0.235577  0  4.018869  0  0  -0.101675  -0.228667  0  3.984226  0
C  C77  1  0.29565096  0.84041696  0.54792017  1  0  -0.206821  0  3.750535  0  0  -0.231744  0  3.998394  0  0  -0.235512  0  4.019044  0  0  -0.101729  -0.228603  0  3.984391  0
C  C78  1  0.66900580  0.08476842  0.53494820  1  0  0.085332  0  3.731634  0  0  0.107268  0  3.963686  0  0  0.106186  0  3.990637  0  0  -0.015361  0.107755  0  3.945934  0
C  C79  1  0.33098902  0.91522885  0.46505202  1  0  0.085279  0  3.73169  0  0  0.107243  0  3.963702  0  0  0.106158  0  3.990657  0  0  -0.015354  0.107729  0  3.945949  0
C  C80  1  0.52137935  0.13329191  0.60368185  1  0  0.100698  0  3.714425  0  0  0.122613  0  3.948331  0  0  0.122534  0  3.974369  0  0  -0.009921  0.122468  0  3.930908  0
C  C81  1  0.47861586  0.86670435  0.39631836  1  0  0.100777  0  3.714321  0  0  0.122696  0  3.948203  0  0  0.122618  0  3.974244  0  0  -0.00989  0.122548  0  3.930784  0
C  C82  1  0.40886506  0.25560316  0.58797004  1  0  -0.212674  0  3.761038  0  0  -0.240448  0  4.017521  0  0  -0.244594  0  4.037821  0  0  -0.100823  -0.236879  0  4.002878  0
C  C83  1  0.59113126  0.74439311  0.41203072  1  0  -0.212642  0  3.760824  0  0  -0.240411  0  4.017312  0  0  -0.244558  0  4.037614  0  0  -0.100799  -0.236838  0  4.002672  0
C  C84  1  0.48524004  0.05238055  0.69313011  1  0  -0.328245  0  3.727131  0  0  -0.405963  0  3.959965  0  0  -0.408274  0  3.97036  0  0  -0.242987  -0.404205  0  3.952582  0
C  C85  1  0.51475399  0.94761877  0.30687225  1  0  -0.328509  0  3.727208  0  0  -0.406286  0  3.960036  0  0  -0.408592  0  3.970407  0  0  -0.243045  -0.404522  0  3.952656  0
C  C86  1  0.08618920  0.45802700  0.48207560  1  0  -0.132136  0  3.694717  0  0  -0.17084  0  3.952247  0  0  -0.172957  0  3.966357  0  0  -0.168184  -0.169435  0  3.943433  0
C  C87  1  0.91380893  0.54197332  0.51792254  1  0  -0.132063  0  3.694704  0  0  -0.170835  0  3.952308  0  0  -0.172979  0  3.966435  0  0  -0.168171  -0.169429  0  3.943491  0
C  C88  1  0.19670472  0.52736566  0.50454467  1  0  0.01733  0  3.631886  0  0  -0.046696  0  3.893353  0  0  -0.04216  0  3.905332  0  0  -0.05315  -0.049577  0  3.885377  0
C  C89  1  0.80329229  0.47263466  0.49545506  1  0  0.017333  0  3.632016  0  0  -0.046743  0  3.89341  0  0  -0.042213  0  3.905423  0  0  -0.053144  -0.04962  0  3.885429  0
C  C90  1  0.08166408  0.61772260  0.10670332  1  0  -0.341908  0  3.778446  0  0  -0.418829  0  4.006458  0  0  -0.42203  0  4.019079  0  0  -0.255956  -0.416068  0  3.99956  0
C  C91  1  0.91833705  0.38227571  0.89329591  1  0  -0.341893  0  3.77844  0  0  -0.418807  0  4.006463  0  0  -0.422009  0  4.01907  0  0  -0.255945  -0.416048  0  3.99956  0
C  C92  1  0.10526622  0.76195562  0.27077459  1  0  -0.318875  0  3.732917  0  0  -0.394237  0  3.963588  0  0  -0.396531  0  3.974133  0  0  -0.240547  -0.392393  0  3.956782  0
C  C93  1  0.89473744  0.23804776  0.72922401  1  0  -0.318994  0  3.732814  0  0  -0.394346  0  3.963552  0  0  -0.396639  0  3.974092  0  0  -0.240628  -0.392511  0  3.956762  0
C  C94  1  0.78617644  0.95008908  0.54981495  1  0  -0.327529  0  3.752003  0  0  -0.404728  0  3.986723  0  0  -0.407134  0  3.997325  0  0  -0.24499  -0.403222  0  3.979617  0
C  C95  1  0.21382134  0.04990923  0.45018548  1  0  -0.327501  0  3.752172  0  0  -0.404751  0  3.986866  0  0  -0.407157  0  3.997461  0  0  -0.245016  -0.403246  0  3.979761  0
C  C96  1  0.57020369  0.96387449  0.95959041  1  0  -0.132723  0  3.692921  0  0  -0.175717  0  3.956987  0  0  -0.177162  0  3.970578  0  0  -0.169702  -0.174723  0  3.947733  0
C  C97  1  0.42979919  0.03613092  0.04040962  1  0  -0.132763  0  3.692937  0  0  -0.175754  0  3.956977  0  0  -0.177195  0  3.970566  0  0  -0.169652  -0.17477  0  3.947736  0
I  I98  1  0.07360126  0.28757638  0.23918632  1  0  -0.477006  0  1.02108  0  0  -0.412125  0  1.32229  0  0  -0.429286  0  1.299639  0  0  -0.207825  -0.400484  0  1.337896  0
I  I99  1  0.92639277  0.71242295  0.76081747  1  0  -0.477016  0  1.021059  0  0  -0.412113  0  1.322238  0  0  -0.429278  0  1.299592  0  0  -0.207832  -0.400477  0  1.337843  0
I  I100  1  0.61680948  0.60148990  0.12923512  1  0  -0.505268  0  0.943977  0  0  -0.446675  0  1.240003  0  0  -0.464366  0  1.218777  0  0  -0.245892  -0.432912  0  1.255516  0
I  I101  1  0.38319159  0.39850845  0.87077052  1  0  -0.505279  0  0.943984  0  0  -0.446696  0  1.240011  0  0  -0.464387  0  1.218785  0  0  -0.245905  -0.432936  0  1.255523  0
N  N102  1  0.76172454  0.18348982  0.13535386  1  0  -0.419606  0  3.224784  0  0  -0.344462  0  3.509334  0  0  -0.366905  0  3.524793  0  0  -0.367492  -0.329263  0  3.497168  0
N  N103  1  0.23828211  0.81651154  0.86464439  1  0  -0.419519  0  3.224728  0  0  -0.344395  0  3.509273  0  0  -0.366832  0  3.524732  0  0  -0.367515  -0.329192  0  3.497083  0
N  N104  1  0.74151790  0.07078518  0.01197892  1  0  -0.113718  0  3.521523  0  0  -0.021682  0  3.739331  0  0  -0.038375  0  3.764512  0  0  -0.241014  -0.010846  0  3.721898  0
N  N105  1  0.25849061  0.92921719  0.98801829  1  0  -0.113516  0  3.521335  0  0  -0.021532  0  3.739116  0  0  -0.038215  0  3.764289  0  0  -0.240961  -0.0107  0  3.721686  0
N  N106  1  0.59226398  0.37277739  0.35924090  1  0  -0.417518  0  3.224712  0  0  -0.34493  0  3.511179  0  0  -0.366537  0  3.52568  0  0  -0.36475  -0.329863  0  3.500022  0
N  N107  1  0.40772934  0.62722090  0.64076020  1  0  -0.417447  0  3.224569  0  0  -0.344877  0  3.51107  0  0  -0.366482  0  3.525565  0  0  -0.364719  -0.329814  0  3.499912  0
N  N108  1  0.36095137  0.44852146  0.46602178  1  0  -0.116814  0  3.519454  0  0  -0.026428  0  3.744058  0  0  -0.043139  0  3.76857  0  0  -0.242142  -0.015153  0  3.725656  0
N  N109  1  0.63904451  0.55147888  0.53398026  1  0  -0.116906  0  3.51958  0  0  -0.026331  0  3.743981  0  0  -0.043041  0  3.768489  0  0  -0.242145  -0.015058  0  3.725577  0
