# generated using pymatgen
data_Co2Cu3H96(C7N2)12
_symmetry_space_group_name_H-M   'P 1'
_cell_length_a   9.17836633
_cell_length_b   15.84343472
_cell_length_c   17.32976954
_cell_angle_alpha   112.62247365
_cell_angle_beta   95.28903805
_cell_angle_gamma   101.28139396
_symmetry_Int_Tables_number   1
_chemical_formula_structural   Co2Cu3H96(C7N2)12
_chemical_formula_sum   'Co2 Cu3 H96 C84 N24'
_cell_volume   2241.84232298
_cell_formula_units_Z   1
loop_
 _symmetry_equiv_pos_site_id
 _symmetry_equiv_pos_as_xyz
  1  'x, y, z'
loop_
 _atom_site_type_symbol
 _atom_site_label
 _atom_site_symmetry_multiplicity
 _atom_site_fract_x
 _atom_site_fract_y
 _atom_site_fract_z
 _atom_site_occupancy
 _atom_site_pbe_bader_charge
 _atom_site_pbe_bader_spin_density
 _atom_site_pbe_cm5_charge
 _atom_site_pbe_ddec_charge
 _atom_site_pbe_ddec_spin_density
 _atom_site_pbe_ddec_sum_bond_order
 _atom_site_pbe_magmom
Co  Co0  1  0.55417323  0.17268783  0.31502945  1  0.787311  -0.00036  0.484265  0.189393  -0.0006  4.822966  0.0
Co  Co1  1  0.44582256  0.82730819  0.68497275  1  0.78735  -0.00036  0.48433  0.189543  -0.0006  4.822845  0.0
Cu  Cu2  1  0.49999918  0.99999963  0.50000107  1  0.999142  0.542018  0.783517  0.646939  0.726906  2.345785  0.54
Cu  Cu3  1  0.50000446  0.00000352  0.00000671  1  0.997355  0.538723  0.79046  0.647537  0.723122  2.369636  0.537
Cu  Cu4  1  0.49999923  0.49999730  0.50000032  1  0.988619  -0.533179  0.773247  0.638898  -0.745038  2.31588  -0.532
H  H5  1  0.33963133  0.85638247  0.50989822  1  0.440614  0.000232  0.30218  0.256404  0.000621  0.954908  0.0
H  H6  1  0.66036800  0.14361708  0.49010249  1  0.440641  0.000231  0.302168  0.256354  0.000621  0.954848  0.0
H  H7  1  0.27483165  0.87148246  0.91722889  1  0.42147  0.000237  0.309561  0.262988  0.000548  0.920234  0.0
H  H8  1  0.72518207  0.12852554  0.08277542  1  0.421438  0.000236  0.309545  0.262946  0.000547  0.92029  0.0
H  H9  1  0.40560181  0.57120726  0.64126550  1  0.451735  -0.000198  0.297281  0.250995  -0.000753  0.968445  0.0
H  H10  1  0.59439304  0.42878664  0.35873359  1  0.451635  -0.000198  0.297252  0.250899  -0.000753  0.968493  0.0
H  H11  1  0.09339362  0.85450651  0.45457946  1  0.087802  0.005069  0.103093  0.083288  0.00278  1.016491  0.003
H  H12  1  0.90660656  0.14549516  0.54542146  1  0.087876  0.00507  0.103078  0.083253  0.002781  1.016468  0.003
H  H13  1  0.17798084  0.93148724  0.40745000  1  0.079636  0.000826  0.110258  0.099374  0.000326  0.981031  0.0
H  H14  1  0.82201852  0.06851231  0.59255186  1  0.079579  0.000826  0.110241  0.099316  0.000326  0.981055  0.0
H  H15  1  0.10660904  0.02504419  0.54402871  1  0.034486  0.002694  0.108792  0.087186  0.001415  0.996852  0.002
H  H16  1  0.89339253  0.97495536  0.45597382  1  0.034431  0.002694  0.108754  0.087113  0.001415  0.996882  0.002
H  H17  1  0.20959888  0.97246452  0.59706206  1  0.109132  0.000645  0.120017  0.116927  0.000282  0.969499  0.0
H  H18  1  0.79040731  0.02753572  0.40293975  1  0.109178  0.000645  0.120002  0.116847  0.000282  0.969476  0.0
H  H19  1  0.15330652  0.14892625  0.65051317  1  0.027726  -0.000177  0.103787  0.148481  -0.000113  1.000068  0.0
H  H20  1  0.84669194  0.85107401  0.34948545  1  0.027625  -0.000177  0.103779  0.148483  -0.000113  1.000052  0.0
H  H21  1  0.18833671  0.22595828  0.59825645  1  0.062951  -0.000479  0.111877  0.16712  -0.000279  0.963491  0.0
H  H22  1  0.81166672  0.77404338  0.40174344  1  0.062975  -0.000479  0.111895  0.16716  -0.000279  0.963441  0.0
H  H23  1  0.29190699  0.25891678  0.70070884  1  0.08453  0.00074  0.100902  0.148686  0.000386  0.99516  0.0
H  H24  1  0.70809205  0.74108207  0.29929160  1  0.084458  0.00074  0.100907  0.148692  0.000386  0.99511  0.0
H  H25  1  0.51695833  0.28871185  0.66563436  1  0.057887  -0.000372  0.097066  0.105406  -0.000206  1.037122  0.0
H  H26  1  0.48304068  0.71128983  0.33436364  1  0.057861  -0.000372  0.097089  0.105429  -0.000206  1.037212  0.0
H  H27  1  0.50022115  0.24307183  0.55498142  1  0.114288  -0.000252  0.112418  0.137973  -0.000126  0.996019  0.0
H  H28  1  0.49977750  0.75692348  0.44501602  1  0.114351  -0.000252  0.112412  0.137984  -0.000127  0.995891  0.0
H  H29  1  0.34544103  0.83975432  0.33560537  1  0.078043  0.001828  0.113277  0.07276  0.000825  0.977391  0.001
H  H30  1  0.65455480  0.16024736  0.66439595  1  0.078025  0.001828  0.113302  0.072739  0.000825  0.977376  0.001
H  H31  1  0.12261570  0.74457203  0.24133583  1  0.036641  0.000143  0.100415  0.101552  5.7e-05  1.007468  0.0
H  H32  1  0.87737872  0.25542612  0.75866533  1  0.036618  0.000143  0.100422  0.101551  5.7e-05  1.007449  0.0
H  H33  1  0.91342255  0.59731531  0.18291243  1  0.070879  0.000158  0.094896  0.087945  8.3e-05  1.037203  0.0
H  H34  1  0.08657506  0.40268283  0.81708597  1  0.070921  0.000158  0.094893  0.087976  8.4e-05  1.037164  0.0
H  H35  1  0.88957709  0.48765337  0.25533525  1  0.085213  -3.4e-05  0.099804  0.098507  -1.5e-05  1.042899  0.0
H  H36  1  0.11042617  0.51234264  0.74466089  1  0.085267  -3.4e-05  0.099811  0.098505  -1.5e-05  1.042918  0.0
H  H37  1  0.06353451  0.53139704  0.39075548  1  0.048656  4.7e-05  0.101782  0.098756  2.6e-05  1.013155  0.0
H  H38  1  0.93646825  0.46860039  0.60924173  1  0.048671  4.7e-05  0.101797  0.09881  2.6e-05  1.013115  0.0
H  H39  1  0.26642887  0.67824124  0.45059142  1  0.133512  0.000147  0.103895  0.113315  6.6e-05  1.044504  0.0
H  H40  1  0.73356797  0.32175761  0.54940837  1  0.133442  0.000147  0.103921  0.113348  6.6e-05  1.044444  0.0
H  H41  1  0.26767288  0.95821917  0.10121487  1  0.124467  0.000951  0.120227  0.113027  0.000377  0.958009  0.001
H  H42  1  0.73232173  0.04178746  0.89878989  1  0.12461  0.000951  0.120209  0.112982  0.000377  0.958063  0.001
H  H43  1  0.10422326  0.88963927  0.02069521  1  0.043854  0.005048  0.101951  0.079025  0.002717  0.992639  0.003
H  H44  1  0.89577969  0.11036381  0.97930632  1  0.043857  0.005048  0.10198  0.079024  0.002717  0.992646  0.003
H  H45  1  0.14311789  0.00724993  0.95739647  1  0.029889  0.001062  0.113354  0.100004  0.000489  0.951024  0.0
H  H46  1  0.85688227  0.99275175  0.04260387  1  0.03008  0.001062  0.113355  0.099989  0.000489  0.951021  0.0
H  H47  1  0.14305589  0.06589422  0.06932911  1  0.097712  0.002309  0.111767  0.097069  0.001254  1.015355  0.001
H  H48  1  0.85694368  0.93410887  0.93066883  1  0.097606  0.00231  0.111766  0.097101  0.001254  1.015188  0.001
H  H49  1  0.20280043  0.21184493  0.11705703  1  0.099824  -0.000575  0.103193  0.156194  -0.00034  1.034443  0.0
H  H50  1  0.79719704  0.78816172  0.88293228  1  0.099558  -0.000575  0.103143  0.156152  -0.00034  1.034367  0.0
H  H51  1  0.17210202  0.19611735  0.00875088  1  0.048083  -0.000146  0.101912  0.148527  -8.8e-05  0.984014  0.0
H  H52  1  0.82789697  0.80387939  0.99123843  1  0.048092  -0.000147  0.101944  0.148584  -8.8e-05  0.983981  0.0
H  H53  1  0.30320964  0.29911048  0.08658133  1  0.066225  0.001147  0.094223  0.140566  0.000585  1.009787  0.001
H  H54  1  0.69678819  0.70089193  0.91340303  1  0.06607  0.001147  0.094252  0.140604  0.000585  1.009829  0.001
H  H55  1  0.59269885  0.25540054  0.13014024  1  0.141206  5.3e-05  0.111603  0.137793  6e-05  0.998977  0.0
H  H56  1  0.40729681  0.74460043  0.86986544  1  0.141332  5.3e-05  0.111603  0.137804  6e-05  0.998956  0.0
H  H57  1  0.52831775  0.29482960  0.05525729  1  0.035713  -0.000385  0.099886  0.111574  -0.000221  1.005397  0.0
H  H58  1  0.47168869  0.70517629  0.94475116  1  0.035619  -0.000385  0.099876  0.111525  -0.000221  1.005527  0.0
H  H59  1  0.41870658  0.84576370  0.06247388  1  0.077388  0.001882  0.116493  0.078281  0.000846  0.962956  0.001
H  H60  1  0.58129480  0.15424079  0.93752983  1  0.077451  0.001882  0.116493  0.078271  0.000846  0.962945  0.001
H  H61  1  0.27910767  0.74653347  0.11269153  1  0.089943  0.000167  0.101279  0.101498  7.7e-05  1.006293  0.0
H  H62  1  0.72089142  0.25346820  0.88730935  1  0.089781  0.000167  0.101274  0.101526  7.7e-05  1.006114  0.0
H  H63  1  0.05689151  0.61820326  0.09627316  1  0.059481  0.00015  0.094876  0.086546  6.8e-05  1.058696  0.0
H  H64  1  0.94311161  0.38179770  0.90372590  1  0.059455  0.00015  0.094881  0.086567  6.8e-05  1.058649  0.0
H  H65  1  0.86591629  0.54090759  0.96181300  1  0.068978  5e-06  0.095403  0.091717  2e-06  1.029499  0.0
H  H66  1  0.13409283  0.45909477  0.03818508  1  0.068861  5e-06  0.095397  0.091701  2e-06  1.02945  0.0
H  H67  1  0.90417113  0.58741857  0.84261970  1  0.062207  8.4e-05  0.095307  0.08646  5e-05  1.048243  0.0
H  H68  1  0.09583558  0.41258592  0.15737903  1  0.062128  8.4e-05  0.095333  0.086529  5e-05  1.048457  0.0
H  H69  1  0.13003665  0.71076245  0.85618101  1  0.096701  0.000326  0.104139  0.109083  0.000192  1.016978  0.0
H  H70  1  0.86997046  0.28924557  0.14382130  1  0.096773  0.000326  0.104088  0.108978  0.000192  1.017133  0.0
H  H71  1  0.24734191  0.43086017  0.64112406  1  0.060965  -0.005762  0.098349  0.074874  -0.003202  1.039209  -0.004
H  H72  1  0.75266169  0.56913372  0.35887538  1  0.060884  -0.005763  0.09839  0.074933  -0.003202  1.039224  -0.004
H  H73  1  0.34479678  0.36387934  0.56423809  1  0.087245  -0.000741  0.11045  0.099964  -0.00029  0.997395  -0.001
H  H74  1  0.65520769  0.63611666  0.43576214  1  0.087341  -0.000741  0.11043  0.099915  -0.00029  0.997432  -0.001
H  H75  1  0.09931944  0.36998411  0.49377344  1  0.089653  -0.003373  0.113857  0.100936  -0.001883  0.996297  -0.002
H  H76  1  0.90068410  0.63000694  0.50622500  1  0.089787  -0.003372  0.113845  0.100958  -0.001883  0.996275  -0.002
H  H77  1  0.15761900  0.49580637  0.54170393  1  0.059127  -0.00019  0.112616  0.096387  -3.7e-05  0.956708  0.0
H  H78  1  0.84237232  0.50418683  0.45829592  1  0.059018  -0.00019  0.11257  0.096386  -3.7e-05  0.956829  0.0
H  H79  1  0.03277372  0.28583485  0.37644156  1  0.113935  0.000155  0.100843  0.16477  8.7e-05  1.028513  0.0
H  H80  1  0.96723582  0.71415761  0.62355588  1  0.113777  0.000155  0.100842  0.16475  8.7e-05  1.028461  0.0
H  H81  1  0.07488938  0.26511292  0.27394853  1  0.098573  -0.001019  0.100192  0.160389  -0.000557  1.001743  0.0
H  H82  1  0.92510744  0.73488877  0.72604937  1  0.098615  -0.001019  0.100174  0.160325  -0.000557  1.001591  0.0
H  H83  1  0.98421171  0.35583185  0.32446221  1  0.086262  0.000736  0.096627  0.150002  0.000398  1.024673  0.001
H  H84  1  0.01578505  0.64416628  0.67554481  1  0.086179  0.000736  0.096624  0.150029  0.000397  1.024673  0.001
H  H85  1  0.22341351  0.39461030  0.25123496  1  0.040757  0.000438  0.102552  0.113987  0.000241  1.004867  0.0
H  H86  1  0.77657989  0.60539351  0.74876644  1  0.040664  0.000438  0.10255  0.113936  0.000241  1.004895  0.0
H  H87  1  0.35291889  0.33730519  0.27553588  1  0.125032  0.000476  0.114457  0.143202  0.000239  0.977723  0.0
H  H88  1  0.64707288  0.66269226  0.72445858  1  0.12511  0.000476  0.114439  0.143138  0.000239  0.977797  0.0
H  H89  1  0.61067277  0.44850271  0.63319835  1  0.100591  -0.001988  0.111378  0.066506  -0.000948  1.012972  -0.001
H  H90  1  0.38932873  0.55149683  0.36680187  1  0.100599  -0.001987  0.11139  0.066509  -0.000948  1.012948  -0.001
H  H91  1  0.70252736  0.42083769  0.75248317  1  0.068675  -4.7e-05  0.095507  0.090934  -1.4e-05  1.073428  0.0
H  H92  1  0.29747027  0.57915762  0.24751712  1  0.068657  -4.7e-05  0.095465  0.090835  -1.4e-05  1.073543  0.0
H  H93  1  0.63571006  0.38653440  0.87450750  1  0.057496  -0.000162  0.094272  0.089094  -9.1e-05  1.03165  0.0
H  H94  1  0.36429145  0.61346231  0.12549402  1  0.051625  -0.000162  0.094274  0.089076  -9.1e-05  1.031744  0.0
H  H95  1  0.42319950  0.44105583  0.94225409  1  0.054606  1.3e-05  0.095992  0.093889  7e-06  1.023994  0.0
H  H96  1  0.57680425  0.55894654  0.05774723  1  0.054682  1.3e-05  0.096017  0.0939  7e-06  1.024006  0.0
H  H97  1  0.29102392  0.53958349  0.89259750  1  0.045808  -3e-05  0.098382  0.095717  -1.9e-05  1.014317  0.0
H  H98  1  0.70898092  0.46041888  0.10740386  1  0.045755  -3e-05  0.098429  0.09577  -1.9e-05  1.014286  0.0
H  H99  1  0.35703053  0.57267036  0.77005545  1  0.135639  -0.000311  0.098989  0.10274  -0.000264  1.088498  0.0
H  H100  1  0.64297042  0.42733061  0.22994409  1  0.13567  -0.000311  0.098986  0.102715  -0.000264  1.088427  0.0
C  C101  1  0.19051882  0.91150232  0.46133803  1  0.245381  0.001237  -0.075915  -0.07676  0.001365  3.918947  -0.001
C  C102  1  0.80947720  0.08849724  0.53866140  1  0.245357  0.001236  -0.075842  -0.076659  0.001364  3.91906  -0.001
C  C103  1  0.20555534  0.99595270  0.54494722  1  0.272678  0.002987  -0.064885  -0.055387  0.002709  3.919169  0.002
C  C104  1  0.79444603  0.00404897  0.45505721  1  0.272831  0.002987  -0.064826  -0.055155  0.002708  3.919113  0.002
C  C105  1  0.36330912  0.15453044  0.60026602  1  0.682905  -0.006223  0.169121  0.380934  -0.003799  3.836685  -0.005
C  C106  1  0.63668828  0.84546983  0.39973371  1  0.682885  -0.006223  0.169131  0.38089  -0.003799  3.836705  -0.005
C  C107  1  0.24189515  0.19825764  0.63983882  1  -0.066572  0.009109  -0.227842  -0.460745  0.00634  3.888243  0.007
C  C108  1  0.75810286  0.80174404  0.36016260  1  -0.06636  0.009108  -0.227852  -0.460788  0.006339  3.888112  0.007
C  C109  1  0.50884912  0.22340735  0.60963265  1  -0.062859  0.004857  -0.15499  -0.304518  0.003127  3.888454  0.004
C  C110  1  0.49114790  0.77659222  0.39036335  1  -0.062687  0.004856  -0.154969  -0.304442  0.003126  3.888444  0.004
C  C111  1  0.34368631  0.80679646  0.38117448  1  0.324353  -0.000447  0.010249  0.101533  0.000526  3.846393  -0.002
C  C112  1  0.65631102  0.19320097  0.61882366  1  0.324839  -0.000448  0.010304  0.101712  0.000525  3.846159  -0.002
C  C113  1  0.21053792  0.72055303  0.34873484  1  -0.023274  0.007211  -0.013902  0.052714  0.005118  3.945946  0.006
C  C114  1  0.78945897  0.27944865  0.65126538  1  -0.023199  0.007213  -0.013922  0.052691  0.005119  3.946049  0.006
C  C115  1  0.10903586  0.69749167  0.27401098  1  -0.026945  0.001366  -0.094667  -0.143725  0.00087  3.99223  0.001
C  C116  1  0.89096421  0.30250717  0.72598720  1  -0.026823  0.001366  -0.094662  -0.143786  0.00087  3.992347  0.001
C  C117  1  0.99248015  0.61471306  0.24091997  1  -0.147907  -1.1e-05  -0.098879  -0.091059  -5e-06  4.040997  0.0
C  C118  1  0.00752205  0.38528578  0.75907599  1  -0.147843  -1.1e-05  -0.098876  -0.09107  -5e-06  4.041086  0.0
C  C119  1  0.97719703  0.55372388  0.28185205  1  -0.021318  0.000743  -0.095379  -0.099632  0.000488  4.023969  0.001
C  C120  1  0.02280648  0.44627284  0.71814321  1  -0.021503  0.000743  -0.095422  -0.099648  0.000488  4.024184  0.001
C  C121  1  0.07555849  0.57796573  0.35774599  1  -0.034936  -0.000345  -0.090595  -0.07581  -0.000269  3.997642  0.0
C  C122  1  0.92444319  0.42203169  0.64225176  1  -0.03492  -0.000345  -0.090567  -0.075821  -0.000268  3.997682  0.0
C  C123  1  0.19050338  0.66114304  0.39156797  1  -0.128175  0.000646  -0.08714  -0.118589  0.000425  3.937567  0.0
C  C124  1  0.80949409  0.33885722  0.60843407  1  -0.128253  0.000646  -0.087179  -0.118633  0.000424  3.937651  0.0
C  C125  1  0.21655284  0.93813823  0.03474385  1  0.221742  0.00112  -0.067882  -0.056603  0.001365  3.893809  -0.001
C  C126  1  0.78344636  0.06186627  0.96525977  1  0.221748  0.00112  -0.067907  -0.056618  0.001365  3.893999  -0.001
C  C127  1  0.20407603  0.02617938  0.02204969  1  0.309932  0.003358  -0.065331  -0.06153  0.002922  3.934045  0.002
C  C128  1  0.79592309  0.97382513  0.97795105  1  0.309829  0.003358  -0.065328  -0.061482  0.002923  3.933992  0.002
C  C129  1  0.38131823  0.17184071  0.05169097  1  0.689699  -0.003976  0.173067  0.392874  -0.002318  3.815681  -0.004
C  C130  1  0.61868103  0.82816168  0.94830613  1  0.692629  -0.003995  0.173127  0.393038  -0.002319  3.815564  -0.004
C  C131  1  0.25817923  0.22316104  0.06689288  1  -0.095937  0.00898  -0.237451  -0.473019  0.006338  3.90002  0.007
C  C132  1  0.74181687  0.77684207  0.93309800  1  -0.098381  0.008999  -0.237463  -0.473145  0.006337  3.900002  0.007
C  C133  1  0.53797123  0.23046862  0.06296386  1  -0.067499  0.004823  -0.149315  -0.299116  0.003088  3.882643  0.004
C  C134  1  0.46202658  0.76953517  0.93703945  1  -0.067525  0.004823  -0.149349  -0.299118  0.003087  3.882826  0.004
C  C135  1  0.35787200  0.81402573  0.99612991  1  0.319271  -0.000611  0.011948  0.100293  0.000423  3.85948  -0.002
C  C136  1  0.64213128  0.18597805  0.00387363  1  0.319549  -0.000614  0.011929  0.100282  0.000422  3.859525  -0.002
C  C137  1  0.21915470  0.73781100  0.98622817  1  -0.030658  0.007439  -0.013926  0.053581  0.005283  3.961828  0.006
C  C138  1  0.78084481  0.26219704  0.01377557  1  -0.030719  0.007441  -0.013915  0.053474  0.005283  3.962111  0.006
C  C139  1  0.19690202  0.71093542  0.05315947  1  -0.133303  0.001173  -0.096477  -0.150657  0.000726  4.007959  0.001
C  C140  1  0.80310116  0.28907331  0.94684813  1  -0.133119  0.001173  -0.09649  -0.150695  0.000726  4.007902  0.001
C  C141  1  0.07122597  0.63974880  0.04431600  1  -0.027533  0.000289  -0.0989  -0.088322  0.000199  4.044371  0.0
C  C142  1  0.92877891  0.36025356  0.95568709  1  -0.027585  0.00029  -0.098852  -0.088291  0.000199  4.044298  0.0
C  C143  1  0.96481563  0.59598825  0.96885999  1  -0.082602  0.00073  -0.096714  -0.093801  0.00048  4.014797  0.0
C  C144  1  0.03519212  0.40401340  0.03113835  1  -0.082465  0.00073  -0.096758  -0.093846  0.00048  4.014677  0.0
C  C145  1  0.98624418  0.62260841  0.90188556  1  -0.026265  4e-05  -0.090357  -0.07148  9e-06  4.019788  0.0
C  C146  1  0.01376781  0.37739536  0.09811717  1  -0.026433  4e-05  -0.090381  -0.071605  9e-06  4.020143  0.0
C  C147  1  0.11305464  0.69247475  0.90997416  1  -0.092143  0.000769  -0.091176  -0.132251  0.000561  3.945344  0.0
C  C148  1  0.88695250  0.30753044  0.09003003  1  -0.092233  0.000769  -0.09113  -0.131983  0.000561  3.945642  0.0
C  C149  1  0.30515453  0.42862823  0.58790267  1  0.248033  -0.000326  -0.075979  -0.064497  -0.000891  3.896169  0.001
C  C150  1  0.69484550  0.57136495  0.41209638  1  0.248022  -0.000326  -0.075945  -0.064441  -0.00089  3.89626  0.001
C  C151  1  0.19806103  0.43087456  0.51680093  1  0.272313  -0.003544  -0.063979  -0.049904  -0.00312  3.912326  -0.002
C  C152  1  0.80194010  0.56911863  0.48319816  1  0.272507  -0.003544  -0.063971  -0.050005  -0.003121  3.912559  -0.002
C  C153  1  0.22296668  0.38867512  0.37019463  1  0.681263  0.004556  0.170502  0.389025  0.002381  3.855067  0.004
C  C154  1  0.77703531  0.61132302  0.62980395  1  0.681267  0.004557  0.170529  0.389089  0.002382  3.854973  0.004
C  C155  1  0.07114936  0.32042238  0.33544659  1  -0.132135  -0.008785  -0.240738  -0.482447  -0.006491  3.882751  -0.007
C  C156  1  0.92885229  0.67957222  0.66455130  1  -0.131912  -0.008784  -0.24071  -0.482414  -0.006491  3.882546  -0.007
C  C157  1  0.30814584  0.40019068  0.30324042  1  -0.058651  -0.004609  -0.148264  -0.301297  -0.003143  3.893415  -0.004
C  C158  1  0.69185158  0.59980958  0.69675988  1  -0.058601  -0.00461  -0.148233  -0.301116  -0.003144  3.893181  -0.004
C  C159  1  0.56796571  0.50886803  0.67119863  1  0.285427  0.000497  0.006944  0.095218  -0.000719  3.855133  0.002
C  C160  1  0.43203195  0.49113011  0.32880151  1  0.285424  0.000497  0.00695  0.095291  -0.000718  3.854969  0.002
C  C161  1  0.52950930  0.49520961  0.75008419  1  -0.015645  -0.007998  -0.011546  0.062975  -0.005831  3.915045  -0.007
C  C162  1  0.47049193  0.50478923  0.24991634  1  -0.016026  -0.007997  -0.011478  0.062989  -0.00583  3.915128  -0.007
C  C163  1  0.61069057  0.44586541  0.78243381  1  -0.107197  -0.000487  -0.099099  -0.14544  -0.000307  3.995932  0.0
C  C164  1  0.38930761  0.55413132  0.21756585  1  -0.106226  -0.000487  -0.099058  -0.145335  -0.000307  3.995832  0.0
C  C165  1  0.57344072  0.42680857  0.85141775  1  -0.00078  -0.000476  -0.099911  -0.088819  -0.000343  4.036376  0.0
C  C166  1  0.42655831  0.57319028  0.14858212  1  0.004525  -0.000476  -0.099929  -0.088789  -0.000343  4.03628  0.0
C  C167  1  0.45544665  0.45807439  0.88996904  1  -0.103878  0.000308  -0.101145  -0.105548  0.000214  4.04845  0.0
C  C168  1  0.54455654  0.54192657  0.11003233  1  -0.103862  0.000308  -0.101164  -0.105562  0.000214  4.048384  0.0
C  C169  1  0.38002714  0.51192608  0.86127401  1  -0.041868  -7.6e-05  -0.096759  -0.084718  -1.7e-05  4.033559  0.0
C  C170  1  0.61997576  0.48807417  0.13872709  1  -0.041737  -7.6e-05  -0.096771  -0.084768  -1.7e-05  4.033696  0.0
C  C171  1  0.41681363  0.53040593  0.79185672  1  -0.117981  0.000161  -0.09475  -0.139046  3.8e-05  3.96373  0.0
C  C172  1  0.58318489  0.46959716  0.20814291  1  -0.118114  0.000161  -0.094828  -0.139074  3.8e-05  3.964032  0.0
C  C173  1  0.46304120  0.07802912  0.34783854  1  0.813422  -0.001612  0.015048  0.042314  -0.001219  3.851945  -0.001
C  C174  1  0.53694402  0.92197045  0.65216506  1  0.813192  -0.001612  0.015062  0.042455  -0.001219  3.851672  -0.001
C  C175  1  0.58227081  0.08120626  0.21421478  1  0.833578  -0.001403  0.017142  0.052969  -0.00101  3.855664  -0.001
C  C176  1  0.41772736  0.91878764  0.78578560  1  0.833364  -0.001402  0.017174  0.052919  -0.001009  3.855608  -0.001
C  C177  1  0.52743603  0.26961781  0.41177604  1  0.825589  0.001436  0.026036  0.049477  0.001017  3.837587  0.001
C  C178  1  0.47256235  0.73037963  0.58822042  1  0.825728  0.001435  0.026078  0.049488  0.001017  3.837599  0.001
C  C179  1  0.74162226  0.18220839  0.37566390  1  0.79636  9.7e-05  0.015314  0.010923  6.6e-05  3.858576  0.0
C  C180  1  0.25837388  0.81778550  0.62434217  1  0.796794  9.7e-05  0.015315  0.010976  6.6e-05  3.858745  0.0
C  C181  1  0.65249246  0.26870721  0.28726527  1  0.826911  -0.000312  0.028074  0.044291  -0.000251  3.843128  0.0
C  C182  1  0.34750157  0.73129307  0.71273087  1  0.826736  -0.000312  0.027934  0.044036  -0.000251  3.843152  0.0
C  C183  1  0.36388402  0.16359282  0.25753931  1  0.813121  9e-06  0.010913  0.01669  1.2e-05  3.857422  0.0
C  C184  1  0.63611617  0.83640602  0.74246291  1  0.813463  9e-06  0.010818  0.016394  1.2e-05  3.85759  0.0
N  N185  1  0.34699959  0.06550517  0.55833141  1  -1.162508  0.093905  -0.34952  -0.267616  0.064516  3.454384  0.08
N  N186  1  0.65299756  0.93449439  0.44166921  1  -1.162641  0.093902  -0.349551  -0.267687  0.064515  3.454373  0.08
N  N187  1  0.33191013  0.88055602  0.46273501  1  -1.036278  0.103429  -0.48916  -0.318875  0.070135  3.497774  0.087
N  N188  1  0.66808980  0.11944494  0.53726680  1  -1.036611  0.103427  -0.489221  -0.318867  0.070133  3.497742  0.087
N  N189  1  0.35680353  0.08272413  0.03202559  1  -1.153668  0.094402  -0.356641  -0.276999  0.064862  3.467136  0.081
N  N190  1  0.64319893  0.91728036  0.96797758  1  -1.153653  0.094407  -0.35669  -0.277138  0.064866  3.467229  0.081
N  N191  1  0.31830365  0.89265959  0.98043064  1  -1.036  0.101789  -0.487422  -0.324766  0.069211  3.521784  0.086
N  N192  1  0.68170408  0.10734701  0.01957465  1  -1.036122  0.101779  -0.487428  -0.324691  0.069204  3.521796  0.086
N  N193  1  0.28120470  0.43583402  0.44976982  1  -1.182548  -0.092654  -0.363808  -0.29502  -0.066132  3.469527  -0.079
N  N194  1  0.71879269  0.56416341  0.55023063  1  -1.182657  -0.09265  -0.363785  -0.295012  -0.066129  3.469541  -0.079
N  N195  1  0.43865419  0.50925093  0.61401874  1  -1.056288  -0.107766  -0.484607  -0.322767  -0.075942  3.488316  -0.091
N  N196  1  0.56134424  0.49074368  0.38598075  1  -1.056305  -0.10776  -0.484637  -0.322686  -0.075938  3.488148  -0.091
N  N197  1  0.41130522  0.01934669  0.37040964  1  -1.370257  -0.000885  -0.397585  -0.448379  -0.000525  3.145925  0.0
N  N198  1  0.58867516  0.98065431  0.62959600  1  -1.36994  -0.000885  -0.397632  -0.44852  -0.000525  3.145765  0.0
N  N199  1  0.59452190  0.02542580  0.14827073  1  -1.393498  -0.000765  -0.406654  -0.464401  -0.000528  3.136969  0.0
N  N200  1  0.40546970  0.97456811  0.85172939  1  -1.393333  -0.000765  -0.406684  -0.464366  -0.000528  3.136803  0.0
N  N201  1  0.52074556  0.33556084  0.47212731  1  -1.389592  0.00074  -0.386963  -0.440842  0.000398  3.17696  -0.001
N  N202  1  0.47925512  0.66444225  0.52787125  1  -1.389751  0.00074  -0.386992  -0.440854  0.000398  3.177152  -0.001
N  N203  1  0.85719761  0.19234302  0.41779859  1  -1.347587  0.000427  -0.381599  -0.407487  0.000234  2.997375  0.0
N  N204  1  0.14280667  0.80765510  0.58220413  1  -1.347966  0.000427  -0.381604  -0.407522  0.000234  2.997492  0.0
N  N205  1  0.71824848  0.33275008  0.27499571  1  -1.398563  -0.000422  -0.38247  -0.429296  -0.000226  3.061538  0.0
N  N206  1  0.28175226  0.66724240  0.72499965  1  -1.39845  -0.000422  -0.382413  -0.429177  -0.000226  3.061305  0.0
N  N207  1  0.24470008  0.15776037  0.22173329  1  -1.360561  0.00015  -0.383268  -0.409213  8.7e-05  3.02182  0.0
N  N208  1  0.75531257  0.84224836  0.77826142  1  -1.360944  0.00015  -0.383192  -0.408993  8.7e-05  3.021933  0.0
