# generated using pymatgen
data_CdH14C19S2NO2
_symmetry_space_group_name_H-M   'P 1'
_cell_length_a   8.83153786
_cell_length_b   9.76469683
_cell_length_c   11.50472016
_cell_angle_alpha   107.14475130
_cell_angle_beta   103.64244352
_cell_angle_gamma   100.56043061
_symmetry_Int_Tables_number   1
_chemical_formula_structural   CdH14C19S2NO2
_chemical_formula_sum   'Cd2 H28 C38 S4 N2 O4'
_cell_volume   886.50300288
_cell_formula_units_Z   2
loop_
 _symmetry_equiv_pos_site_id
 _symmetry_equiv_pos_as_xyz
  1  'x, y, z'
loop_
 _atom_site_type_symbol
 _atom_site_label
 _atom_site_symmetry_multiplicity
 _atom_site_fract_x
 _atom_site_fract_y
 _atom_site_fract_z
 _atom_site_occupancy
 _atom_site_hle17_bader_spin_density
 _atom_site_hle17_ddec_charge
 _atom_site_hle17_ddec_spin_density
 _atom_site_hle17_ddec_sum_bond_order
 _atom_site_hle17_magmom
 _atom_site_hse06_10hf_bader_spin_density
 _atom_site_hse06_10hf_ddec_charge
 _atom_site_hse06_10hf_ddec_spin_density
 _atom_site_hse06_10hf_ddec_sum_bond_order
 _atom_site_hse06_10hf_magmom
 _atom_site_hse06_bader_spin_density
 _atom_site_hse06_ddec_charge
 _atom_site_hse06_ddec_spin_density
 _atom_site_hse06_ddec_sum_bond_order
 _atom_site_hse06_magmom
 _atom_site_pbe_bader_spin_density
 _atom_site_pbe_cm5_charge
 _atom_site_pbe_ddec_charge
 _atom_site_pbe_ddec_spin_density
 _atom_site_pbe_ddec_sum_bond_order
 _atom_site_pbe_magmom
Cd  Cd0  1  0.39004794  0.59407794  0.59947019  1  0  0.825294  0  1.97324  0  0  0.657497  0  2.422276  0  0  0.70345  0  2.390774  0  0  0.602186  0.625862  0  2.442715  0
Cd  Cd1  1  0.60995177  0.40592397  0.40052787  1  0  0.825294  0  1.973256  0  0  0.657505  0  2.422296  0  0  0.703454  0  2.390794  0  0  0.602191  0.62587  0  2.442738  0
H  H2  1  0.04019265  0.58115189  0.40780651  1  0  0.103822  0  0.95686  0  0  0.108796  0  1.023371  0  0  0.112119  0  1.019823  0  0  0.120242  0.106444  0  1.025637  0
H  H3  1  0.95980559  0.41884893  0.59218926  1  0  0.103777  0  0.956817  0  0  0.108784  0  1.023296  0  0  0.112109  0  1.019744  0  0  0.120221  0.106431  0  1.025562  0
H  H4  1  0.87695642  0.74603433  0.36195472  1  0  0.114181  0  0.966223  0  0  0.123028  0  1.028951  0  0  0.126687  0  1.026977  0  0  0.107075  0.120497  0  1.030249  0
H  H5  1  0.12304033  0.25396535  0.63804135  1  0  0.11416  0  0.966126  0  0  0.12301  0  1.028859  0  0  0.126672  0  1.026887  0  0  0.107054  0.120471  0  1.030175  0
H  H6  1  0.24991671  0.11318925  0.66684248  1  0  0.10586  0  0.966321  0  0  0.116708  0  1.026715  0  0  0.119568  0  1.025965  0  0  0.10806  0.114928  0  1.027006  0
H  H7  1  0.75007699  0.88680805  0.33315936  1  0  0.105899  0  0.96624  0  0  0.116716  0  1.026667  0  0  0.119576  0  1.025918  0  0  0.108061  0.114938  0  1.026962  0
H  H8  1  0.40038917  0.92936343  0.69876174  1  0  0.06782  0  0.960376  0  0  0.075151  0  1.030705  0  0  0.077419  0  1.028905  0  0  0.107131  0.073506  0  1.031963  0
H  H9  1  0.59960691  0.07063399  0.30123535  1  0  0.067843  0  0.96027  0  0  0.075163  0  1.030617  0  0  0.077436  0  1.028812  0  0  0.107119  0.073519  0  1.031875  0
H  H10  1  0.51724165  0.82914305  0.08701076  1  0  0.090569  0  0.969477  0  0  0.100457  0  1.034492  0  0  0.103622  0  1.032708  0  0  0.094179  0.098405  0  1.035226  0
H  H11  1  0.48276706  0.17085777  0.91299041  1  0  0.090544  0  0.969448  0  0  0.10042  0  1.03447  0  0  0.103581  0  1.0327  0  0  0.094164  0.098368  0  1.035201  0
H  H12  1  0.47834031  0.82389860  0.29496049  1  0  0.078664  0  0.978274  0  0  0.090072  0  1.040829  0  0  0.092901  0  1.039656  0  0  0.091072  0.087871  0  1.042229  0
H  H13  1  0.52166122  0.17610553  0.70503848  1  0  0.078647  0  0.978269  0  0  0.090074  0  1.040815  0  0  0.092903  0  1.039639  0  0  0.091078  0.087872  0  1.042214  0
H  H14  1  0.27533500  0.61315044  0.29747076  1  0  0.092185  0  0.973435  0  0  0.100938  0  1.038849  0  0  0.10361  0  1.037383  0  0  0.095123  0.099113  0  1.039746  0
H  H15  1  0.72466048  0.38685698  0.70252883  1  0  0.092218  0  0.973454  0  0  0.100997  0  1.038844  0  0  0.10366  0  1.037385  0  0  0.095157  0.099172  0  1.03974  0
H  H16  1  0.10539936  0.41152188  0.09509429  1  0  0.091863  0  0.949369  0  0  0.10449  0  1.007458  0  0  0.107024  0  1.007112  0  0  0.101207  0.102696  0  1.0078  0
H  H17  1  0.89459399  0.58848221  0.90490317  1  0  0.091847  0  0.949482  0  0  0.104478  0  1.007549  0  0  0.107012  0  1.007202  0  0  0.10122  0.102686  0  1.007892  0
H  H18  1  0.14071801  0.41966938  0.88690476  1  0  0.094747  0  0.959607  0  0  0.104052  0  1.024119  0  0  0.107528  0  1.021819  0  0  0.101618  0.101537  0  1.025856  0
H  H19  1  0.85928469  0.58033478  0.11309357  1  0  0.094734  0  0.959703  0  0  0.104065  0  1.024186  0  0  0.10754  0  1.021887  0  0  0.101628  0.10155  0  1.025927  0
H  H20  1  0.93923112  0.27435686  0.21791831  1  0  0.105116  0  0.952941  0  0  0.111343  0  1.019899  0  0  0.114562  0  1.017811  0  0  0.10317  0.109024  0  1.021447  0
H  H21  1  0.06076138  0.72564039  0.78208591  1  0  0.105221  0  0.952997  0  0  0.111478  0  1.01989  0  0  0.114697  0  1.017802  0  0  0.103229  0.109157  0  1.021439  0
H  H22  1  0.74929618  0.04059915  0.04807617  1  0  0.087489  0  0.959138  0  0  0.094268  0  1.026531  0  0  0.097214  0  1.025835  0  0  0.094128  0.092216  0  1.026954  0
H  H23  1  0.25070436  0.95939369  0.95192924  1  0  0.087487  0  0.959151  0  0  0.094248  0  1.02657  0  0  0.097193  0  1.025874  0  0  0.094106  0.092195  0  1.026998  0
H  H24  1  0.82109689  0.80215522  0.01595584  1  0  0.082166  0  0.98942  0  0  0.088582  0  1.061118  0  0  0.091343  0  1.059821  0  0  0.090258  0.086529  0  1.062179  0
H  H25  1  0.17890553  0.19783996  0.98404444  1  0  0.082155  0  0.989417  0  0  0.088578  0  1.061116  0  0  0.09134  0  1.059817  0  0  0.090265  0.086522  0  1.062186  0
H  H26  1  0.08677508  0.79488233  0.14916613  1  0  0.086622  0  0.972469  0  0  0.097859  0  1.032733  0  0  0.099408  0  1.034517  0  0  0.096964  0.096639  0  1.03165  0
H  H27  1  0.91322861  0.20511728  0.85083728  1  0  0.086616  0  0.972513  0  0  0.097857  0  1.032767  0  0  0.099411  0  1.034559  0  0  0.096959  0.096636  0  1.031681  0
H  H28  1  0.27293348  0.02700912  0.31972502  1  0  0.087024  0  0.963393  0  0  0.096336  0  1.029049  0  0  0.099264  0  1.027434  0  0  0.091673  0.094026  0  1.030619  0
H  H29  1  0.72706936  0.97299161  0.68027766  1  0  0.087047  0  0.963448  0  0  0.096348  0  1.029109  0  0  0.099278  0  1.027489  0  0  0.091678  0.094038  0  1.030679  0
C  C30  1  0.08336156  0.69986420  0.46303447  1  0  0.138362  0  3.66251  0  0  0.105692  0  3.916845  0  0  0.112969  0  3.933735  0  0  0.046202  0.101175  0  3.904919  0
C  C31  1  0.91663634  0.30013547  0.53696268  1  0  0.138426  0  3.662462  0  0  0.105726  0  3.916797  0  0  0.113005  0  3.933683  0  0  0.046224  0.101209  0  3.904868  0
C  C32  1  0.99182427  0.79513295  0.43805089  1  0  -0.146066  0  3.685252  0  0  -0.166345  0  3.936957  0  0  -0.173726  0  3.957629  0  0  -0.078543  -0.161403  0  3.922814  0
C  C33  1  0.00816860  0.20486550  0.56194936  1  0  -0.145989  0  3.685063  0  0  -0.166275  0  3.936767  0  0  -0.17366  0  3.957438  0  0  -0.078499  -0.161332  0  3.922618  0
C  C34  1  0.04776628  0.94778197  0.51084268  1  0  0.096954  0  3.742445  0  0  0.108389  0  3.972949  0  0  0.112076  0  3.9948  0  0  0.014926  0.106362  0  3.957401  0
C  C35  1  0.95222595  0.05221427  0.48915601  1  0  0.096814  0  3.742399  0  0  0.108288  0  3.972872  0  0  0.111977  0  3.994722  0  0  0.014975  0.106262  0  3.957323  0
C  C36  1  0.19859001  0.99671929  0.60599637  1  0  -0.149085  0  3.712059  0  0  -0.168313  0  3.95957  0  0  -0.175549  0  3.981511  0  0  -0.079729  -0.163717  0  3.94476  0
C  C37  1  0.80140254  0.00327806  0.39400267  1  0  -0.149095  0  3.71206  0  0  -0.168302  0  3.95955  0  0  -0.175538  0  3.981493  0  0  -0.079723  -0.163709  0  3.944749  0
C  C38  1  0.28383977  0.89482448  0.62438883  1  0  0.116916  0  3.739986  0  0  0.088116  0  3.988462  0  0  0.094604  0  4.007941  0  0  0.040641  0.083826  0  3.97557  0
C  C39  1  0.71615726  0.10517625  0.37561104  1  0  0.116905  0  3.740024  0  0  0.088117  0  3.988484  0  0  0.094599  0  4.007965  0  0  0.040644  0.083826  0  3.975597  0
C  C40  1  0.34857058  0.61966936  0.84785171  1  0  0.394675  0  3.810614  0  0  0.37349  0  4.091252  0  0  0.402416  0  4.092789  0  0  0.122125  0.35391  0  4.089708  0
C  C41  1  0.65143411  0.38033365  0.15214929  1  0  0.394613  0  3.810645  0  0  0.373415  0  4.091303  0  0  0.402347  0  4.092834  0  0  0.122075  0.353835  0  4.089762  0
C  C42  1  0.21994541  0.30567171  0.38143308  1  0  0.404817  0  3.784013  0  0  0.379292  0  4.066948  0  0  0.407591  0  4.069234  0  0  0.134897  0.360169  0  4.064921  0
C  C43  1  0.78005330  0.69432677  0.61856825  1  0  0.404876  0  3.783972  0  0  0.379355  0  4.066894  0  0  0.407642  0  4.069198  0  0  0.134885  0.360233  0  4.064867  0
C  C44  1  0.33134757  0.62373728  0.97452428  1  0  -0.022011  0  3.764887  0  0  0.002646  0  3.989375  0  0  -0.006319  0  4.014936  0  0  -0.02052  0.008099  0  3.9726  0
C  C45  1  0.66866031  0.37626466  0.02547616  1  0  -0.021993  0  3.764856  0  0  0.002684  0  3.989312  0  0  -0.006288  0  4.014876  0  0  -0.02055  0.008144  0  3.972524  0
C  C46  1  0.42702175  0.73833423  0.08974045  1  0  -0.082616  0  3.729264  0  0  -0.101583  0  3.966364  0  0  -0.101018  0  3.987187  0  0  -0.088335  -0.101355  0  3.951289  0
C  C47  1  0.57298462  0.26166657  0.91026029  1  0  -0.082604  0  3.729224  0  0  -0.101557  0  3.966317  0  0  -0.100995  0  3.987144  0  0  -0.088341  -0.10133  0  3.951239  0
C  C48  1  0.40540022  0.73513435  0.20516678  1  0  -0.082011  0  3.781946  0  0  -0.091361  0  4.025675  0  0  -0.095175  0  4.047015  0  0  -0.098687  -0.088731  0  4.010956  0
C  C49  1  0.59460266  0.26486643  0.79483331  1  0  -0.081996  0  3.782009  0  0  -0.091363  0  4.025734  0  0  -0.095174  0  4.047067  0  0  -0.098694  -0.088733  0  4.011013  0
C  C50  1  0.29054291  0.61726855  0.20726563  1  0  -0.053672  0  3.740622  0  0  -0.069617  0  3.989947  0  0  -0.068977  0  4.009503  0  0  -0.089868  -0.069855  0  3.97665  0
C  C51  1  0.70945364  0.38273446  0.79273126  1  0  -0.053725  0  3.740747  0  0  -0.069708  0  3.990092  0  0  -0.069056  0  4.00965  0  0  -0.089883  -0.069945  0  3.976791  0
C  C52  1  0.19503011  0.50308754  0.09306126  1  0  -0.075205  0  3.774682  0  0  -0.088025  0  4.027672  0  0  -0.09163  0  4.049165  0  0  -0.091177  -0.085879  0  4.013268  0
C  C53  1  0.80497163  0.49691328  0.90693602  1  0  -0.075098  0  3.774728  0  0  -0.087902  0  4.027712  0  0  -0.091507  0  4.049199  0  0  -0.091128  -0.08576  0  4.013312  0
C  C54  1  0.21438479  0.50694449  0.97732536  1  0  -0.071732  0  3.717462  0  0  -0.094577  0  3.961875  0  0  -0.093736  0  3.981826  0  0  -0.081013  -0.095076  0  3.948634  0
C  C55  1  0.78562172  0.49306077  0.02267570  1  0  -0.071824  0  3.717558  0  0  -0.094701  0  3.961949  0  0  -0.093856  0  3.981898  0  0  -0.081093  -0.095206  0  3.948719  0
C  C56  1  0.11740126  0.16483796  0.27872826  1  0  -0.041599  0  3.784826  0  0  -0.016845  0  4.015404  0  0  -0.027205  0  4.042265  0  0  -0.02556  -0.010381  0  3.997611  0
C  C57  1  0.88259710  0.83515936  0.72127532  1  0  -0.041539  0  3.784794  0  0  -0.016764  0  4.015353  0  0  -0.027121  0  4.042215  0  0  -0.025492  -0.0103  0  3.997558  0
C  C58  1  0.96989556  0.16853620  0.20107167  1  0  -0.061592  0  3.690646  0  0  -0.086126  0  3.938116  0  0  -0.084809  0  3.958673  0  0  -0.081327  -0.086631  0  3.924341  0
C  C59  1  0.03010362  0.83145998  0.79893350  1  0  -0.061848  0  3.690908  0  0  -0.086409  0  3.938389  0  0  -0.085093  0  3.958945  0  0  -0.081417  -0.086913  0  3.924611  0
C  C60  1  0.86431070  0.03813528  0.10745023  1  0  -0.075722  0  3.767384  0  0  -0.084435  0  4.014919  0  0  -0.089166  0  4.03758  0  0  -0.090813  -0.08155  0  3.999604  0
C  C61  1  0.13569001  0.96186209  0.89255204  1  0  -0.075673  0  3.767398  0  0  -0.08438  0  4.014977  0  0  -0.089111  0  4.037638  0  0  -0.090805  -0.081499  0  3.999661  0
C  C62  1  0.90547795  0.90342029  0.08949169  1  0  -0.041668  0  3.730341  0  0  -0.057904  0  3.975413  0  0  -0.057247  0  3.995735  0  0  -0.082419  -0.058171  0  3.961307  0
C  C63  1  0.09452276  0.09657707  0.91051059  1  0  -0.041587  0  3.730198  0  0  -0.057821  0  3.975258  0  0  -0.057164  0  3.995583  0  0  -0.082406  -0.05809  0  3.961148  0
C  C64  1  0.05315042  0.89935595  0.16442083  1  0  -0.08121  0  3.760112  0  0  -0.089898  0  4.004447  0  0  -0.094588  0  4.02798  0  0  -0.092626  -0.086414  0  3.987802  0
C  C65  1  0.94685060  0.10064252  0.83558266  1  0  -0.081223  0  3.760076  0  0  -0.089908  0  4.004408  0  0  -0.09461  0  4.027931  0  0  -0.092616  -0.086422  0  3.987761  0
C  C66  1  0.15862538  0.02936665  0.25932812  1  0  -0.066867  0  3.724683  0  0  -0.088928  0  3.967826  0  0  -0.088116  0  3.989134  0  0  -0.084672  -0.089229  0  3.953102  0
C  C67  1  0.84137599  0.97063298  0.74067313  1  0  -0.066914  0  3.724763  0  0  -0.088979  0  3.967912  0  0  -0.088166  0  3.989221  0  0  -0.084714  -0.089281  0  3.953187  0
S  S68  1  0.51621346  0.73750714  0.84098617  1  0  -0.440895  0  1.993367  0  0  -0.404502  0  2.319952  0  0  -0.429319  0  2.316352  0  0  -0.192427  -0.386993  0  2.321384  0
S  S69  1  0.48379009  0.26249591  0.15901203  1  0  -0.440868  0  1.993419  0  0  -0.40448  0  2.320037  0  0  -0.42928  0  2.316408  0  0  -0.192397  -0.386968  0  2.321471  0
S  S70  1  0.38623724  0.30674118  0.50228735  1  0  -0.453734  0  2.115324  0  0  -0.404321  0  2.473781  0  0  -0.427881  0  2.466066  0  0  -0.186457  -0.388251  0  2.478802  0
S  S71  1  0.61376450  0.69325964  0.49770993  1  0  -0.45378  0  2.115351  0  0  -0.404354  0  2.473769  0  0  -0.427906  0  2.466054  0  0  -0.186455  -0.388286  0  2.478794  0
N  N72  1  0.22795667  0.74846043  0.55451075  1  0  -0.308297  0  3.259527  0  0  -0.227492  0  3.517475  0  0  -0.246877  0  3.537639  0  0  -0.330209  -0.214495  0  3.503157  0
N  N73  1  0.77204123  0.25153922  0.44548726  1  0  -0.308364  0  3.259621  0  0  -0.227555  0  3.517574  0  0  -0.246941  0  3.537742  0  0  -0.33024  -0.214558  0  3.503257  0
O  O74  1  0.24150033  0.52827892  0.74757453  1  0  -0.518904  0  2.002308  0  0  -0.459137  0  2.234508  0  0  -0.48278  0  2.22874  0  0  -0.295166  -0.443011  0  2.238079  0
O  O75  1  0.75850722  0.47172189  0.25242642  1  0  -0.518859  0  2.002323  0  0  -0.459097  0  2.234541  0  0  -0.482745  0  2.228767  0  0  -0.29512  -0.442974  0  2.238114  0
O  O76  1  0.18489502  0.42517372  0.38645949  1  0  -0.492207  0  2.058758  0  0  -0.427756  0  2.291019  0  0  -0.451222  0  2.286578  0  0  -0.273349  -0.41164  0  2.293188  0
O  O77  1  0.81510339  0.57482372  0.61353804  1  0  -0.492197  0  2.05871  0  0  -0.42779  0  2.291046  0  0  -0.451253  0  2.28661  0  0  -0.273341  -0.411675  0  2.293214  0
