# generated using pymatgen
data_Zn2H18C28N3O10
_symmetry_space_group_name_H-M   'P 1'
_cell_length_a   14.65316702
_cell_length_b   15.43399127
_cell_length_c   15.43392230
_cell_angle_alpha   113.92601555
_cell_angle_beta   104.23597752
_cell_angle_gamma   104.23661123
_symmetry_Int_Tables_number   1
_chemical_formula_structural   Zn2H18C28N3O10
_chemical_formula_sum   'Zn8 H72 C112 N12 O40'
_cell_volume   2847.50840408
_cell_formula_units_Z   4
loop_
 _symmetry_equiv_pos_site_id
 _symmetry_equiv_pos_as_xyz
  1  'x, y, z'
loop_
 _atom_site_type_symbol
 _atom_site_label
 _atom_site_symmetry_multiplicity
 _atom_site_fract_x
 _atom_site_fract_y
 _atom_site_fract_z
 _atom_site_occupancy
 _atom_site_pbe_bader_charge
 _atom_site_pbe_bader_spin_density
 _atom_site_pbe_cm5_charge
 _atom_site_pbe_ddec_charge
 _atom_site_pbe_ddec_spin_density
 _atom_site_pbe_ddec_sum_bond_order
 _atom_site_pbe_magmom
Zn  Zn0  1  0.90463850  0.44629686  0.84988940  1  1.361946  0  0.700236  0.996885  0  2.170101  0
Zn  Zn1  1  0.59535919  0.15011196  0.55370742  1  1.361983  0  0.700248  0.996921  0  2.170091  0
Zn  Zn2  1  0.09536168  0.55370666  0.15011407  1  1.361877  0  0.700183  0.996848  0  2.170189  0
Zn  Zn3  1  0.40464071  0.84988540  0.44629152  1  1.361917  0  0.70019  0.996838  0  2.170215  0
Zn  Zn4  1  0.93971559  0.68309660  0.85557189  1  1.293838  0  0.681126  0.813488  0  2.325146  0
Zn  Zn5  1  0.56028579  0.14442912  0.31690504  1  1.293854  0  0.681119  0.813485  0  2.325219  0
Zn  Zn6  1  0.06028269  0.31690385  0.14442730  1  1.293851  0  0.68113  0.813523  0  2.325196  0
Zn  Zn7  1  0.43971631  0.85557209  0.68309599  1  1.293804  0  0.681108  0.813443  0  2.32523  0
H  H8  1  0.67054727  0.66681810  0.95095264  1  0.090737  0  0.097358  0.095626  0  1.048081  0
H  H9  1  0.82945422  0.04905037  0.33318565  1  0.090763  0  0.097336  0.0956  0  1.048142  0
H  H10  1  0.32944892  0.33317695  0.04904581  1  0.090612  0  0.097386  0.095681  0  1.048073  0
H  H11  1  0.17054999  0.95095083  0.66681846  1  0.090699  0  0.097399  0.095671  0  1.048166  0
H  H12  1  0.49654887  0.59994961  0.95249548  1  0.061464  0  0.104574  0.121496  0  0.99813  0
H  H13  1  0.00344976  0.04750658  0.40005311  1  0.061578  0  0.104609  0.121572  0  0.998087  0
H  H14  1  0.50344560  0.40004468  0.04749902  1  0.061444  0  0.104579  0.121523  0  0.998222  0
H  H15  1  0.99655435  0.95249616  0.59995160  1  0.061507  0  0.104589  0.121563  0  0.998136  0
H  H16  1  0.43050215  0.30488123  0.69878697  1  0.09422  0  0.106706  0.125636  0  1.018068  0
H  H17  1  0.06949573  0.30121768  0.69511894  1  0.094198  0  0.106718  0.125618  0  1.018151  0
H  H18  1  0.56949826  0.69511382  0.30121050  1  0.094351  0  0.106671  0.125543  0  1.018069  0
H  H19  1  0.93050405  0.69878662  0.30488152  1  0.094244  0  0.106703  0.125595  0  1.018177  0
H  H20  1  0.31056096  0.48701323  0.70815741  1  0.081322  0  0.110141  0.127143  0  0.988965  0
H  H21  1  0.18943577  0.29183942  0.51298467  1  0.081527  0  0.110117  0.127121  0  0.988959  0
H  H22  1  0.68943320  0.51298569  0.29183825  1  0.081436  0  0.110104  0.127078  0  0.988975  0
H  H23  1  0.81056462  0.70816102  0.48701565  1  0.081525  0  0.110139  0.127165  0  0.98896  0
H  H24  1  0.18268185  0.56976010  0.71287344  1  0.097799  0  0.114129  0.122419  0  0.977531  0
H  H25  1  0.31731958  0.28712610  0.43024143  1  0.097827  0  0.114103  0.122382  0  0.977567  0
H  H26  1  0.81731723  0.43024419  0.28713074  1  0.097815  0  0.114124  0.122361  0  0.977521  0
H  H27  1  0.68268092  0.71287280  0.56975829  1  0.097823  0  0.114102  0.122384  0  0.977549  0
H  H28  1  0.26994397  0.43755979  0.95350556  1  0.09469  0  0.10849  0.130879  0  1.014467  0
H  H29  1  0.23005400  0.04649463  0.56244193  1  0.09461  0  0.108481  0.130864  0  1.01452  0
H  H30  1  0.73005964  0.56243987  0.04649454  1  0.09467  0  0.108472  0.130848  0  1.014536  0
H  H31  1  0.76994669  0.95350658  0.43756007  1  0.094616  0  0.108479  0.13087  0  1.014527  0
H  H32  1  0.89789845  0.78618693  0.69244309  1  0.133209  0  0.125691  0.121456  0  0.998118  0
H  H33  1  0.60209900  0.30755773  0.21381584  1  0.133192  0  0.125708  0.121447  0  0.99817  0
H  H34  1  0.10209591  0.21381429  0.30755615  1  0.133141  0  0.125727  0.121473  0  0.998147  0
H  H35  1  0.39790280  0.69244271  0.78618481  1  0.133325  0  0.125727  0.121478  0  0.998139  0
H  H36  1  0.03527013  0.98554639  0.76958408  1  0.143241  0  0.124283  0.12249  0  1.032051  0
H  H37  1  0.46473220  0.23041699  0.01445552  1  0.14329  0  0.124281  0.122494  0  1.032038  0
H  H38  1  0.96473026  0.01445405  0.23041430  1  0.143279  0  0.124289  0.122489  0  1.032052  0
H  H39  1  0.53527030  0.76958344  0.98554528  1  0.143291  0  0.124285  0.122525  0  1.03199  0
H  H40  1  0.18082624  0.05773743  0.13828365  1  0.092738  0  0.109415  0.120471  0  1.016189  0
H  H41  1  0.31917731  0.86171357  0.94226271  1  0.092591  0  0.109419  0.120478  0  1.016167  0
H  H42  1  0.81917475  0.94226456  0.86171291  1  0.092636  0  0.109431  0.120487  0  1.016193  0
H  H43  1  0.68082500  0.13828455  0.05773840  1  0.092686  0  0.109441  0.120509  0  1.016276  0
H  H44  1  0.23171801  0.02350839  0.28147198  1  0.11695  0  0.104858  0.101318  0  1.0394  0
H  H45  1  0.26828605  0.71852722  0.97649506  1  0.117201  0  0.104871  0.101332  0  1.03943  0
H  H46  1  0.76828317  0.97649591  0.71852621  1  0.117216  0  0.104882  0.101338  0  1.039377  0
H  H47  1  0.73171776  0.28147475  0.02350991  1  0.116934  0  0.104875  0.101313  0  1.039326  0
H  H48  1  0.16256253  0.84257330  0.25069217  1  0.157877  0  0.116221  0.138534  0  1.003594  0
H  H49  1  0.33743434  0.74931081  0.15743085  1  0.157937  0  0.116196  0.138513  0  1.003608  0
H  H50  1  0.83743896  0.15743176  0.74930900  1  0.157852  0  0.1162  0.138555  0  1.003578  0
H  H51  1  0.66256093  0.25069271  0.84257343  1  0.157872  0  0.116231  0.138574  0  1.003535  0
H  H52  1  0.03858206  0.70280512  0.07223387  1  0.167818  0  0.122362  0.115138  0  1.037546  0
H  H53  1  0.46141576  0.92776871  0.29719815  1  0.16778  0  0.122375  0.115158  0  1.037485  0
H  H54  1  0.96142023  0.29719840  0.92776750  1  0.167775  0  0.122382  0.115197  0  1.037506  0
H  H55  1  0.53858483  0.07223403  0.70280510  1  0.167776  0  0.122377  0.115139  0  1.037499  0
H  H56  1  0.22341286  0.07290079  0.03105259  1  0.071455  0  0.116736  0.100865  0  0.999869  0
H  H57  1  0.27659105  0.96894496  0.92709835  1  0.071482  0  0.116689  0.100795  0  0.999941  0
H  H58  1  0.77658804  0.92709734  0.96894367  1  0.071414  0  0.116708  0.100842  0  0.999893  0
H  H59  1  0.72341186  0.03105471  0.07290159  1  0.071437  0  0.116729  0.100857  0  0.999916  0
H  H60  1  0.13684314  0.13364641  0.01896521  1  0.098419  0  0.117867  0.114678  0  0.985039  0
H  H61  1  0.36316087  0.98103463  0.86635279  1  0.09825  0  0.117899  0.114691  0  0.98504  0
H  H62  1  0.86315706  0.86635172  0.98103218  1  0.098374  0  0.117908  0.114717  0  0.98498  0
H  H63  1  0.63684153  0.01896735  0.13364668  1  0.098366  0  0.117889  0.114711  0  0.984987  0
H  H64  1  0.11599178  0.20027343  0.90369601  1  0.086752  0  0.104704  0.111327  0  1.012835  0
H  H65  1  0.38401403  0.09630080  0.79972505  1  0.086716  0  0.104722  0.111335  0  1.012741  0
H  H66  1  0.88400641  0.79972317  0.09629900  1  0.086802  0  0.104684  0.111306  0  1.012852  0
H  H67  1  0.61599198  0.90370502  0.20028006  1  0.086653  0  0.104706  0.111322  0  1.012747  0
H  H68  1  0.18169309  0.25570214  0.79306570  1  0.089481  0  0.104217  0.102525  0  1.029203  0
H  H69  1  0.31831111  0.20692522  0.74428953  1  0.089575  0  0.104221  0.102444  0  1.029275  0
H  H70  1  0.81830490  0.74429215  0.20692896  1  0.089889  0  0.104215  0.102487  0  1.029172  0
H  H71  1  0.68169169  0.79307598  0.25571166  1  0.089375  0  0.104257  0.102508  0  1.029188  0
H  H72  1  0.94301821  0.60851151  0.67933788  1  0.618554  0  0.314776  0.396609  0  0.88478  0
H  H73  1  0.55698239  0.32066075  0.39148797  1  0.618599  0  0.314764  0.396631  0  0.884759  0
H  H74  1  0.05698077  0.39148894  0.32066018  1  0.618588  0  0.314768  0.396632  0  0.884747  0
H  H75  1  0.44301781  0.67933738  0.60851136  1  0.618549  0  0.314768  0.396632  0  0.88475  0
H  H76  1  0.86782269  0.51417080  0.67247897  1  0.67298  0  0.296779  0.407219  0  0.917714  0
H  H77  1  0.63217819  0.32752007  0.48582762  1  0.67303  0  0.296748  0.407154  0  0.917803  0
H  H78  1  0.13217922  0.48582809  0.32752042  1  0.673038  0  0.296754  0.407153  0  0.917783  0
H  H79  1  0.36782190  0.67247959  0.51417296  1  0.673047  0  0.296774  0.407198  0  0.917735  0
C  C80  1  0.75605863  0.55869205  0.83409504  1  1.556009  0  0.219321  0.607671  0  4.148389  0
C  C81  1  0.74394236  0.16590671  0.44130986  1  1.555515  0  0.21932  0.60764  0  4.148513  0
C  C82  1  0.24394127  0.44130531  0.16590390  1  1.555576  0  0.219363  0.60771  0  4.148255  0
C  C83  1  0.25605885  0.83409219  0.55869002  1  1.555556  0  0.219271  0.607626  0  4.148389  0
C  C84  1  0.64844228  0.52326436  0.82568338  1  -0.007233  0  -0.019934  -0.080179  0  3.949219  0
C  C85  1  0.85155497  0.17431856  0.47673628  1  -0.007221  0  -0.01988  -0.080155  0  3.949111  0
C  C86  1  0.35155491  0.47673146  0.17431625  1  -0.007164  0  -0.019871  -0.080063  0  3.949127  0
C  C87  1  0.14844442  0.82568111  0.52326479  1  -0.008113  0  -0.019861  -0.080119  0  3.949148  0
C  C88  1  0.61677017  0.58806499  0.89505478  1  -0.078688  0  -0.086958  -0.073655  0  4.008953  0
C  C89  1  0.88322831  0.10494519  0.41193473  1  -0.07865  0  -0.086954  -0.073602  0  4.008854  0
C  C90  1  0.38322583  0.41192775  0.10494203  1  -0.078293  0  -0.087012  -0.073718  0  4.009004  0
C  C91  1  0.11677460  0.89505447  0.58806715  1  -0.077941  0  -0.087012  -0.073649  0  4.009032  0
C  C92  1  0.52030925  0.55173943  0.89586208  1  0.029239  0  -0.108048  -0.218644  0  4.016283  0
C  C93  1  0.97969108  0.10413980  0.44826419  1  0.029234  0  -0.108056  -0.218732  0  4.016335  0
C  C94  1  0.47968834  0.44825563  0.10413410  1  0.028734  0  -0.108094  -0.218772  0  4.01647  0
C  C95  1  0.02031203  0.89586217  0.55174062  1  0.029267  0  -0.108104  -0.218832  0  4.016313  0
C  C96  1  0.45471041  0.44925570  0.82510442  1  0.385325  0  0.083591  0.262683  0  4.06859  0
C  C97  1  0.04528854  0.17489759  0.55074636  1  0.385366  0  0.083585  0.262657  0  4.068586  0
C  C98  1  0.54528508  0.55073936  0.17489256  1  0.385353  0  0.083632  0.262829  0  4.068607  0
C  C99  1  0.95471175  0.82510439  0.44925651  1  0.385437  0  0.083567  0.262743  0  4.068453  0
C  C100  1  0.48354494  0.38416861  0.75389799  1  0.060062  0  -0.097058  -0.224557  0  3.949933  0
C  C101  1  0.01645311  0.24610615  0.61583378  1  0.060043  0  -0.097068  -0.224537  0  3.949931  0
C  C102  1  0.51645216  0.61582336  0.24609747  1  0.059971  0  -0.097045  -0.224507  0  3.950042  0
C  C103  1  0.98354708  0.75389737  0.38416904  1  0.060055  0  -0.097031  -0.224548  0  3.949963  0
C  C104  1  0.58037615  0.42095182  0.75338454  1  -0.032194  0  0.006665  0.015941  0  3.907615  0
C  C105  1  0.91962232  0.24661830  0.57904933  1  -0.032206  0  0.006593  0.015903  0  3.907634  0
C  C106  1  0.41962315  0.57904400  0.24661364  1  -0.031932  0  0.006602  0.015817  0  3.907694  0
C  C107  1  0.08037656  0.75338368  0.42095256  1  -0.032199  0  0.006656  0.015972  0  3.907529  0
C  C108  1  0.60311088  0.34864656  0.66864918  1  1.62944  0  0.212488  0.605077  0  4.211901  0
C  C109  1  0.89688839  0.33135056  0.65135156  1  1.628944  0  0.2125  0.605188  0  4.211616  0
C  C110  1  0.39688783  0.65134772  0.33135212  1  1.629043  0  0.212395  0.60505  0  4.212061  0
C  C111  1  0.10311232  0.66864525  0.34864953  1  1.628875  0  0.212413  0.604999  0  4.212102  0
C  C112  1  0.29621928  0.45783305  0.83089510  1  0.424896  0  0.089869  0.269886  0  4.068852  0
C  C113  1  0.20378108  0.16910533  0.54216925  1  0.424606  0  0.089885  0.26989  0  4.068911  0
C  C114  1  0.70378051  0.54216585  0.16910315  1  0.425018  0  0.08984  0.269867  0  4.068862  0
C  C115  1  0.79622061  0.83089665  0.45783329  1  0.424732  0  0.089844  0.269919  0  4.0688  0
C  C116  1  0.27329667  0.49479764  0.76239230  1  -0.005576  0  -0.103053  -0.219234  0  4.01369  0
C  C117  1  0.22670201  0.23760614  0.50520279  1  -0.005647  0  -0.103046  -0.219215  0  4.013637  0
C  C118  1  0.72670161  0.50520280  0.23760624  1  -0.005856  0  -0.102962  -0.219058  0  4.01358  0
C  C119  1  0.77329878  0.76239352  0.49479731  1  -0.005738  0  -0.103055  -0.219308  0  4.013636  0
C  C120  1  0.20197636  0.53973700  0.76469617  1  -0.021305  0  -0.076605  -0.063207  0  3.985629  0
C  C121  1  0.29802265  0.23530218  0.46026145  1  -0.021318  0  -0.076578  -0.063189  0  3.985569  0
C  C122  1  0.79802021  0.46026268  0.23530231  1  -0.02121  0  -0.07666  -0.063252  0  3.985711  0
C  C123  1  0.70197744  0.76469749  0.53973784  1  -0.02127  0  -0.07658  -0.06316  0  3.985484  0
C  C124  1  0.15206163  0.54685130  0.83287187  1  -0.022267  0  -0.02417  -0.0942  0  3.981892  0
C  C125  1  0.34793703  0.16712620  0.45314639  1  -0.021954  0  -0.024154  -0.094154  0  3.981868  0
C  C126  1  0.84793706  0.45314836  0.16713033  1  -0.022006  0  -0.024207  -0.094178  0  3.98183  0
C  C127  1  0.65206346  0.83287270  0.54685203  1  -0.021942  0  -0.024189  -0.094167  0  3.98186  0
C  C128  1  0.17560029  0.50867606  0.90046368  1  -0.057158  0  0.001246  0.006205  0  3.940607  0
C  C129  1  0.32439873  0.09953296  0.49132159  1  -0.057164  0  0.001261  0.00625  0  3.940467  0
C  C130  1  0.82440031  0.49132130  0.09953413  1  -0.057214  0  0.001286  0.006221  0  3.940437  0
C  C131  1  0.67559996  0.90046671  0.50867931  1  -0.057423  0  0.001255  0.006179  0  3.940483  0
C  C132  1  0.24862753  0.46509132  0.89988638  1  0.008478  0  -0.098267  -0.232234  0  3.950195  0
C  C133  1  0.25136930  0.10011192  0.53491019  1  0.008542  0  -0.098276  -0.232229  0  3.950154  0
C  C134  1  0.75136975  0.53490835  0.10011226  1  0.008535  0  -0.098228  -0.232185  0  3.950111  0
C  C135  1  0.74863169  0.89989006  0.46509154  1  0.008765  0  -0.098253  -0.232207  0  3.950033  0
C  C136  1  0.12618715  0.51238709  0.97579930  1  1.618555  0  0.207677  0.578431  0  4.231414  0
C  C137  1  0.37380908  0.02419670  0.48760894  1  1.618588  0  0.207653  0.578311  0  4.231288  0
C  C138  1  0.87380624  0.48760258  0.02419370  1  1.618801  0  0.20762  0.57826  0  4.231289  0
C  C139  1  0.62619202  0.97580373  0.51239543  1  1.618705  0  0.207648  0.578313  0  4.231116  0
C  C140  1  0.08137656  0.60165299  0.83621130  1  1.546004  0  0.205015  0.575356  0  4.190154  0
C  C141  1  0.41862275  0.16378914  0.39834775  1  1.545666  0  0.205028  0.575367  0  4.190136  0
C  C142  1  0.91862444  0.39834898  0.16379302  1  1.545785  0  0.205165  0.575587  0  4.189956  0
C  C143  1  0.58137775  0.83620975  0.60165390  1  1.545607  0  0.205024  0.575344  0  4.190118  0
C  C144  1  0.95622810  0.84062656  0.76883102  1  0.474366  0  0.014542  0.003589  0  3.981296  0
C  C145  1  0.54377085  0.23117062  0.15937562  1  0.474045  0  0.014528  0.003644  0  3.981313  0
C  C146  1  0.04376896  0.15937620  0.23116818  1  0.474621  0  0.014461  0.003534  0  3.981291  0
C  C147  1  0.45623125  0.76883058  0.84062541  1  0.473911  0  0.014511  0.003596  0  3.98136  0
C  C148  1  0.02362356  0.93904481  0.80575166  1  0.274954  0  0.009244  -0.095089  0  3.918507  0
C  C149  1  0.47637623  0.19424886  0.06095651  1  0.275011  0  0.009227  -0.095122  0  3.918561  0
C  C150  1  0.97637412  0.06095410  0.19424611  1  0.274797  0  0.009279  -0.095027  0  3.918337  0
C  C151  1  0.52362446  0.80575235  0.93904419  1  0.274951  0  0.00922  -0.09515  0  3.918499  0
C  C152  1  0.04890017  0.89999267  0.93071460  1  0.930152  0  0.210883  0.178555  0  3.984486  0
C  C153  1  0.45110101  0.06928685  0.10000855  1  0.930244  0  0.210847  0.178642  0  3.984498  0
C  C154  1  0.95109841  0.10000855  0.06928432  1  0.930106  0  0.210874  0.178626  0  3.984456  0
C  C155  1  0.54890168  0.93071590  0.89999325  1  0.930075  0  0.210842  0.178638  0  3.984493  0
C  C156  1  0.08619074  0.89626388  0.02577755  1  0.467699  0  0.110786  0.138206  0  4.054254  0
C  C157  1  0.41381094  0.97422287  0.10373683  1  0.467911  0  0.110759  0.138088  0  4.054361  0
C  C158  1  0.91380924  0.10373733  0.97422170  1  0.467579  0  0.110769  0.138176  0  4.054309  0
C  C159  1  0.58619086  0.02577757  0.89626576  1  0.46802  0  0.110797  0.138116  0  4.054148  0
C  C160  1  0.15245197  0.97903644  0.12355036  1  -0.043961  0  -0.088454  -0.174779  0  3.967267  0
C  C161  1  0.34755004  0.87644779  0.02096388  1  -0.043949  0  -0.08843  -0.174711  0  3.96722  0
C  C162  1  0.84754931  0.02096632  0.87644722  1  -0.043711  0  -0.088483  -0.174834  0  3.967425  0
C  C163  1  0.65245246  0.12355265  0.97903887  1  -0.044148  0  -0.088469  -0.174826  0  3.967343  0
C  C164  1  0.18026679  0.95983534  0.20519524  1  -0.067203  0  -0.064542  -0.010929  0  3.945962  0
C  C165  1  0.31973444  0.79480416  0.04016709  1  -0.067485  0  -0.064536  -0.010958  0  3.946033  0
C  C166  1  0.81973580  0.04016896  0.79480457  1  -0.0675  0  -0.064518  -0.01084  0  3.946021  0
C  C167  1  0.68026525  0.20519627  0.95983565  1  -0.067287  0  -0.064484  -0.010743  0  3.945824  0
C  C168  1  0.14129833  0.86024412  0.18891371  1  0.028824  0  -0.072353  -0.113028  0  3.905635  0
C  C169  1  0.35870031  0.81108777  0.13975931  1  0.028659  0  -0.072331  -0.113017  0  3.905626  0
C  C170  1  0.85870255  0.13975941  0.81108539  1  0.029218  0  -0.072377  -0.113178  0  3.905669  0
C  C171  1  0.64129687  0.18891344  0.86024512  1  0.028803  0  -0.072413  -0.11324  0  3.90581  0
C  C172  1  0.07334466  0.78203401  0.08979381  1  0.463212  0  0.058388  0.111955  0  3.891781  0
C  C173  1  0.42665331  0.91020770  0.21796911  1  0.463157  0  0.058355  0.111994  0  3.891658  0
C  C174  1  0.92665663  0.21796874  0.91020636  1  0.462633  0  0.058425  0.112067  0  3.891632  0
C  C175  1  0.57334647  0.08979658  0.78203653  1  0.463245  0  0.058382  0.112016  0  3.891775  0
C  C176  1  0.16617169  0.07897222  0.97545368  1  0.271695  0  -0.045768  -0.108102  0  3.873028  0
C  C177  1  0.33383220  0.02454465  0.92102749  1  0.272027  0  -0.045722  -0.107997  0  3.873095  0
C  C178  1  0.83382910  0.92102745  0.02454383  1  0.271936  0  -0.04573  -0.108039  0  3.87303  0
C  C179  1  0.66617100  0.97545579  0.07897283  1  0.271914  0  -0.045757  -0.108074  0  3.873109  0
C  C180  1  0.21181501  0.11577504  0.91318199  1  -0.03174  0  -0.013979  0.033594  0  3.960771  0
C  C181  1  0.28818773  0.08681437  0.88421903  1  0.018553  0  -0.013978  0.033585  0  3.961016  0
C  C182  1  0.78818489  0.88422232  0.08681501  1  -0.032455  0  -0.014015  0.033537  0  3.960818  0
C  C183  1  0.71181336  0.91318607  0.11577951  1  0.018553  0  -0.013992  0.033511  0  3.960894  0
C  C184  1  0.17423770  0.17684876  0.88007668  1  -0.095642  0  -0.087801  -0.13208  0  3.976822  0
C  C185  1  0.32576372  0.11991878  0.82314758  1  -0.095234  0  -0.087779  -0.132111  0  3.976976  0
C  C186  1  0.82576139  0.82315014  0.11992013  1  -0.095135  0  -0.087707  -0.131977  0  3.976766  0
C  C187  1  0.67423837  0.88008243  0.17685345  1  -0.09508  0  -0.087791  -0.132105  0  3.976709  0
C  C188  1  0.21182088  0.20895381  0.81896301  1  -0.044247  0  -0.082335  -0.062459  0  3.983708  0
C  C189  1  0.28818119  0.18102846  0.79103993  1  0.018979  0  -0.082415  -0.06239  0  3.983712  0
C  C190  1  0.78817650  0.79104434  0.18103114  1  -0.044784  0  -0.082408  -0.062484  0  3.9837  0
C  C191  1  0.71182242  0.81897121  0.20895952  1  0.019231  0  -0.08238  -0.062359  0  3.983588  0
N  N192  1  0.04690060  0.79964053  0.01098452  1  -1.220356  0  -0.318639  -0.274098  0  3.512047  0
N  N193  1  0.45309919  0.98901697  0.20036054  1  -1.220321  0  -0.318622  -0.274102  0  3.512044  0
N  N194  1  0.95309938  0.20036068  0.98901537  1  -1.220208  0  -0.318675  -0.274215  0  3.511993  0
N  N195  1  0.54690251  0.01098501  0.79964071  1  -1.220285  0  -0.318681  -0.274089  0  3.51178  0
N  N196  1  0.97256250  0.81756870  0.84652134  1  -1.193439  0  -0.345792  -0.318993  0  3.543958  0
N  N197  1  0.52743538  0.15347811  0.18243191  1  -1.193151  0  -0.345754  -0.319073  0  3.543973  0
N  N198  1  0.02743256  0.18243252  0.15347807  1  -1.193312  0  -0.345739  -0.318993  0  3.544028  0
N  N199  1  0.47256612  0.84652156  0.81756771  1  -1.192998  0  -0.345718  -0.31899  0  3.543925  0
N  N200  1  0.08218128  0.97604141  0.90784220  1  -1.207613  0  -0.229061  0.013629  0  3.697473  0
N  N201  1  0.41782072  0.09215677  0.02395872  1  -1.207689  0  -0.229093  0.013593  0  3.697516  0
N  N202  1  0.91781881  0.02395826  0.09215644  1  -1.207653  0  -0.229121  0.013534  0  3.697428  0
N  N203  1  0.58218148  0.90784289  0.97604235  1  -1.207639  0  -0.229083  0.01358  0  3.697469  0
O  O204  1  0.80892367  0.65598862  0.87878397  1  -1.1748  0  -0.327964  -0.549024  0  2.271106  0
O  O205  1  0.69107710  0.12121836  0.34401056  1  -1.174581  0  -0.327951  -0.549006  0  2.271106  0
O  O206  1  0.19107372  0.34400951  0.12121666  1  -1.174687  0  -0.327946  -0.549012  0  2.27108  0
O  O207  1  0.30892440  0.87878132  0.65598776  1  -1.174771  0  -0.327915  -0.548991  0  2.271136  0
O  O208  1  0.79026303  0.49013354  0.79747491  1  -1.186086  0  -0.307104  -0.558577  0  2.386993  0
O  O209  1  0.70973349  0.20252252  0.50986587  1  -1.185847  0  -0.307106  -0.558577  0  2.387066  0
O  O210  1  0.20973565  0.50986614  0.20252340  1  -1.185806  0  -0.307144  -0.558653  0  2.386978  0
O  O211  1  0.29026541  0.79747407  0.49013189  1  -1.185554  0  -0.307115  -0.558593  0  2.387015  0
O  O212  1  0.60743394  0.36722403  0.59780360  1  -1.175989  0  -0.318163  -0.553357  0  2.147306  0
O  O213  1  0.89256010  0.40220063  0.63276911  1  -1.176148  0  -0.31823  -0.553492  0  2.146929  0
O  O214  1  0.39256626  0.63277410  0.40219314  1  -1.175909  0  -0.318084  -0.553278  0  2.147587  0
O  O215  1  0.10743353  0.59780600  0.36722375  1  -1.17598  0  -0.318078  -0.553251  0  2.147641  0
O  O216  1  0.60619057  0.26822942  0.67441362  1  -1.154947  0  -0.325953  -0.561358  0  2.308869  0
O  O217  1  0.89381073  0.32559378  0.73177103  1  -1.154399  0  -0.325909  -0.561353  0  2.308961  0
O  O218  1  0.39380992  0.73176948  0.32558544  1  -1.154697  0  -0.325877  -0.561294  0  2.308714  0
O  O219  1  0.10619105  0.67441206  0.26822857  1  -1.154505  0  -0.325945  -0.561347  0  2.308763  0
O  O220  1  0.36140560  0.40665398  0.82841957  1  -1.109631  0  -0.153466  -0.223254  0  2.59425  0
O  O221  1  0.13859405  0.17158088  0.59334761  1  -1.109395  0  -0.153489  -0.223295  0  2.59429  0
O  O222  1  0.63858957  0.59334031  0.17157250  1  -1.109653  0  -0.153462  -0.22337  0  2.594243  0
O  O223  1  0.86140954  0.82842417  0.40665728  1  -1.109475  0  -0.153448  -0.223323  0  2.594284  0
O  O224  1  0.16943604  0.59049939  0.06620950  1  -1.145703  0  -0.297678  -0.514003  0  2.250594  0
O  O225  1  0.33056039  0.93378794  0.40949878  1  -1.145844  0  -0.297605  -0.513924  0  2.250487  0
O  O226  1  0.83056075  0.40949720  0.93379101  1  -1.145954  0  -0.297583  -0.513842  0  2.25077  0
O  O227  1  0.66943911  0.06621019  0.59050363  1  -1.145937  0  -0.297621  -0.513928  0  2.250604  0
O  O228  1  0.04722863  0.43498872  0.94697240  1  -1.186511  0  -0.309967  -0.573709  0  2.292772  0
O  O229  1  0.45276903  0.05302685  0.56500780  1  -1.186389  0  -0.310039  -0.573695  0  2.292679  0
O  O230  1  0.95277077  0.56500556  0.05302453  1  -1.186525  0  -0.310045  -0.573705  0  2.292282  0
O  O231  1  0.54722845  0.94697513  0.43499507  1  -1.186499  0  -0.310018  -0.573662  0  2.292353  0
O  O232  1  0.09332679  0.66937108  0.81007529  1  -1.170115  0  -0.320281  -0.543738  0  2.113384  0
O  O233  1  0.40667541  0.18992751  0.33063019  1  -1.170141  0  -0.32028  -0.543741  0  2.113358  0
O  O234  1  0.90667811  0.33063550  0.18993247  1  -1.170251  0  -0.320388  -0.543873  0  2.113427  0
O  O235  1  0.59332588  0.81007525  0.66936934  1  -1.170106  0  -0.320251  -0.543715  0  2.113556  0
O  O236  1  0.00981495  0.58081133  0.87005446  1  -1.176683  0  -0.317497  -0.591389  0  2.479016  0
O  O237  1  0.49018526  0.12994652  0.41919032  1  -1.176672  0  -0.317488  -0.591391  0  2.478975  0
O  O238  1  0.99018434  0.41918988  0.12994657  1  -1.176634  0  -0.317523  -0.591495  0  2.479007  0
O  O239  1  0.50981543  0.87005469  0.58081039  1  -1.176563  0  -0.317518  -0.591394  0  2.478882  0
O  O240  1  0.88017351  0.58730323  0.69019122  1  -1.24242  0  -0.569468  -0.723081  0  2.044972  0
O  O241  1  0.61982933  0.30981032  0.41269640  1  -1.242509  0  -0.56941  -0.723041  0  2.045014  0
O  O242  1  0.11982809  0.41269489  0.30980909  1  -1.242492  0  -0.569415  -0.72305  0  2.044981  0
O  O243  1  0.38017287  0.69018934  0.58730532  1  -1.242464  0  -0.569432  -0.723081  0  2.044966  0
