# generated using pymatgen
data_UH20C15NO6
_symmetry_space_group_name_H-M   'P 1'
_cell_length_a   8.09153792
_cell_length_b   9.18780193
_cell_length_c   12.76817454
_cell_angle_alpha   108.30861703
_cell_angle_beta   98.07042197
_cell_angle_gamma   105.26767678
_symmetry_Int_Tables_number   1
_chemical_formula_structural   UH20C15NO6
_chemical_formula_sum   'U2 H40 C30 N2 O12'
_cell_volume   843.18203677
_cell_formula_units_Z   2
loop_
 _symmetry_equiv_pos_site_id
 _symmetry_equiv_pos_as_xyz
  1  'x, y, z'
loop_
 _atom_site_type_symbol
 _atom_site_label
 _atom_site_symmetry_multiplicity
 _atom_site_fract_x
 _atom_site_fract_y
 _atom_site_fract_z
 _atom_site_occupancy
 _atom_site_hle17_bader_spin_density
 _atom_site_hle17_ddec_charge
 _atom_site_hle17_ddec_spin_density
 _atom_site_hle17_ddec_sum_bond_order
 _atom_site_hle17_magmom
 _atom_site_hse06_10hf_bader_spin_density
 _atom_site_hse06_10hf_ddec_charge
 _atom_site_hse06_10hf_ddec_spin_density
 _atom_site_hse06_10hf_ddec_sum_bond_order
 _atom_site_hse06_10hf_magmom
 _atom_site_hse06_bader_spin_density
 _atom_site_hse06_ddec_charge
 _atom_site_hse06_ddec_spin_density
 _atom_site_hse06_ddec_sum_bond_order
 _atom_site_hse06_magmom
 _atom_site_pbe_bader_spin_density
 _atom_site_pbe_cm5_charge
 _atom_site_pbe_ddec_charge
 _atom_site_pbe_ddec_spin_density
 _atom_site_pbe_ddec_sum_bond_order
 _atom_site_pbe_magmom
U  U0  1  0.33758007  0.48750996  0.17659909  1  0  2.402589  0  4.228045  0  0  2.450216  0  4.90171  0  0  2.562152  0  4.864482  0  0  2.203326  2.371544  0  4.928079  0
U  U1  1  0.66242072  0.51249146  0.82340278  1  0  2.4026  0  4.228022  0  0  2.450209  0  4.901693  0  0  2.562132  0  4.864486  0  0  2.203337  2.371566  0  4.927992  0
H  H2  1  0.20618222  0.10053089  0.17569493  1  0  0.079643  0  0.944326  0  0  0.088222  0  1.009468  0  0  0.090194  0  1.007469  0  0  0.127775  0.086763  0  1.01098  0
H  H3  1  0.79381529  0.89946443  0.82430452  1  0  0.079634  0  0.944292  0  0  0.0882  0  1.009455  0  0  0.090172  0  1.007456  0  0  0.127771  0.086735  0  1.010977  0
H  H4  1  0.59879305  0.50939569  0.41052831  1  0  0.078859  0  0.950294  0  0  0.089285  0  1.010071  0  0  0.091325  0  1.008377  0  0  0.125053  0.087775  0  1.01149  0
H  H5  1  0.40120402  0.49060203  0.58947243  1  0  0.078837  0  0.950274  0  0  0.089266  0  1.010049  0  0  0.091306  0  1.008356  0  0  0.125033  0.087756  0  1.011467  0
H  H6  1  0.70049942  0.35059541  0.51530617  1  0  0.118555  0  0.975916  0  0  0.128997  0  1.035533  0  0  0.132891  0  1.034129  0  0  0.111992  0.126054  0  1.036884  0
H  H7  1  0.29950184  0.64939997  0.48469206  1  0  0.118547  0  0.975898  0  0  0.128988  0  1.035521  0  0  0.132881  0  1.034117  0  0  0.111991  0.126047  0  1.036872  0
H  H8  1  0.29505220  0.92158943  0.26765515  1  0  0.125114  0  0.968959  0  0  0.135414  0  1.028638  0  0  0.139259  0  1.027617  0  0  0.116125  0.132417  0  1.029847  0
H  H9  1  0.70495448  0.07840726  0.73234227  1  0  0.125096  0  0.96899  0  0  0.135379  0  1.02869  0  0  0.139225  0  1.027668  0  0  0.116123  0.132381  0  1.0299  0
H  H10  1  0.55935459  0.90407827  0.39904076  1  0  0.103548  0  0.964279  0  0  0.1212  0  1.024154  0  0  0.123358  0  1.02245  0  0  0.103216  0.119658  0  1.025497  0
H  H11  1  0.44065037  0.09592444  0.60096098  1  0  0.103639  0  0.96424  0  0  0.12124  0  1.024126  0  0  0.123398  0  1.022423  0  0  0.103258  0.119702  0  1.02547  0
H  H12  1  0.69744531  0.08282981  0.51341079  1  0  0.080093  0  0.941922  0  0  0.099206  0  1.000775  0  0  0.100031  0  1.001195  0  0  0.097034  0.098493  0  1.00057  0
H  H13  1  0.30256299  0.91717172  0.48658784  1  0  0.080107  0  0.94194  0  0  0.099201  0  1.000794  0  0  0.100024  0  1.001218  0  0  0.097045  0.098488  0  1.000594  0
H  H14  1  0.95517974  0.64686919  0.41288120  1  0  0.10385  0  0.912872  0  0  0.121451  0  0.964548  0  0  0.1238  0  0.963253  0  0  0.103134  0.119785  0  0.965535  0
H  H15  1  0.04482302  0.35314190  0.58712298  1  0  0.103835  0  0.91282  0  0  0.121454  0  0.96448  0  0  0.1238  0  0.963191  0  0  0.103146  0.119791  0  0.965461  0
H  H16  1  0.81324861  0.56289867  0.27616562  1  0  0.118171  0  0.934475  0  0  0.131605  0  0.998404  0  0  0.133984  0  0.997915  0  0  0.11265  0.129836  0  0.998944  0
H  H17  1  0.18675634  0.43710769  0.72384005  1  0  0.11824  0  0.934406  0  0  0.131606  0  0.998426  0  0  0.133983  0  0.997942  0  0  0.112666  0.129837  0  0.998967  0
H  H18  1  0.83909765  0.85039583  0.38360690  1  0  0.0666  0  0.938646  0  0  0.087549  0  0.996781  0  0  0.088156  0  0.997132  0  0  0.091614  0.087197  0  0.996504  0
H  H19  1  0.16090138  0.14961157  0.61639614  1  0  0.066514  0  0.938696  0  0  0.087539  0  0.996766  0  0  0.088148  0  0.997112  0  0  0.091609  0.087188  0  0.996494  0
H  H20  1  0.06339220  0.91628730  0.38220574  1  0  0.043831  0  0.962515  0  0  0.060204  0  1.031318  0  0  0.060483  0  1.03238  0  0  0.080178  0.059984  0  1.030706  0
H  H21  1  0.93660682  0.08372008  0.61779573  1  0  0.043846  0  0.962412  0  0  0.060205  0  1.031283  0  0  0.060483  0  1.032346  0  0  0.080187  0.059993  0  1.030663  0
H  H22  1  0.76289225  0.73473344  0.16558900  1  0  0.067975  0  0.940087  0  0  0.085164  0  1.003624  0  0  0.086468  0  1.003351  0  0  0.095628  0.0841  0  1.004042  0
H  H23  1  0.23711031  0.26526201  0.83441249  1  0  0.067939  0  0.940073  0  0  0.085133  0  1.003619  0  0  0.086438  0  1.003344  0  0  0.095633  0.08407  0  1.004044  0
H  H24  1  0.98431235  0.82996296  0.17227790  1  0  0.070253  0  0.953491  0  0  0.090333  0  1.011743  0  0  0.091501  0  1.011523  0  0  0.088058  0.089408  0  1.012018  0
H  H25  1  0.01568847  0.17003848  0.82772554  1  0  0.070261  0  0.953443  0  0  0.090338  0  1.011709  0  0  0.091507  0  1.011484  0  0  0.088067  0.089416  0  1.011983  0
H  H26  1  0.95094461  0.10016622  0.29470408  1  0  0.052524  0  0.933545  0  0  0.07355  0  0.99188  0  0  0.074349  0  0.992235  0  0  0.082826  0.073057  0  0.991536  0
H  H27  1  0.04904654  0.89983254  0.70529324  1  0  0.052453  0  0.933483  0  0  0.073523  0  0.991797  0  0  0.074323  0  0.992152  0  0  0.082799  0.073036  0  0.99144  0
H  H28  1  0.72477613  0.99356703  0.26872742  1  0  0.05437  0  0.95273  0  0  0.075667  0  1.012646  0  0  0.075502  0  1.014779  0  0  0.08466  0.075816  0  1.011171  0
H  H29  1  0.27521676  0.00642573  0.73126715  1  0  0.054379  0  0.952811  0  0  0.075707  0  1.012686  0  0  0.075545  0  1.014813  0  0  0.084695  0.075856  0  1.011221  0
H  H30  1  0.92511660  0.04338421  0.08889402  1  0  0.060776  0  0.941209  0  0  0.08113  0  1.001561  0  0  0.081516  0  1.001751  0  0  0.08839  0.080889  0  1.001474  0
H  H31  1  0.07488215  0.95661112  0.91110398  1  0  0.060722  0  0.941224  0  0  0.081065  0  1.001588  0  0  0.081449  0  1.001775  0  0  0.088364  0.080827  0  1.001497  0
H  H32  1  0.70604556  0.91626348  0.05528013  1  0  0.057204  0  0.950642  0  0  0.078228  0  1.010201  0  0  0.078518  0  1.011373  0  0  0.08808  0.078009  0  1.009579  0
H  H33  1  0.29394982  0.08373296  0.94471704  1  0  0.057259  0  0.950544  0  0  0.078274  0  1.010112  0  0  0.078561  0  1.011281  0  0  0.088096  0.078052  0  1.009493  0
H  H34  1  0.61592210  0.14902305  0.16143582  1  0  0.053594  0  0.963445  0  0  0.068985  0  1.032055  0  0  0.069305  0  1.033628  0  0  0.083338  0.06867  0  1.031052  0
H  H35  1  0.38407787  0.85097592  0.83856388  1  0  0.053642  0  0.963415  0  0  0.068999  0  1.032069  0  0  0.069321  0  1.033642  0  0  0.083358  0.068686  0  1.031065  0
H  H36  1  0.83668911  0.27813412  0.20507811  1  0  0.068036  0  0.947807  0  0  0.088161  0  1.006283  0  0  0.088706  0  1.00722  0  0  0.090969  0.087786  0  1.005695  0
H  H37  1  0.16331131  0.72186244  0.79492030  1  0  0.067971  0  0.947826  0  0  0.088108  0  1.006289  0  0  0.088652  0  1.007228  0  0  0.090962  0.087731  0  1.005701  0
H  H38  1  0.84382428  0.25197708  0.00635665  1  0  0.132456  0  0.920745  0  0  0.150481  0  0.972796  0  0  0.152906  0  0.971442  0  0  0.117073  0.148847  0  0.973858  0
H  H39  1  0.15617442  0.74802185  0.99364214  1  0  0.132443  0  0.920733  0  0  0.150487  0  0.972784  0  0  0.152923  0  0.971414  0  0  0.117063  0.148845  0  0.973853  0
H  H40  1  0.63852143  0.09752540  0.95289935  1  0  0.108294  0  0.926064  0  0  0.125554  0  0.984506  0  0  0.126513  0  0.985844  0  0  0.107612  0.124953  0  0.983534  0
H  H41  1  0.36147647  0.90247111  0.04709884  1  0  0.108203  0  0.926102  0  0  0.125512  0  0.984508  0  0  0.12647  0  0.985848  0  0  0.10759  0.124912  0  0.983532  0
C  C42  1  0.31493726  0.15087769  0.25144875  1  0  0.137347  0  3.72282  0  0  0.110432  0  3.989238  0  0  0.119971  0  4.005481  0  0  0.057129  0.10394  0  3.978022  0
C  C43  1  0.68505941  0.84911883  0.74855247  1  0  0.137423  0  3.722725  0  0  0.110533  0  3.989123  0  0  0.12007  0  4.005365  0  0  0.057156  0.104042  0  3.977912  0
C  C44  1  0.53397863  0.37899733  0.38257699  1  0  0.137925  0  3.729825  0  0  0.112149  0  3.989998  0  0  0.121135  0  4.007517  0  0  0.055843  0.106179  0  3.978521  0
C  C45  1  0.46602133  0.62100164  0.61742192  1  0  0.137972  0  3.729802  0  0  0.112199  0  3.989973  0  0  0.121185  0  4.007491  0  0  0.055898  0.106236  0  3.97849  0
C  C46  1  0.59066981  0.28856569  0.43996289  1  0  -0.169693  0  3.683584  0  0  -0.185115  0  3.92114  0  0  -0.193723  0  3.941271  0  0  -0.078278  -0.180073  0  3.908609  0
C  C47  1  0.40933181  0.71143450  0.56003565  1  0  -0.169694  0  3.683565  0  0  -0.185114  0  3.921122  0  0  -0.193721  0  3.941253  0  0  -0.078295  -0.180075  0  3.908593  0
C  C48  1  0.36507701  0.05192035  0.30353600  1  0  -0.177758  0  3.676301  0  0  -0.195086  0  3.920555  0  0  -0.203575  0  3.940272  0  0  -0.078958  -0.188862  0  3.90709  0
C  C49  1  0.63492466  0.94807625  0.69646253  1  0  -0.177747  0  3.676217  0  0  -0.195063  0  3.920478  0  0  -0.203554  0  3.940198  0  0  -0.078929  -0.188837  0  3.907012  0
C  C50  1  0.50579563  0.12084781  0.40083789  1  0  0.172067  0  3.703288  0  0  0.187532  0  3.940942  0  0  0.193229  0  3.962803  0  0  0.023248  0.183855  0  3.925944  0
C  C51  1  0.49420767  0.87915000  0.59915870  1  0  0.172125  0  3.703351  0  0  0.187569  0  3.940961  0  0  0.193267  0  3.962821  0  0  0.023262  0.183889  0  3.925974  0
C  C52  1  0.56138720  0.01898847  0.46130701  1  0  -0.164781  0  3.667618  0  0  -0.209696  0  3.918611  0  0  -0.211496  0  3.929411  0  0  -0.154  -0.208339  0  3.911172  0
C  C53  1  0.43861899  0.98101423  0.53869248  1  0  -0.165114  0  3.667697  0  0  -0.209915  0  3.918671  0  0  -0.211717  0  3.929472  0  0  -0.154143  -0.208567  0  3.911249  0
C  C54  1  0.08058225  0.59973376  0.27764419  1  0  0.68645  0  3.80368  0  0  0.649755  0  4.115532  0  0  0.685317  0  4.108932  0  0  0.205835  0.625457  0  4.118832  0
C  C55  1  0.91942225  0.40027500  0.72236198  1  0  0.686195  0  3.803915  0  0  0.649526  0  4.115735  0  0  0.685093  0  4.109134  0  0  0.205779  0.625231  0  4.119032  0
C  C56  1  0.94064009  0.65556570  0.32824736  1  0  -0.262244  0  3.6672  0  0  -0.296191  0  3.912983  0  0  -0.301788  0  3.920043  0  0  -0.15573  -0.292415  0  3.908164  0
C  C57  1  0.05936354  0.34444422  0.67175742  1  0  -0.262211  0  3.666958  0  0  -0.296135  0  3.912803  0  0  -0.301729  0  3.91986  0  0  -0.155754  -0.292361  0  3.907983  0
C  C58  1  0.93488445  0.82311790  0.33367650  1  0  -0.074426  0  3.688097  0  0  -0.116522  0  3.949877  0  0  -0.116313  0  3.963871  0  0  -0.163952  -0.116558  0  3.940162  0
C  C59  1  0.06511583  0.17688952  0.66632587  1  0  -0.074384  0  3.687811  0  0  -0.116562  0  3.949699  0  0  -0.116355  0  3.963692  0  0  -0.163986  -0.1166  0  3.93999  0
C  C60  1  0.88083215  0.83842223  0.21888856  1  0  -0.117904  0  3.683173  0  0  -0.156419  0  3.94118  0  0  -0.157515  0  3.955229  0  0  -0.169502  -0.155454  0  3.931281  0
C  C61  1  0.11916617  0.16157551  0.78111150  1  0  -0.117812  0  3.683005  0  0  -0.156326  0  3.941088  0  0  -0.157421  0  3.955141  0  0  -0.169492  -0.155363  0  3.931196  0
C  C62  1  0.84064081  0.99580832  0.23225635  1  0  -0.100554  0  3.700304  0  0  -0.140769  0  3.963191  0  0  -0.142089  0  3.97917  0  0  -0.166956  -0.139798  0  3.951954  0
C  C63  1  0.15935955  0.00419185  0.76774208  1  0  -0.100562  0  3.700356  0  0  -0.140828  0  3.963273  0  0  -0.142151  0  3.97925  0  0  -0.166964  -0.139861  0  3.952041  0
C  C64  1  0.80492759  0.02558234  0.12127845  1  0  -0.106631  0  3.684277  0  0  -0.145242  0  3.944482  0  0  -0.146004  0  3.959265  0  0  -0.165627  -0.144507  0  3.934006  0
C  C65  1  0.19506863  0.97441290  0.87871775  1  0  -0.106661  0  3.68427  0  0  -0.145241  0  3.944457  0  0  -0.146003  0  3.959251  0  0  -0.165635  -0.144504  0  3.93398  0
C  C66  1  0.74128903  0.17144864  0.13530359  1  0  -0.081602  0  3.704402  0  0  -0.123008  0  3.964954  0  0  -0.123145  0  3.979413  0  0  -0.168516  -0.122795  0  3.955001  0
C  C67  1  0.25871011  0.82854788  0.86469314  1  0  -0.081479  0  3.704385  0  0  -0.122865  0  3.964944  0  0  -0.123008  0  3.979407  0  0  -0.168467  -0.122653  0  3.954989  0
C  C68  1  0.71657590  0.20858948  0.02694149  1  0  -0.28081  0  3.656399  0  0  -0.319093  0  3.894803  0  0  -0.326295  0  3.903103  0  0  -0.153359  -0.313933  0  3.888817  0
C  C69  1  0.28342154  0.79140943  0.97305719  1  0  -0.280789  0  3.656266  0  0  -0.319149  0  3.894771  0  0  -0.326367  0  3.90306  0  0  -0.153385  -0.313998  0  3.888813  0
C  C70  1  0.62195874  0.32993376  0.02729896  1  0  0.785638  0  3.726841  0  0  0.760845  0  4.013248  0  0  0.802375  0  3.997458  0  0  0.268549  0.731806  0  4.023383  0
C  C71  1  0.37803748  0.67006515  0.97270196  1  0  0.785793  0  3.726632  0  0  0.760949  0  4.013128  0  0  0.802507  0  3.997294  0  0  0.268615  0.731909  0  4.023264  0
N  N72  1  0.39742589  0.31262824  0.28978343  1  0  -0.396812  0  3.277125  0  0  -0.365617  0  3.572351  0  0  -0.388117  0  3.59525  0  0  -0.383465  -0.349576  0  3.556088  0
N  N73  1  0.60257032  0.68737067  0.71021749  1  0  -0.396897  0  3.277217  0  0  -0.365709  0  3.57244  0  0  -0.388206  0  3.595337  0  0  -0.383501  -0.349673  0  3.556171  0
O  O74  1  0.51186591  0.65067353  0.29058149  1  0  -0.707245  0  1.605376  0  0  -0.710827  0  1.90485  0  0  -0.734015  0  1.893331  0  0  -0.755376  -0.696399  0  1.913373  0
O  O75  1  0.48813121  0.34932060  0.70941924  1  0  -0.707254  0  1.605322  0  0  -0.710845  0  1.904786  0  0  -0.734029  0  1.893266  0  0  -0.755343  -0.696421  0  1.913306  0
O  O76  1  0.16372549  0.31592209  0.06932309  1  0  -0.699835  0  1.570557  0  0  -0.709713  0  1.867998  0  0  -0.73182  0  1.856091  0  0  -0.755591  -0.696502  0  1.876876  0
O  O77  1  0.83626821  0.68407677  0.93067760  1  0  -0.699867  0  1.570615  0  0  -0.709698  0  1.86802  0  0  -0.7318  0  1.856117  0  0  -0.755641  -0.69648  0  1.876871  0
O  O78  1  0.14510814  0.65231875  0.20513651  1  0  -0.626622  0  1.9609  0  0  -0.606315  0  2.211431  0  0  -0.638649  0  2.207234  0  0  -0.34939  -0.583174  0  2.213472  0
O  O79  1  0.85490846  0.34769632  0.79487445  1  0  -0.626549  0  1.961139  0  0  -0.606223  0  2.211633  0  0  -0.638572  0  2.207451  0  0  -0.349419  -0.583078  0  2.213647  0
O  O80  1  0.13621891  0.49497187  0.30528535  1  0  -0.650829  0  1.943909  0  0  -0.639591  0  2.197485  0  0  -0.67162  0  2.193171  0  0  -0.357961  -0.616293  0  2.198988  0
O  O81  1  0.86377807  0.50503309  0.69471776  1  0  -0.650732  0  1.943853  0  0  -0.639506  0  2.197422  0  0  -0.671532  0  2.193104  0  0  -0.357899  -0.616213  0  2.198918  0
O  O82  1  0.55173170  0.37996923  0.10857459  1  0  -0.670318  0  2.084108  0  0  -0.660179  0  2.366591  0  0  -0.697206  0  2.359652  0  0  -0.363966  -0.633101  0  2.370058  0
O  O83  1  0.44826661  0.62002850  0.89142468  1  0  -0.67036  0  2.083992  0  0  -0.660205  0  2.366521  0  0  -0.69724  0  2.359569  0  0  -0.363979  -0.633132  0  2.369988  0
O  O84  1  0.61244182  0.37703068  0.94332964  1  0  -0.677604  0  2.089194  0  0  -0.671867  0  2.37638  0  0  -0.709494  0  2.366296  0  0  -0.38868  -0.644444  0  2.381931  0
O  O85  1  0.38755557  0.62297183  0.05666905  1  0  -0.677661  0  2.089137  0  0  -0.671894  0  2.376345  0  0  -0.70954  0  2.366259  0  0  -0.388698  -0.644461  0  2.381893  0
