# generated using pymatgen
data_K2H29C20N2O
_symmetry_space_group_name_H-M   'P 1'
_cell_length_a   9.35746656
_cell_length_b   10.29542311
_cell_length_c   11.91078202
_cell_angle_alpha   74.58426857
_cell_angle_beta   69.77349137
_cell_angle_gamma   80.65097236
_symmetry_Int_Tables_number   1
_chemical_formula_structural   K2H29C20N2O
_chemical_formula_sum   'K4 H58 C40 N4 O2'
_cell_volume   1034.81388886
_cell_formula_units_Z   2
loop_
 _symmetry_equiv_pos_site_id
 _symmetry_equiv_pos_as_xyz
  1  'x, y, z'
loop_
 _atom_site_type_symbol
 _atom_site_label
 _atom_site_symmetry_multiplicity
 _atom_site_fract_x
 _atom_site_fract_y
 _atom_site_fract_z
 _atom_site_occupancy
 _atom_site_hle17_bader_spin_density
 _atom_site_hle17_ddec_charge
 _atom_site_hle17_ddec_spin_density
 _atom_site_hle17_ddec_sum_bond_order
 _atom_site_hle17_magmom
 _atom_site_hse06_10hf_bader_spin_density
 _atom_site_hse06_10hf_ddec_charge
 _atom_site_hse06_10hf_ddec_spin_density
 _atom_site_hse06_10hf_ddec_sum_bond_order
 _atom_site_hse06_10hf_magmom
 _atom_site_hse06_bader_spin_density
 _atom_site_hse06_ddec_charge
 _atom_site_hse06_ddec_spin_density
 _atom_site_hse06_ddec_sum_bond_order
 _atom_site_hse06_magmom
 _atom_site_pbe_bader_spin_density
 _atom_site_pbe_cm5_charge
 _atom_site_pbe_ddec_charge
 _atom_site_pbe_ddec_spin_density
 _atom_site_pbe_ddec_sum_bond_order
 _atom_site_pbe_magmom
K  K0  1  0.00964887  0.36783133  0.90419597  1  0  0.882882  0  0.538619  0  0  0.815665  0  0.736313  0  0  0.829197  0  0.721191  0  0  0.796176  0.805908  0  0.747382  0
K  K1  1  0.99035218  0.63216682  0.09580278  1  0  0.882867  0  0.538633  0  0  0.815669  0  0.736296  0  0  0.829207  0  0.721171  0  0  0.796176  0.805915  0  0.747365  0
K  K2  1  0.82371725  0.61177157  0.63768947  1  0  0.861179  0  0.512364  0  0  0.803525  0  0.694417  0  0  0.809984  0  0.687023  0  0  0.702917  0.799033  0  0.699528  0
K  K3  1  0.17629535  0.38822456  0.36230917  1  0  0.861179  0  0.512365  0  0  0.803513  0  0.694448  0  0  0.809968  0  0.687056  0  0  0.702911  0.799022  0  0.69956  0
H  H4  1  0.14241549  0.49726994  0.64538696  1  0  0.082281  0  0.992285  0  0  0.092507  0  1.059084  0  0  0.096233  0  1.057548  0  0  0.093625  0.089362  0  1.061225  0
H  H5  1  0.85758511  0.50273327  0.35460991  1  0  0.082321  0  0.992257  0  0  0.092548  0  1.059053  0  0  0.096272  0  1.057521  0  0  0.093641  0.089404  0  1.061195  0
H  H6  1  0.41357512  0.43851470  0.54915888  1  0  0.076605  0  0.974477  0  0  0.092977  0  1.030329  0  0  0.095063  0  1.028719  0  0  0.09525  0.092131  0  1.030107  0
H  H7  1  0.58642623  0.56149254  0.45084190  1  0  0.076609  0  0.974519  0  0  0.092983  0  1.030367  0  0  0.095069  0  1.028762  0  0  0.095229  0.092137  0  1.030145  0
H  H8  1  0.50430627  0.21457196  0.49250723  1  0  0.086459  0  0.984239  0  0  0.099286  0  1.043831  0  0  0.10213  0  1.043563  0  0  0.089587  0.095301  0  1.048718  0
H  H9  1  0.49570207  0.78543326  0.50749635  1  0  0.086435  0  0.984296  0  0  0.09926  0  1.043884  0  0  0.102103  0  1.043617  0  0  0.089592  0.095274  0  1.048771  0
H  H10  1  0.30985512  0.05089275  0.53679284  1  0  0.080478  0  0.945155  0  0  0.098859  0  0.994609  0  0  0.100933  0  0.993501  0  0  0.096244  0.096995  0  0.996349  0
H  H11  1  0.69015553  0.94911248  0.46320592  1  0  0.080507  0  0.945004  0  0  0.098868  0  0.994498  0  0  0.100946  0  0.993386  0  0  0.096242  0.097  0  0.996243  0
H  H12  1  0.03893824  0.10512386  0.63434120  1  0  0.089276  0  1.001865  0  0  0.098798  0  1.070996  0  0  0.101137  0  1.071087  0  0  0.092146  0.097482  0  1.070027  0
H  H13  1  0.96106737  0.89487430  0.36565380  1  0  0.089294  0  1.001785  0  0  0.098837  0  1.070894  0  0  0.101179  0  1.070987  0  0  0.092197  0.097521  0  1.069924  0
H  H14  1  0.84687090  0.14424797  0.76812328  1  0  0.006451  0  0.932531  0  0  0.025246  0  0.993858  0  0  0.024137  0  0.995044  0  0  0.089486  0.026178  0  0.992562  0
H  H15  1  0.15313698  0.85575019  0.23187364  1  0  0.006419  0  0.932574  0  0  0.025219  0  0.993932  0  0  0.024106  0  0.995117  0  0  0.089485  0.026154  0  0.992637  0
H  H16  1  0.70216841  0.27222023  0.92950559  1  0  0.070346  0  0.993126  0  0  0.08609  0  1.071188  0  0  0.088044  0  1.069583  0  0  0.079407  0.084375  0  1.072623  0
H  H17  1  0.29783596  0.72777894  0.07049120  1  0  0.070391  0  0.993108  0  0  0.086127  0  1.071187  0  0  0.088081  0  1.069582  0  0  0.079441  0.084412  0  1.07262  0
H  H18  1  0.57840506  0.20694241  0.87731306  1  0  0.095038  0  0.963732  0  0  0.120198  0  1.021976  0  0  0.12047  0  1.023508  0  0  0.08671  0.120342  0  1.0201  0
H  H19  1  0.42159914  0.79305878  0.12268247  1  0  0.095029  0  0.963817  0  0  0.120208  0  1.022026  0  0  0.120481  0  1.023558  0  0  0.086714  0.120353  0  1.02015  0
H  H20  1  0.61133295  0.38126190  0.82715001  1  0  0.084441  0  0.97822  0  0  0.108399  0  1.04118  0  0  0.109535  0  1.041362  0  0  0.086221  0.106939  0  1.042039  0
H  H21  1  0.38867238  0.61873929  0.17284690  1  0  0.084446  0  0.978282  0  0  0.1084  0  1.041246  0  0  0.109535  0  1.041428  0  0  0.086214  0.106941  0  1.042103  0
H  H22  1  0.84294222  0.23715694  0.55076554  1  0  0.085367  0  0.980299  0  0  0.100233  0  1.058138  0  0  0.101426  0  1.05834  0  0  0.083057  0.099453  0  1.057417  0
H  H23  1  0.15706083  0.76284425  0.44923198  1  0  0.085364  0  0.980236  0  0  0.10021  0  1.058102  0  0  0.101417  0  1.058295  0  0  0.083042  0.099426  0  1.057383  0
H  H24  1  0.69230671  0.35780148  0.60296208  1  0  0.085151  0  0.970023  0  0  0.105341  0  1.03823  0  0  0.106355  0  1.038823  0  0  0.082734  0.10489  0  1.036923  0
H  H25  1  0.30769740  0.64220072  0.39703408  1  0  0.085162  0  0.969973  0  0  0.10536  0  1.038169  0  0  0.106374  0  1.038765  0  0  0.082752  0.104908  0  1.036861  0
H  H26  1  0.66268985  0.18264568  0.65322975  1  0  0.093853  0  0.958957  0  0  0.11905  0  1.016144  0  0  0.119144  0  1.017998  0  0  0.082288  0.115861  0  1.020448  0
H  H27  1  0.33731548  0.81735551  0.34676715  1  0  0.093834  0  0.95897  0  0  0.119041  0  1.016146  0  0  0.119137  0  1.017999  0  0  0.082287  0.115851  0  1.020454  0
H  H28  1  0.81097097  0.58676046  0.96743902  1  0  0.062663  0  1.029681  0  0  0.070671  0  1.104086  0  0  0.074878  0  1.101497  0  0  0.085746  0.067495  0  1.106385  0
H  H29  1  0.18902475  0.41323366  0.03255957  1  0  0.06271  0  1.029643  0  0  0.070719  0  1.104028  0  0  0.074922  0  1.101441  0  0  0.085777  0.067543  0  1.106325  0
H  H30  1  0.58330033  0.71363552  0.92621229  1  0  0.082047  0  0.962504  0  0  0.098797  0  1.01681  0  0  0.100972  0  1.015487  0  0  0.097762  0.097894  0  1.016332  0
H  H31  1  0.41669712  0.28636466  0.07378696  1  0  0.082082  0  0.962482  0  0  0.098793  0  1.016832  0  0  0.100985  0  1.015492  0  0  0.097765  0.097893  0  1.016352  0
H  H32  1  0.60509704  0.91262912  0.74650648  1  0  0.083808  0  0.991327  0  0  0.095324  0  1.054103  0  0  0.098301  0  1.053732  0  0  0.088864  0.091587  0  1.057921  0
H  H33  1  0.39490019  0.08737307  0.25349825  1  0  0.083803  0  0.991345  0  0  0.095316  0  1.054126  0  0  0.098294  0  1.053757  0  0  0.088841  0.09158  0  1.057945  0
H  H34  1  0.86544212  0.97388350  0.60676530  1  0  0.082909  0  0.952407  0  0  0.100305  0  1.005923  0  0  0.102326  0  1.004771  0  0  0.098129  0.098811  0  1.006585  0
H  H35  1  0.13455284  0.02611869  0.39323920  1  0  0.082879  0  0.952485  0  0  0.100277  0  1.005995  0  0  0.102298  0  1.004843  0  0  0.098119  0.098785  0  1.006656  0
H  H36  1  0.09527086  0.84991045  0.64480153  1  0  0.090315  0  0.987638  0  0  0.102843  0  1.048819  0  0  0.105657  0  1.048026  0  0  0.094161  0.101433  0  1.048785  0
H  H37  1  0.90472334  0.15008771  0.35520073  1  0  0.090315  0  0.987552  0  0  0.102826  0  1.048761  0  0  0.10564  0  1.047967  0  0  0.094142  0.101415  0  1.048726  0
H  H38  1  0.25745514  0.68764132  0.66427423  1  0  0.001281  0  0.913417  0  0  0.022658  0  0.970232  0  0  0.021375  0  0.971107  0  0  0.088931  0.023727  0  0.969272  0
H  H39  1  0.74254221  0.31235987  0.33572649  1  0  0.001295  0  0.913401  0  0  0.022688  0  0.970198  0  0  0.021409  0  0.971072  0  0  0.088939  0.023753  0  0.969235  0
H  H40  1  0.34194390  0.45948346  0.77367815  1  0  0.090411  0  0.971553  0  0  0.110447  0  1.038492  0  0  0.111462  0  1.039367  0  0  0.087502  0.10945  0  1.038237  0
H  H41  1  0.65805353  0.54051672  0.22632279  1  0  0.090416  0  0.971574  0  0  0.110461  0  1.038487  0  0  0.111474  0  1.03936  0  0  0.087509  0.109466  0  1.038232  0
H  H42  1  0.37155672  0.53716588  0.88024699  1  0  0.089899  0  0.954868  0  0  0.114597  0  1.013246  0  0  0.115804  0  1.012966  0  0  0.089904  0.113629  0  1.013371  0
H  H43  1  0.62843950  0.46283530  0.11975236  1  0  0.089915  0  0.954823  0  0  0.114587  0  1.013234  0  0  0.115793  0  1.012954  0  0  0.089897  0.11362  0  1.013359  0
H  H44  1  0.48215467  0.57792868  0.72186993  1  0  0.071486  0  0.986027  0  0  0.089786  0  1.060336  0  0  0.090564  0  1.061159  0  0  0.080756  0.090238  0  1.057724  0
H  H45  1  0.51784031  0.42207351  0.27813204  1  0  0.071457  0  0.986049  0  0  0.089746  0  1.060376  0  0  0.090523  0  1.061194  0  0  0.080763  0.090192  0  1.057779  0
H  H46  1  0.20645835  0.88402608  0.77282367  1  0  0.108098  0  0.964155  0  0  0.128284  0  1.027336  0  0  0.129376  0  1.028427  0  0  0.088627  0.127379  0  1.026367  0
H  H47  1  0.79353672  0.11597510  0.22717767  1  0  0.108107  0  0.96416  0  0  0.12822  0  1.027431  0  0  0.129315  0  1.028509  0  0  0.088609  0.127317  0  1.026459  0
H  H48  1  0.40311200  0.83062968  0.71357670  1  0  0.08864  0  0.970918  0  0  0.110297  0  1.03717  0  0  0.110581  0  1.038611  0  0  0.083026  0.108611  0  1.038281  0
H  H49  1  0.59688324  0.16936949  0.28642506  1  0  0.088594  0  0.970961  0  0  0.110258  0  1.037206  0  0  0.110544  0  1.038647  0  0  0.083015  0.108573  0  1.038317  0
H  H50  1  0.30415731  0.77922977  0.87287194  1  0  0.076241  0  0.983832  0  0  0.096981  0  1.054168  0  0  0.098481  0  1.053568  0  0  0.080432  0.095775  0  1.054414  0
H  H51  1  0.69583785  0.22077040  0.12712961  1  0  0.076237  0  0.983872  0  0  0.096984  0  1.054191  0  0  0.09849  0  1.053587  0  0  0.080436  0.095778  0  1.054438  0
H  H52  1  0.06006043  0.03324162  0.09418743  1  0  0.060247  0  0.926653  0  0  0.070987  0  0.994594  0  0  0.071595  0  0.994497  0  0  0.102079  0.070759  0  0.994173  0
H  H53  1  0.93993691  0.96675956  0.90581414  1  0  0.060273  0  0.926636  0  0  0.071  0  0.994581  0  0  0.071604  0  0.994483  0  0  0.102101  0.070773  0  0.994156  0
H  H54  1  0.14868784  0.91192142  0.00311318  1  0  0.039653  0  0.952496  0  0  0.054925  0  1.019139  0  0  0.054901  0  1.01928  0  0  0.100859  0.054792  0  1.019465  0
H  H55  1  0.85130772  0.08807369  0.99689698  1  0  0.039572  0  0.952574  0  0  0.054836  0  1.019216  0  0  0.054807  0  1.019358  0  0  0.100814  0.054705  0  1.019543  0
H  H56  1  0.36545299  0.01068593  0.86146778  1  0  0.072978  0  0.955377  0  0  0.091365  0  1.02127  0  0  0.091714  0  1.021256  0  0  0.093058  0.091374  0  1.020999  0
H  H57  1  0.63454262  0.98930920  0.13853396  1  0  0.072999  0  0.955396  0  0  0.091421  0  1.021259  0  0  0.09177  0  1.021245  0  0  0.093085  0.091428  0  1.020991  0
H  H58  1  0.33164175  0.12143921  0.96363020  1  0  0.072786  0  0.966035  0  0  0.087502  0  1.036162  0  0  0.087934  0  1.036583  0  0  0.090066  0.087092  0  1.03582  0
H  H59  1  0.66835124  0.87855996  0.03636963  1  0  0.072751  0  0.966055  0  0  0.087509  0  1.03615  0  0  0.087941  0  1.036574  0  0  0.09006  0.087098  0  1.03581  0
H  H60  1  0.35218122  0.18961857  0.80332674  1  0  0.089955  0  0.948217  0  0  0.10771  0  1.011822  0  0  0.107359  0  1.013489  0  0  0.102899  0.107801  0  1.011234  0
H  H61  1  0.64780985  0.81037655  0.19667285  1  0  0.089995  0  0.948129  0  0  0.107757  0  1.011762  0  0  0.107399  0  1.013435  0  0  0.102899  0.107858  0  1.011165  0
C  C62  1  0.17749102  0.39868345  0.62176511  1  0  -0.288563  0  3.844469  0  0  -0.294528  0  4.089174  0  0  -0.302943  0  4.108102  0  0  -0.170268  -0.288994  0  4.077944  0
C  C63  1  0.82250633  0.60131774  0.37823477  1  0  -0.288596  0  3.844391  0  0  -0.294586  0  4.089074  0  0  -0.302999  0  4.108001  0  0  -0.170256  -0.289054  0  4.077846  0
C  C64  1  0.33165644  0.36530616  0.56689651  1  0  -0.085937  0  3.925132  0  0  -0.098699  0  4.171382  0  0  -0.094235  0  4.190786  0  0  -0.127464  -0.101974  0  4.157752  0
C  C65  1  0.66834745  0.63469805  0.43310598  1  0  -0.085885  0  3.925251  0  0  -0.098662  0  4.171506  0  0  -0.094198  0  4.190909  0  0  -0.127439  -0.101936  0  4.157876  0
C  C66  1  0.38325842  0.24010081  0.53484730  1  0  -0.204407  0  3.893798  0  0  -0.216484  0  4.148875  0  0  -0.224659  0  4.172798  0  0  -0.157764  -0.211881  0  4.137173  0
C  C67  1  0.61674651  0.75990442  0.46515467  1  0  -0.204519  0  3.893708  0  0  -0.216587  0  4.148773  0  0  -0.224763  0  4.172693  0  0  -0.157842  -0.211981  0  4.137067  0
C  C68  1  0.27334598  0.14907877  0.56086858  1  0  -0.069078  0  3.892829  0  0  -0.081586  0  4.141426  0  0  -0.077694  0  4.161851  0  0  -0.120656  -0.083924  0  4.127356  0
C  C69  1  0.72666013  0.85092646  0.43912804  1  0  -0.068936  0  3.892429  0  0  -0.081432  0  4.141025  0  0  -0.077541  0  4.161454  0  0  -0.120584  -0.083767  0  4.126948  0
C  C70  1  0.11843561  0.18036294  0.61565688  1  0  -0.243068  0  3.76304  0  0  -0.256311  0  4.014305  0  0  -0.264537  0  4.034557  0  0  -0.147391  -0.249279  0  3.998259  0
C  C71  1  0.88156998  0.81963521  0.38434149  1  0  -0.243201  0  3.763183  0  0  -0.256449  0  4.014359  0  0  -0.264691  0  4.034641  0  0  -0.14746  -0.249414  0  3.998312  0
C  C72  1  0.06168414  0.30712794  0.65138301  1  0  0.226711  0  4.014939  0  0  0.227247  0  4.252343  0  0  0.242071  0  4.270792  0  0  0.031534  0.215887  0  4.239418  0
C  C73  1  0.93832110  0.69287426  0.34861369  1  0  0.226717  0  4.015073  0  0  0.227323  0  4.252388  0  0  0.242146  0  4.270839  0  0  0.031546  0.21596  0  4.239473  0
C  C74  1  0.80126258  0.24980437  0.74011458  1  0  0.258321  0  3.719917  0  0  0.258491  0  3.950665  0  0  0.264108  0  3.968318  0  0  -0.016651  0.253985  0  3.938562  0
C  C75  1  0.19874055  0.75019581  0.25988398  1  0  0.258335  0  3.719756  0  0  0.258403  0  3.950707  0  0  0.264028  0  3.968352  0  0  -0.016665  0.253896  0  3.938609  0
C  C76  1  0.66574105  0.27898039  0.84949217  1  0  -0.333069  0  3.709319  0  0  -0.412758  0  3.949007  0  0  -0.415053  0  3.958229  0  0  -0.244274  -0.410636  0  3.942627  0
C  C77  1  0.33426325  0.72101979  0.15050273  1  0  -0.333147  0  3.709359  0  0  -0.412839  0  3.949095  0  0  -0.415133  0  3.958315  0  0  -0.244323  -0.410713  0  3.942709  0
C  C78  1  0.74655116  0.25673273  0.63066016  1  0  -0.338905  0  3.678901  0  0  -0.41598  0  3.91611  0  0  -0.419217  0  3.927339  0  0  -0.247125  -0.413232  0  3.910385  0
C  C79  1  0.25345417  0.74326846  0.36933674  1  0  -0.338847  0  3.678778  0  0  -0.415884  0  3.915968  0  0  -0.419135  0  3.927186  0  0  -0.247106  -0.413127  0  3.910251  0
C  C80  1  0.82520813  0.67191518  0.88773815  1  0  -0.285055  0  3.845665  0  0  -0.290721  0  4.08581  0  0  -0.299847  0  4.105802  0  0  -0.16461  -0.284311  0  4.073492  0
C  C81  1  0.17478959  0.32808196  0.11226173  1  0  -0.284988  0  3.845712  0  0  -0.29063  0  4.085834  0  0  -0.299753  0  4.105831  0  0  -0.16461  -0.284218  0  4.073517  0
C  C82  1  0.69552281  0.74440760  0.86469989  1  0  -0.08376  0  3.922402  0  0  -0.091991  0  4.160433  0  0  -0.087386  0  4.179879  0  0  -0.128183  -0.094591  0  4.144673  0
C  C83  1  0.30447360  0.25559156  0.13529819  1  0  -0.083885  0  3.92253  0  0  -0.092098  0  4.160575  0  0  -0.087506  0  4.180011  0  0  -0.128219  -0.094695  0  4.144807  0
C  C84  1  0.70665376  0.85524913  0.76404807  1  0  -0.207564  0  3.900693  0  0  -0.220944  0  4.157979  0  0  -0.229255  0  4.181326  0  0  -0.164833  -0.21508  0  4.141493  0
C  C85  1  0.29334491  0.14475003  0.23595193  1  0  -0.207554  0  3.900721  0  0  -0.220929  0  4.157988  0  0  -0.229245  0  4.181347  0  0  -0.164813  -0.215066  0  4.141507  0
C  C86  1  0.85330321  0.88931614  0.68663523  1  0  -0.076297  0  3.9111  0  0  -0.091545  0  4.164812  0  0  -0.087067  0  4.184604  0  0  -0.125732  -0.092946  0  4.148975  0
C  C87  1  0.14669780  0.11068201  0.31336856  1  0  -0.076295  0  3.911192  0  0  -0.091544  0  4.164892  0  0  -0.087065  0  4.184682  0  0  -0.125772  -0.092946  0  4.149057  0
C  C88  1  0.98471474  0.81790998  0.70792578  1  0  -0.256313  0  3.778865  0  0  -0.267319  0  4.029595  0  0  -0.275987  0  4.049445  0  0  -0.14311  -0.261887  0  4.015507  0
C  C89  1  0.01528408  0.18208716  0.29207883  1  0  -0.256285  0  3.778726  0  0  -0.267265  0  4.029446  0  0  -0.275935  0  4.049296  0  0  -0.143107  -0.261832  0  4.015357  0
C  C90  1  0.97803059  0.70594081  0.81228381  1  0  0.234897  0  3.998288  0  0  0.235724  0  4.236161  0  0  0.250299  0  4.255883  0  0  0.048594  0.224983  0  4.223084  0
C  C91  1  0.02196503  0.29405431  0.18771709  1  0  0.234947  0  3.998299  0  0  0.235755  0  4.236202  0  0  0.250333  0  4.255918  0  0  0.048707  0.225013  0  4.223128  0
C  C92  1  0.24954980  0.67011844  0.76257096  1  0  0.261124  0  3.719542  0  0  0.261095  0  3.953562  0  0  0.266743  0  3.971484  0  0  -0.011183  0.256888  0  3.9411  0
C  C93  1  0.75044632  0.32988376  0.23742902  1  0  0.261081  0  3.71978  0  0  0.261057  0  3.95378  0  0  0.266693  0  3.971728  0  0  -0.011177  0.25688  0  3.941256  0
C  C94  1  0.36779766  0.55408597  0.78603028  1  0  -0.332592  0  3.704446  0  0  -0.411806  0  3.944416  0  0  -0.414326  0  3.954342  0  0  -0.241953  -0.408995  0  3.935857  0
C  C95  1  0.63219960  0.44591623  0.21397024  1  0  -0.33254  0  3.704581  0  0  -0.411729  0  3.944541  0  0  -0.414241  0  3.954468  0  0  -0.241942  -0.408927  0  3.935972  0
C  C96  1  0.29276624  0.79915607  0.78068896  1  0  -0.34599  0  3.673739  0  0  -0.424665  0  3.909741  0  0  -0.428292  0  3.921023  0  0  -0.248464  -0.420744  0  3.901943  0
C  C97  1  0.70722892  0.20084410  0.21931259  1  0  -0.345901  0  3.673824  0  0  -0.424517  0  3.909813  0  0  -0.428144  0  3.921093  0  0  -0.248427  -0.420607  0  3.902013  0
C  C98  1  0.07626038  0.00770093  0.00589685  1  0  0.058934  0  3.648911  0  0  0.0039  0  3.915317  0  0  0.010341  0  3.920769  0  0  -0.071365  -0.000573  0  3.911927  0
C  C99  1  0.92373618  0.99229621  0.99410670  1  0  0.058982  0  3.648856  0  0  0.003973  0  3.915209  0  0  0.010432  0  3.920647  0  0  -0.071359  -0.000502  0  3.911823  0
C  C100  1  0.30820985  0.10750227  0.88314689  1  0  -0.085449  0  3.672335  0  0  -0.173607  0  3.929914  0  0  -0.168073  0  3.935871  0  0  -0.149041  -0.177193  0  3.925827  0
C  C101  1  0.69178559  0.89249488  0.11685360  1  0  -0.085435  0  3.672338  0  0  -0.173705  0  3.929955  0  0  -0.168165  0  3.935916  0  0  -0.149053  -0.177297  0  3.925865  0
N  N102  1  0.91565502  0.34514239  0.71006622  1  0  -0.728833  0  3.074241  0  0  -0.670809  0  3.346834  0  0  -0.694679  0  3.361283  0  0  -0.61764  -0.651571  0  3.335765  0
N  N103  1  0.08434823  0.65485678  0.28993003  1  0  -0.728826  0  3.074217  0  0  -0.670806  0  3.346819  0  0  -0.694674  0  3.361268  0  0  -0.617645  -0.65157  0  3.335755  0
N  N104  1  0.09780212  0.63263347  0.84279264  1  0  -0.712104  0  3.056825  0  0  -0.657253  0  3.332413  0  0  -0.681635  0  3.347662  0  0  -0.590982  -0.638561  0  3.32102  0
N  N105  1  0.90219323  0.36736468  0.15720679  1  0  -0.712242  0  3.05701  0  0  -0.6574  0  3.332628  0  0  -0.681784  0  3.347885  0  0  -0.591041  -0.638716  0  3.321227  0
O  O106  1  0.14778637  0.11155874  0.90483339  1  0  -0.306248  0  2.310557  0  0  -0.229128  0  2.562608  0  0  -0.245773  0  2.567328  0  0  -0.30012  -0.217505  0  2.559396  0
O  O107  1  0.85220923  0.88843638  0.09516919  1  0  -0.306218  0  2.31053  0  0  -0.229069  0  2.562564  0  0  -0.245717  0  2.567278  0  0  -0.300076  -0.217443  0  2.55936  0
