# generated using pymatgen
data_ZnH12C18N2(O3F2)2
_symmetry_space_group_name_H-M   'P 1'
_cell_length_a   8.07760135
_cell_length_b   8.07773414
_cell_length_c   13.95921297
_cell_angle_alpha   78.33345093
_cell_angle_beta   78.33284924
_cell_angle_gamma   89.63896694
_symmetry_Int_Tables_number   1
_chemical_formula_structural   ZnH12C18N2(O3F2)2
_chemical_formula_sum   'Zn2 H24 C36 N4 O12 F8'
_cell_volume   873.00597126
_cell_formula_units_Z   2
loop_
 _symmetry_equiv_pos_site_id
 _symmetry_equiv_pos_as_xyz
  1  'x, y, z'
loop_
 _atom_site_type_symbol
 _atom_site_label
 _atom_site_symmetry_multiplicity
 _atom_site_fract_x
 _atom_site_fract_y
 _atom_site_fract_z
 _atom_site_occupancy
 _atom_site_hle17_bader_spin_density
 _atom_site_hle17_ddec_charge
 _atom_site_hle17_ddec_spin_density
 _atom_site_hle17_ddec_sum_bond_order
 _atom_site_hle17_magmom
 _atom_site_hse06_10hf_bader_charge
 _atom_site_hse06_10hf_bader_spin_density
 _atom_site_hse06_10hf_ddec_charge
 _atom_site_hse06_10hf_ddec_spin_density
 _atom_site_hse06_10hf_ddec_sum_bond_order
 _atom_site_hse06_10hf_magmom
 _atom_site_hse06_bader_spin_density
 _atom_site_hse06_ddec_charge
 _atom_site_hse06_ddec_spin_density
 _atom_site_hse06_ddec_sum_bond_order
 _atom_site_hse06_magmom
 _atom_site_pbe_bader_spin_density
 _atom_site_pbe_cm5_charge
 _atom_site_pbe_ddec_charge
 _atom_site_pbe_ddec_spin_density
 _atom_site_pbe_ddec_sum_bond_order
 _atom_site_pbe_magmom
Zn  Zn0  1  0.93994299  0.06005023  0.75000069  1  0  1.082299  0  1.753759  0  1.378535  0  0.907106  0  2.192425  0  0  0.952637  0  2.140411  0  0  0.682822  0.87533  0  2.227937  0
Zn  Zn1  1  0.06005394  0.93995000  0.24999916  1  0  1.082333  0  1.75383  0  1.378535  0  0.907144  0  2.192521  0  0  0.952674  0  2.140506  0  0  0.682856  0.875381  0  2.227998  0
H  H2  1  0.32004570  0.04679955  0.74002794  1  0  0.074782  0  0.962715  0  0.123502  0  0.081885  0  1.031751  0  0  0.083798  0  1.030577  0  0  0.11247  0.080444  0  1.032686  0
H  H3  1  0.95320974  0.67996944  0.75997686  1  0  0.074823  0  0.962837  0  0.123641  0  0.08193  0  1.031825  0  0  0.083842  0  1.030651  0  0  0.112514  0.080472  0  1.032815  0
H  H4  1  0.67996700  0.95321585  0.25996866  1  0  0.074851  0  0.962812  0  0.123515  0  0.08197  0  1.0318  0  0  0.083883  0  1.030624  0  0  0.11254  0.080504  0  1.032802  0
H  H5  1  0.04680564  0.32004490  0.24002526  1  0  0.074826  0  0.962784  0  0.123481  0  0.081925  0  1.031798  0  0  0.083839  0  1.030623  0  0  0.112465  0.080467  0  1.032783  0
H  H6  1  0.54641254  0.83677456  0.74168177  1  0  0.122354  0  0.957305  0  0.140682  0  0.130907  0  1.019555  0  0  0.134571  0  1.017922  0  0  0.109069  0.128258  0  1.020869  0
H  H7  1  0.16322299  0.45359293  0.75832612  1  0  0.122308  0  0.957055  0  0.140749  0  0.130887  0  1.019324  0  0  0.134547  0  1.0177  0  0  0.109046  0.128215  0  1.020702  0
H  H8  1  0.45359095  0.16323320  0.25831485  1  0  0.122354  0  0.957094  0  0.140776  0  0.130914  0  1.019356  0  0  0.134574  0  1.017735  0  0  0.109068  0.128245  0  1.020735  0
H  H9  1  0.83677413  0.54640384  0.24168347  1  0  0.122405  0  0.957286  0  0.140754  0  0.130946  0  1.019559  0  0  0.134605  0  1.01794  0  0  0.109115  0.128275  0  1.020939  0
H  H10  1  0.71342173  0.66354964  0.66079672  1  0  0.114223  0  0.968083  0  0.125585  0  0.121894  0  1.031628  0  0  0.125736  0  1.029594  0  0  0.107714  0.119127  0  1.03318  0
H  H11  1  0.33645004  0.28659391  0.83920250  1  0  0.114244  0  0.968094  0  0.125333  0  0.121916  0  1.031644  0  0  0.125758  0  1.029607  0  0  0.107722  0.119155  0  1.033188  0
H  H12  1  0.28658831  0.33645713  0.33920706  1  0  0.114154  0  0.968076  0  0.125393  0  0.121823  0  1.031636  0  0  0.125663  0  1.029606  0  0  0.107709  0.119053  0  1.033183  0
H  H13  1  0.66355716  0.71340645  0.16080031  1  0  0.114219  0  0.968159  0  0.125256  0  0.121891  0  1.031703  0  0  0.125736  0  1.029663  0  0  0.107668  0.119123  0  1.033268  0
H  H14  1  0.92245483  0.43846738  0.66551075  1  0  0.085562  0  0.955843  0  0.133058  0  0.089945  0  1.025187  0  0  0.09286  0  1.022659  0  0  0.114594  0.087601  0  1.027487  0
H  H15  1  0.56152325  0.07754689  0.83448416  1  0  0.085513  0  0.955656  0  0.133172  0  0.08995  0  1.024967  0  0  0.092848  0  1.02246  0  0  0.11459  0.087761  0  1.026978  0
H  H16  1  0.07755232  0.56153537  0.33448747  1  0  0.085601  0  0.955805  0  0.133158  0  0.089988  0  1.02514  0  0  0.092904  0  1.022607  0  0  0.114599  0.087638  0  1.027443  0
H  H17  1  0.43848353  0.92244819  0.16551294  1  0  0.085629  0  0.955692  0  0.13307  0  0.090016  0  1.025046  0  0  0.092931  0  1.022518  0  0  0.114615  0.087711  0  1.02722  0
H  H18  1  0.96986497  0.09229620  0.56390908  1  0  0.409905  0  0.90382  0  0.666535  0  0.376687  0  0.972435  0  0  0.388388  0  0.955247  0  0  0.285066  0.368323  0  0.984769  0
H  H19  1  0.90768529  0.03015120  0.93609158  1  0  0.409877  0  0.903865  0  0.666984  0  0.376649  0  0.972489  0  0  0.388351  0  0.955304  0  0  0.285062  0.368291  0  0.984818  0
H  H20  1  0.03015801  0.90769131  0.43608835  1  0  0.409872  0  0.903866  0  0.666549  0  0.376687  0  0.972412  0  0  0.388386  0  0.955228  0  0  0.285087  0.368331  0  0.984734  0
H  H21  1  0.09230326  0.96985803  0.06391178  1  0  0.409968  0  0.903741  0  0.666505  0  0.376717  0  0.972407  0  0  0.388416  0  0.955226  0  0  0.285115  0.368449  0  0.984527  0
H  H22  1  0.84862684  0.92932612  0.58667456  1  0  0.435582  0  0.853685  0  0.658478  0  0.40819  0  0.910093  0  0  0.41836  0  0.895085  0  0  0.29829  0.400957  0  0.920767  0
H  H23  1  0.07065167  0.15138533  0.91332171  1  0  0.435527  0  0.853784  0  0.658581  0  0.408171  0  0.9101  0  0  0.41834  0  0.895095  0  0  0.298312  0.400949  0  0.920752  0
H  H24  1  0.15138730  0.07065898  0.41332717  1  0  0.435641  0  0.853616  0  0.658455  0  0.408244  0  0.910037  0  0  0.418414  0  0.895029  0  0  0.298303  0.401006  0  0.920719  0
H  H25  1  0.92933661  0.84862119  0.08667701  1  0  0.435501  0  0.853845  0  0.658567  0  0.408151  0  0.910155  0  0  0.41832  0  0.89515  0  0  0.298301  0.40093  0  0.920807  0
C  C26  1  0.29115949  0.91381149  0.74414483  1  0  0.144983  0  3.695771  0  0.446825  0  0.11008  0  3.951919  0  0  0.118081  0  3.968317  0  0  0.046063  0.104812  0  3.940819  0
C  C27  1  0.08618269  0.70885167  0.75585980  1  0  0.145012  0  3.69625  0  0.446639  0  0.110193  0  3.952326  0  0  0.118196  0  3.968722  0  0  0.046102  0.104783  0  3.941622  0
C  C28  1  0.70885127  0.08618622  0.25585429  1  0  0.1451  0  3.695826  0  0.446813  0  0.110179  0  3.951908  0  0  0.118182  0  3.968302  0  0  0.046053  0.104772  0  3.941206  0
C  C29  1  0.91381866  0.29116257  0.24414055  1  0  0.145074  0  3.695939  0  0.446687  0  0.110165  0  3.952016  0  0  0.118168  0  3.96841  0  0  0.046173  0.104752  0  3.941296  0
C  C30  1  0.41726500  0.79626121  0.74329138  1  0  -0.149998  0  3.676784  0  -0.016154  0  -0.171657  0  3.930032  0  0  -0.178664  0  3.949333  0  0  -0.081997  -0.167186  0  3.917131  0
C  C31  1  0.20373874  0.58276148  0.75671439  1  0  -0.150125  0  3.676453  0  -0.016047  0  -0.171879  0  3.929794  0  0  -0.178888  0  3.949097  0  0  -0.082084  -0.167586  0  3.917314  0
C  C32  1  0.58275491  0.20374164  0.25670877  1  0  -0.150075  0  3.676142  0  -0.016085  0  -0.17181  0  3.929508  0  0  -0.178819  0  3.948812  0  0  -0.082047  -0.167526  0  3.917015  0
C  C33  1  0.79626684  0.41726050  0.24328873  1  0  -0.150071  0  3.676782  0  -0.016119  0  -0.171767  0  3.93009  0  0  -0.178774  0  3.949388  0  0  -0.082078  -0.16748  0  3.917594  0
C  C34  1  0.37444803  0.62557247  0.75000183  1  0  0.08592  0  3.758246  0  -0.037168  0  0.099106  0  3.989746  0  0  0.101817  0  4.013517  0  0  0.010547  0.097487  0  3.973528  0
C  C35  1  0.62557258  0.37444568  0.24999986  1  0  0.085945  0  3.758434  0  -0.037265  0  0.099174  0  3.989806  0  0  0.101886  0  4.013576  0  0  0.010547  0.097535  0  3.973628  0
C  C36  1  0.50403772  0.49595221  0.75000192  1  0  0.088905  0  3.770151  0  -0.095036  0  0.100264  0  4.000511  0  0  0.102403  0  4.025969  0  0  0.009513  0.099022  0  3.982997  0
C  C37  1  0.49596683  0.50404561  0.25000084  1  0  0.088766  0  3.770411  0  -0.094396  0  0.100156  0  4.000704  0  0  0.102297  0  4.026156  0  0  0.009444  0.09892  0  3.983166  0
C  C38  1  0.67317524  0.53650595  0.70245315  1  0  -0.162182  0  3.709429  0  0.019932  0  -0.179897  0  3.962737  0  0  -0.188004  0  3.985017  0  0  -0.083296  -0.174616  0  3.947765  0
C  C39  1  0.46348203  0.32683632  0.79754578  1  0  -0.162605  0  3.709944  0  0.019669  0  -0.180371  0  3.963341  0  0  -0.188476  0  3.985607  0  0  -0.083502  -0.175085  0  3.948384  0
C  C40  1  0.32683335  0.46349697  0.29754988  1  0  -0.162198  0  3.709658  0  0.01973  0  -0.179938  0  3.962968  0  0  -0.188046  0  3.985246  0  0  -0.083344  -0.17466  0  3.947985  0
C  C41  1  0.53652168  0.67317410  0.20245404  1  0  -0.162357  0  3.709831  0  0.01959  0  -0.180132  0  3.963163  0  0  -0.188237  0  3.985437  0  0  -0.083336  -0.174828  0  3.948129  0
C  C42  1  0.79115281  0.41057218  0.70366798  1  0  0.133841  0  3.68182  0  0.459894  0  0.1007  0  3.935533  0  0  0.107298  0  3.953118  0  0  0.046084  0.096265  0  3.923927  0
C  C43  1  0.58942458  0.20885680  0.79632317  1  0  0.134212  0  3.681518  0  0.459979  0  0.101029  0  3.935275  0  0  0.107642  0  3.952862  0  0  0.046234  0.096623  0  3.923579  0
C  C44  1  0.20885070  0.58943560  0.29632934  1  0  0.133804  0  3.681876  0  0.459859  0  0.100669  0  3.935602  0  0  0.107273  0  3.953178  0  0  0.046097  0.096241  0  3.924001  0
C  C45  1  0.41058260  0.79114964  0.20367170  1  0  0.133929  0  3.681804  0  0.459924  0  0.100788  0  3.935525  0  0  0.107385  0  3.953111  0  0  0.046127  0.096453  0  3.923685  0
C  C46  1  0.73238296  0.79757802  0.93007096  1  0  0.713482  0  3.86528  0  1.712161  0  0.653274  0  4.177662  0  0  0.689049  0  4.165687  0  0  0.225874  0.629011  0  4.185097  0
C  C47  1  0.20241544  0.26760367  0.56993514  1  0  0.713128  0  3.865579  0  1.712924  0  0.653011  0  4.177855  0  0  0.688764  0  4.165882  0  0  0.22563  0.628588  0  4.185708  0
C  C48  1  0.26758821  0.20240596  0.06993786  1  0  0.713502  0  3.865862  0  1.712788  0  0.65343  0  4.178143  0  0  0.689175  0  4.16616  0  0  0.225869  0.629042  0  4.185928  0
C  C49  1  0.79759753  0.73238884  0.43006077  1  0  0.713362  0  3.865577  0  1.712543  0  0.653405  0  4.177676  0  0  0.689155  0  4.165687  0  0  0.225822  0.628983  0  4.185522  0
C  C50  1  0.61346484  0.64256180  0.96577875  1  0  -0.221268  0  3.778703  0  0.039537  0  -0.228268  0  4.056439  0  0  -0.233652  0  4.070875  0  0  -0.030118  -0.224968  0  4.047126  0
C  C51  1  0.35743188  0.38652597  0.53422027  1  0  -0.221107  0  3.778868  0  0.038957  0  -0.228151  0  4.05665  0  0  -0.233476  0  4.071024  0  0  -0.030084  -0.225147  0  4.048171  0
C  C52  1  0.38651297  0.35743344  0.03422490  1  0  -0.221248  0  3.778575  0  0.038872  0  -0.228513  0  4.056663  0  0  -0.233789  0  4.070965  0  0  -0.03027  -0.225493  0  4.04823  0
C  C53  1  0.64257105  0.61347270  0.46577113  1  0  -0.221142  0  3.77842  0  0.039486  0  -0.228446  0  4.0564  0  0  -0.233727  0  4.070706  0  0  -0.030106  -0.22544  0  4.047923  0
C  C54  1  0.43887778  0.66065772  0.98315598  1  0  0.196491  0  3.794492  0  0.529949  0  0.158038  0  4.102624  0  0  0.167255  0  4.111619  0  0  0.088008  0.151472  0  4.097005  0
C  C55  1  0.33933864  0.56110870  0.51685293  1  0  0.196286  0  3.794618  0  0.529843  0  0.158014  0  4.102591  0  0  0.167211  0  4.111572  0  0  0.08793  0.150411  0  4.098008  0
C  C56  1  0.56109597  0.33933360  0.01684512  1  0  0.196331  0  3.794808  0  0.530244  0  0.157869  0  4.103082  0  0  0.167056  0  4.112046  0  0  0.087806  0.15025  0  4.098578  0
C  C57  1  0.66066662  0.43888491  0.48313882  1  0  0.196283  0  3.794488  0  0.530034  0  0.158095  0  4.102519  0  0  0.167284  0  4.111481  0  0  0.087944  0.150493  0  4.097932  0
C  C58  1  0.32680240  0.52077110  0.01668705  1  0  0.201809  0  3.787153  0  0.586555  0  0.164189  0  4.094448  0  0  0.173753  0  4.101983  0  0  0.08945  0.157359  0  4.089826  0
C  C59  1  0.47922509  0.67318582  0.48332089  1  0  0.202017  0  3.787133  0  0.586187  0  0.164327  0  4.094417  0  0  0.173895  0  4.10195  0  0  0.089503  0.157219  0  4.090658  0
C  C60  1  0.67316898  0.47922038  0.98331863  1  0  0.201946  0  3.787186  0  0.586007  0  0.16435  0  4.094303  0  0  0.173946  0  4.10187  0  0  0.089514  0.157244  0  4.090586  0
C  C61  1  0.52076898  0.32681287  0.51667164  1  0  0.201987  0  3.787415  0  0.586569  0  0.164153  0  4.094759  0  0  0.173729  0  4.102312  0  0  0.089447  0.157053  0  4.090987  0
N  N62  1  0.12778536  0.87221509  0.75000199  1  0  -0.33524  0  3.271575  0  -1.249505  0  -0.255842  0  3.534975  0  0  -0.274107  0  3.550264  0  0  -0.32111  -0.243583  0  3.524552  0
N  N63  1  0.87222181  0.12778646  0.24999852  1  0  -0.335606  0  3.271711  0  -1.249466  0  -0.256073  0  3.535026  0  0  -0.274337  0  3.55031  0  0  -0.321219  -0.243833  0  3.52467  0
N  N64  1  0.75123449  0.24876446  0.74999672  1  0  -0.299898  0  3.238424  0  -1.271117  0  -0.219415  0  3.497771  0  0  -0.236974  0  3.51398  0  0  -0.314329  -0.207561  0  3.486711  0
N  N65  1  0.24877012  0.75124071  0.24999864  1  0  -0.299776  0  3.238459  0  -1.271062  0  -0.219297  0  3.497761  0  0  -0.236856  0  3.513974  0  0  -0.314265  -0.207427  0  3.486617  0
O  O66  1  0.75425985  0.86295091  0.83748663  1  0  -0.632139  0  2.022659  0  -1.205674  0  -0.566696  0  2.278211  0  0  -0.594791  0  2.266403  0  0  -0.303464  -0.546968  0  2.285624  0
O  O67  1  0.13704967  0.24573024  0.66251891  1  0  -0.631912  0  2.022938  0  -1.206261  0  -0.566503  0  2.278421  0  0  -0.594587  0  2.266612  0  0  -0.303291  -0.546857  0  2.286091  0
O  O68  1  0.24571702  0.13705194  0.16251688  1  0  -0.632083  0  2.023165  0  -1.206069  0  -0.566703  0  2.278709  0  0  -0.594783  0  2.266895  0  0  -0.303402  -0.547048  0  2.286378  0
O  O69  1  0.86295355  0.75427359  0.33747465  1  0  -0.631981  0  2.022931  0  -1.20553  0  -0.56665  0  2.27839  0  0  -0.594752  0  2.266603  0  0  -0.303351  -0.546986  0  2.28604  0
O  O70  1  0.79561872  0.84952627  0.99464888  1  0  -0.611608  0  1.980452  0  -1.207865  0  -0.556035  0  2.1981  0  0  -0.581395  0  2.186228  0  0  -0.297868  -0.538434  0  2.206081  0
O  O71  1  0.15046940  0.20435936  0.50536231  1  0  -0.611573  0  1.980555  0  -1.20813  0  -0.555981  0  2.198139  0  0  -0.581342  0  2.186278  0  0  -0.297785  -0.538386  0  2.206226  0
O  O72  1  0.20437404  0.15045897  0.00535844  1  0  -0.611566  0  1.98092  0  -1.208242  0  -0.555953  0  2.198478  0  0  -0.581327  0  2.186642  0  0  -0.297736  -0.538149  0  2.206205  0
O  O73  1  0.84955270  0.79560172  0.49464219  1  0  -0.611681  0  1.980616  0  -1.208492  0  -0.556117  0  2.198111  0  0  -0.581489  0  2.186261  0  0  -0.297879  -0.538526  0  2.206182  0
O  O74  1  0.87406133  0.02697740  0.61384037  1  0  -0.839009  0  1.908936  0  -1.305917  0  -0.788615  0  2.112782  0  0  -0.808275  0  2.077208  0  0  -0.590402  -0.774828  0  2.137762  0
O  O75  1  0.97300500  0.12593836  0.88616091  1  0  -0.83891  0  1.909142  0  -1.306524  0  -0.788526  0  2.113064  0  0  -0.808185  0  2.077472  0  0  -0.590397  -0.77474  0  2.138029  0
O  O76  1  0.12593928  0.97301906  0.38616021  1  0  -0.839025  0  1.90899  0  -1.305919  0  -0.788642  0  2.112823  0  0  -0.808305  0  2.077256  0  0  -0.590448  -0.774859  0  2.137796  0
O  O77  1  0.02698106  0.87407335  0.11384101  1  0  -0.838972  0  1.909057  0  -1.306042  0  -0.788572  0  2.112971  0  0  -0.808239  0  2.077396  0  0  -0.59047  -0.774632  0  2.137675  0
F  F78  1  0.37697798  0.81844522  0.96844654  1  0  -0.168026  0  1.242474  0  -0.637971  0  -0.112348  0  1.407317  0  0  -0.121761  0  1.399633  0  0  -0.082333  -0.10559  0  1.412643  0
F  F79  1  0.18154967  0.62300847  0.53156727  1  0  -0.167927  0  1.242394  0  -0.637991  0  -0.112394  0  1.407275  0  0  -0.121808  0  1.399597  0  0  -0.082374  -0.102246  0  1.4091  0
F  F80  1  0.62298801  0.18154594  0.03155055  1  0  -0.167979  0  1.24267  0  -0.638152  0  -0.112267  0  1.407508  0  0  -0.121682  0  1.399835  0  0  -0.082205  -0.102076  0  1.409282  0
F  F81  1  0.81845090  0.37699281  0.46842625  1  0  -0.16784  0  1.242505  0  -0.638056  0  -0.112305  0  1.40736  0  0  -0.121721  0  1.399683  0  0  -0.082314  -0.102166  0  1.409193  0
F  F82  1  0.15811153  0.54400401  0.03240122  1  0  -0.159822  0  1.230498  0  -0.631397  0  -0.107853  0  1.390472  0  0  -0.115501  0  1.381137  0  0  -0.086933  -0.102354  0  1.396961  0
F  F83  1  0.45600312  0.84186374  0.46762024  1  0  -0.159869  0  1.230748  0  -0.631155  0  -0.107867  0  1.390726  0  0  -0.115515  0  1.381389  0  0  -0.086881  -0.102519  0  1.397513  0
F  F84  1  0.84185594  0.45598250  0.96760775  1  0  -0.159758  0  1.230483  0  -0.631046  0  -0.107842  0  1.390462  0  0  -0.115489  0  1.381118  0  0  -0.086888  -0.102492  0  1.397252  0
F  F85  1  0.54399602  0.15813372  0.53237324  1  0  -0.159892  0  1.230799  0  -0.631196  0  -0.107864  0  1.390827  0  0  -0.115511  0  1.381488  0  0  -0.086887  -0.102516  0  1.397607  0
