# generated using pymatgen
data_CdH24C20(N3O5)2
_symmetry_space_group_name_H-M   'P 1'
_cell_length_a   7.12448157
_cell_length_b   12.84048582
_cell_length_c   13.40640000
_cell_angle_alpha   73.42798824
_cell_angle_beta   82.24140456
_cell_angle_gamma   81.32408006
_symmetry_Int_Tables_number   1
_chemical_formula_structural   CdH24C20(N3O5)2
_chemical_formula_sum   'Cd2 H48 C40 N12 O20'
_cell_volume   1156.55901027
_cell_formula_units_Z   2
loop_
 _symmetry_equiv_pos_site_id
 _symmetry_equiv_pos_as_xyz
  1  'x, y, z'
loop_
 _atom_site_type_symbol
 _atom_site_label
 _atom_site_symmetry_multiplicity
 _atom_site_fract_x
 _atom_site_fract_y
 _atom_site_fract_z
 _atom_site_occupancy
 _atom_site_hle17_bader_spin_density
 _atom_site_hle17_ddec_charge
 _atom_site_hle17_ddec_spin_density
 _atom_site_hle17_ddec_sum_bond_order
 _atom_site_hle17_magmom
 _atom_site_hse06_10hf_bader_spin_density
 _atom_site_hse06_10hf_ddec_charge
 _atom_site_hse06_10hf_ddec_spin_density
 _atom_site_hse06_10hf_ddec_sum_bond_order
 _atom_site_hse06_10hf_magmom
 _atom_site_hse06_bader_spin_density
 _atom_site_hse06_ddec_charge
 _atom_site_hse06_ddec_spin_density
 _atom_site_hse06_ddec_sum_bond_order
 _atom_site_hse06_magmom
 _atom_site_pbe_bader_charge
 _atom_site_pbe_bader_spin_density
 _atom_site_pbe_cm5_charge
 _atom_site_pbe_ddec_charge
 _atom_site_pbe_ddec_spin_density
 _atom_site_pbe_ddec_sum_bond_order
 _atom_site_pbe_magmom
Cd  Cd0  1  0.99999802  0.00000164  0.99999955  1  0  1.172178  0  1.634678  0  0  0.992316  0  2.060832  0  0  1.046041  0  2.010012  0  1.279952  0  0.774323  0.953962  0  2.095613  0
Cd  Cd1  1  0.00000000  0.00000000  0.50000000  1  0  1.147293  0  1.609099  0  0  0.969951  0  2.020795  0  0  1.024125  0  1.971764  0  1.267712  0  0.770141  0.931325  0  2.054331  0
H  H2  1  0.23964766  0.18327908  0.02738404  1  0  0.073107  0  0.944904  0  0  0.086396  0  1.011255  0  0  0.086675  0  1.011024  0  0.09935  0  0.117649  0.086066  0  1.011575  0
H  H3  1  0.76035440  0.81671868  0.97261583  1  0  0.073082  0  0.94495  0  0  0.086373  0  1.011299  0  0  0.086656  0  1.01107  0  0.099243  0  0.117659  0.086042  0  1.011623  0
H  H4  1  0.02431490  0.21214238  0.10552131  1  0  0.076354  0  0.951021  0  0  0.080366  0  1.0298  0  0  0.082156  0  1.027397  0  0.117419  0  0.114518  0.07896  0  1.031663  0
H  H5  1  0.97568823  0.78785701  0.89447804  1  0  0.07637  0  0.95106  0  0  0.0804  0  1.029827  0  0  0.082229  0  1.027393  0  0.117366  0  0.114552  0.078999  0  1.031676  0
H  H6  1  0.03102510  0.20998621  0.28105335  1  0  0.074837  0  0.940561  0  0  0.081615  0  1.015079  0  0  0.082673  0  1.01384  0  0.093348  0  0.114726  0.080743  0  1.016103  0
H  H7  1  0.96897770  0.79001482  0.71894482  1  0  0.074888  0  0.940579  0  0  0.081672  0  1.015079  0  0  0.082729  0  1.013842  0  0.093321  0  0.11472  0.080799  0  1.016101  0
H  H8  1  0.25329061  0.18124646  0.33837001  1  0  0.070668  0  0.930989  0  0  0.082882  0  0.998698  0  0  0.08383  0  0.997194  0  0.069809  0  0.116166  0.082018  0  0.999992  0
H  H9  1  0.74671252  0.81875293  0.66162859  1  0  0.070671  0  0.930972  0  0  0.082894  0  0.998665  0  0  0.083844  0  0.997157  0  0.069882  0  0.116135  0.082007  0  0.999983  0
H  H10  1  0.41994001  0.99634330  0.37344231  1  0  0.063823  0  0.963245  0  0  0.07553  0  1.033568  0  0  0.076226  0  1.032626  0  0.086919  0  0.115421  0.074908  0  1.034401  0
H  H11  1  0.58006012  0.00365691  0.62655852  1  0  0.063827  0  0.963236  0  0  0.075541  0  1.033556  0  0  0.076237  0  1.032614  0  0.086921  0  0.115428  0.07492  0  1.034388  0
H  H12  1  0.32009840  0.89126837  0.34175899  1  0  0.074681  0  0.95675  0  0  0.078318  0  1.036675  0  0  0.079986  0  1.034465  0  0.070534  0  0.11386  0.077  0  1.038437  0
H  H13  1  0.67990189  0.10873102  0.65824205  1  0  0.074686  0  0.956749  0  0  0.078329  0  1.036687  0  0  0.079998  0  1.034474  0  0.070555  0  0.113876  0.077011  0  1.038449  0
H  H14  1  0.31493254  0.89416510  0.16468011  1  0  0.077554  0  0.935012  0  0  0.086294  0  1.006317  0  0  0.087168  0  1.005591  0  0.089948  0  0.117435  0.085558  0  1.006957  0
H  H15  1  0.68506934  0.10583348  0.83532104  1  0  0.077599  0  0.935037  0  0  0.086355  0  1.006322  0  0  0.087227  0  1.0056  0  0.089961  0  0.11747  0.085621  0  1.006959  0
H  H16  1  0.40499226  0.00299737  0.06178692  1  0  0.072711  0  0.938079  0  0  0.086177  0  1.005112  0  0  0.08688  0  1.004069  0  0.091328  0  0.118017  0.085503  0  1.006108  0
H  H17  1  0.59500979  0.99700039  0.93821369  1  0  0.072737  0  0.938028  0  0  0.086242  0  1.004998  0  0  0.08695  0  1.003954  0  0.091391  0  0.118034  0.085566  0  1.005997  0
H  H18  1  0.54402563  0.14489996  0.10460141  1  0  0.080231  0  0.931118  0  0  0.091138  0  0.999937  0  0  0.09223  0  0.99886  0  0.092184  0  0.116087  0.090234  0  1.000865  0
H  H19  1  0.45597942  0.85509698  0.89539846  1  0  0.080186  0  0.931129  0  0  0.091088  0  0.999952  0  0  0.092183  0  0.998872  0  0.092198  0  0.116068  0.090182  0  1.000871  0
H  H20  1  0.54078726  0.14180930  0.23891516  1  0  0.078625  0  0.932159  0  0  0.089499  0  1.000409  0  0  0.090441  0  0.999212  0  0.087885  0  0.116655  0.088753  0  1.001344  0
H  H21  1  0.45921479  0.85818845  0.76108471  1  0  0.078568  0  0.932241  0  0  0.089476  0  1.000454  0  0  0.090418  0  0.999257  0  0.087892  0  0.116665  0.088725  0  1.001392  0
H  H22  1  0.89714128  0.06726370  0.24231587  1  0  0.085206  0  0.904558  0  0  0.100403  0  0.964317  0  0  0.100905  0  0.96394  0  0.081941  0  0.124178  0.09991  0  0.964745  0
H  H23  1  0.10286168  0.93273651  0.75768252  1  0  0.085205  0  0.904535  0  0  0.100402  0  0.964293  0  0  0.100905  0  0.963916  0  0.081918  0  0.124176  0.099907  0  0.964723  0
H  H24  1  0.01885266  0.93126769  0.26884207  1  0  0.08845  0  0.899606  0  0  0.103751  0  0.956408  0  0  0.104589  0  0.955331  0  0.099986  0  0.125859  0.102992  0  0.957414  0
H  H25  1  0.98114763  0.06873170  0.73115897  1  0  0.088454  0  0.899601  0  0  0.103758  0  0.956386  0  0  0.104595  0  0.955312  0  0.099995  0  0.125868  0.102999  0  0.95739  0
H  H26  1  0.11531473  0.52233392  0.13936941  1  0  0.111744  0  0.971685  0  0  0.117124  0  1.038976  0  0  0.121028  0  1.036239  0  0.141523  0  0.105177  0.114313  0  1.041025  0
H  H27  1  0.88468330  0.47766957  0.86063216  1  0  0.111766  0  0.971725  0  0  0.117146  0  1.039003  0  0  0.121047  0  1.036272  0  0.141577  0  0.10517  0.114333  0  1.041053  0
H  H28  1  0.38138985  0.36949825  0.15524680  1  0  0.120008  0  0.968745  0  0  0.116592  0  1.045478  0  0  0.12143  0  1.04195  0  0.15313  0  0.108303  0.113125  0  1.047971  0
H  H29  1  0.61860711  0.63050360  0.84475754  1  0  0.120004  0  0.968718  0  0  0.116605  0  1.045447  0  0  0.121442  0  1.041921  0  0.153082  0  0.108314  0.113144  0  1.047935  0
H  H30  1  0.78830284  0.60470640  0.09064944  1  0  0.127425  0  0.952702  0  0  0.131722  0  1.019181  0  0  0.135905  0  1.015935  0  0.136585  0  0.114488  0.128646  0  1.021667  0
H  H31  1  0.21169979  0.39529545  0.90935226  1  0  0.127421  0  0.952697  0  0  0.131703  0  1.019192  0  0  0.135887  0  1.015946  0  0.136623  0  0.114499  0.12863  0  1.021678  0
H  H32  1  0.51932442  0.75604134  0.07227090  1  0  0.105037  0  0.954092  0  0  0.112267  0  1.02077  0  0  0.116056  0  1.018343  0  0.094414  0  0.106881  0.109433  0  1.022799  0
H  H33  1  0.48067537  0.24396051  0.92772801  1  0  0.105026  0  0.95409  0  0  0.112221  0  1.020812  0  0  0.116031  0  1.018359  0  0.094463  0  0.106884  0.109389  0  1.022834  0
H  H34  1  0.08602870  0.62821650  0.62621574  1  0  0.110892  0  0.931385  0  0  0.122232  0  0.986531  0  0  0.125743  0  0.98481  0  0.115025  0  0.110701  0.1197  0  0.987871  0
H  H35  1  0.91397359  0.37178699  0.37378180  1  0  0.110922  0  0.931383  0  0  0.122271  0  0.986514  0  0  0.125787  0  0.984792  0  0.115078  0  0.110714  0.11974  0  0.987855  0
H  H36  1  0.17915631  0.42349431  0.67715315  1  0  0.132776  0  0.931189  0  0  0.139189  0  0.992023  0  0  0.143959  0  0.987865  0  0.132065  0  0.119457  0.135705  0  0.99513  0
H  H37  1  0.82084156  0.57651000  0.32284598  1  0  0.132737  0  0.931223  0  0  0.139157  0  0.992041  0  0  0.143928  0  0.987883  0  0.132051  0  0.119427  0.135672  0  0.995152  0
H  H38  1  0.77036041  0.47454782  0.60682495  1  0  0.11983  0  0.932374  0  0  0.130403  0  0.986275  0  0  0.134042  0  0.983954  0  0.129637  0  0.117232  0.127753  0  0.988036  0
H  H39  1  0.22963598  0.52544994  0.39317309  1  0  0.119788  0  0.932388  0  0  0.130375  0  0.986274  0  0  0.134015  0  0.983951  0  0.129612  0  0.117191  0.127724  0  0.988035  0
H  H40  1  0.67776012  0.67867757  0.56110241  1  0  0.10926  0  0.930906  0  0  0.121703  0  0.984494  0  0  0.125344  0  0.982431  0  0.087674  0  0.111905  0.119018  0  0.986196  0
H  H41  1  0.32224052  0.32132019  0.43889607  1  0  0.109242  0  0.930887  0  0  0.121659  0  0.98452  0  0  0.125299  0  0.982456  0  0.087366  0  0.111889  0.118989  0  0.986203  0
H  H42  1  0.66884126  0.93126115  0.16975161  1  0  0.400866  0  0.904778  0  0  0.358784  0  0.991588  0  0  0.370497  0  0.974934  0  0.622678  0  0.284754  0.35057  0  1.003219  0
H  H43  1  0.33116204  0.06873743  0.83024795  1  0  0.400842  0  0.904785  0  0  0.358761  0  0.991614  0  0  0.370474  0  0.974958  0  0.622658  0  0.284742  0.350549  0  1.003243  0
H  H44  1  0.82808596  0.83298779  0.14015091  1  0  0.418308  0  0.891158  0  0  0.38501  0  0.958961  0  0  0.397413  0  0.940942  0  0.660424  0  0.280944  0.376266  0  0.971623  0
H  H45  1  0.17191859  0.16701161  0.85984908  1  0  0.418328  0  0.891117  0  0  0.385038  0  0.958903  0  0  0.397442  0  0.940884  0  0.660456  0  0.280959  0.376295  0  0.971565  0
H  H46  1  0.34169428  0.97276038  0.56342070  1  0  0.398026  0  0.924503  0  0  0.364312  0  0.995182  0  0  0.376353  0  0.977696  0  0.637063  0  0.2789  0.355782  0  1.007548  0
H  H47  1  0.65830744  0.02723901  0.43657950  1  0  0.398044  0  0.924475  0  0  0.364334  0  0.995149  0  0  0.376375  0  0.977663  0  0.637069  0  0.278913  0.355804  0  1.007515  0
H  H48  1  0.34563259  0.10049827  0.51428858  1  0  0.427586  0  0.866956  0  0  0.398855  0  0.926824  0  0  0.409364  0  0.911506  0  0.636522  0  0.294424  0.391371  0  0.937731  0
H  H49  1  0.65437071  0.89950030  0.48571172  1  0  0.427616  0  0.866913  0  0  0.398882  0  0.926787  0  0  0.409391  0  0.911469  0  0.636524  0  0.294419  0.391399  0  0.937692  0
C  C50  1  0.16529120  0.16430145  0.10620901  1  0  0.072139  0  3.621559  0  0  0.002261  0  3.883165  0  0  0.010238  0  3.892983  0  0.504189  0  0.0127  -0.003116  0  3.876533  0
C  C51  1  0.83471210  0.83569712  0.89378980  1  0  0.072105  0  3.621612  0  0  0.002203  0  3.883252  0  0  0.010142  0  3.893069  0  0.50443  0  0.012626  -0.003163  0  3.876606  0
C  C52  1  0.17253235  0.16260679  0.28269576  1  0  0.074372  0  3.626995  0  0  0.004443  0  3.890685  0  0  0.013177  0  3.899386  0  0.512967  0  0.013659  -0.001399  0  3.884669  0
C  C53  1  0.82747078  0.83739260  0.71730358  1  0  0.074264  0  3.627088  0  0  0.004356  0  3.890717  0  0  0.013089  0  3.899419  0  0.512873  0  0.013685  -0.00147  0  3.884705  0
C  C54  1  0.33873658  0.97836480  0.31804679  1  0  0.071802  0  3.625973  0  0  0.000347  0  3.888313  0  0  0.008293  0  3.898286  0  0.56334  0  0.0087  -0.004935  0  3.881431  0
C  C55  1  0.66126247  0.02163377  0.68195382  1  0  0.071816  0  3.625924  0  0  0.000314  0  3.88832  0  0  0.008268  0  3.898287  0  0.56334  0  0.008671  -0.004968  0  3.881442  0
C  C56  1  0.33110259  0.98163466  0.14081256  1  0  0.068438  0  3.635186  0  0  -0.002634  0  3.894969  0  0  0.00526  0  3.905176  0  0.527931  0  0.012172  -0.00785  0  3.887856  0
C  C57  1  0.66889471  0.01836555  0.85918773  1  0  0.068415  0  3.635137  0  0  -0.002705  0  3.894973  0  0  0.005188  0  3.905184  0  0.527944  0  0.012129  -0.007925  0  3.887873  0
C  C58  1  0.46276509  0.12391509  0.18186159  1  0  0.074815  0  3.615782  0  0  0.005195  0  3.877507  0  0  0.013224  0  3.885839  0  0.532821  0  0.015699  -0.000218  0  3.871881  0
C  C59  1  0.53723838  0.87608267  0.81813818  1  0  0.074968  0  3.615818  0  0  0.005335  0  3.877551  0  0  0.013365  0  3.885888  0  0.533972  0  0.015765  -5.6e-05  0  3.87189  0
C  C60  1  0.03753957  0.01848993  0.24382962  1  0  0.085797  0  3.588482  0  0  0.01564  0  3.848013  0  0  0.024262  0  3.858108  0  0.526297  0  0.020538  0.00978  0  3.841148  0
C  C61  1  0.96246072  0.98150947  0.75616992  1  0  0.085815  0  3.588413  0  0  0.015688  0  3.847917  0  0  0.024309  0  3.858011  0  0.526306  0  0.020539  0.009832  0  3.841049  0
C  C62  1  0.14096491  0.74086710  0.09342950  1  0  0.647964  0  3.912247  0  0  0.593979  0  4.215437  0  0  0.628682  0  4.207278  0  1.58812  0  0.20595  0.57044  0  4.219989  0
C  C63  1  0.85902922  0.25913475  0.90657057  1  0  0.647935  0  3.912331  0  0  0.593982  0  4.215497  0  0  0.628685  0  4.207339  0  1.588096  0  0.205966  0.570434  0  4.220044  0
C  C64  1  0.30142295  0.64831190  0.10427000  1  0  -0.025756  0  3.702583  0  0  -0.012247  0  3.947692  0  0  -0.016247  0  3.968526  0  -0.0335  0  -0.007044  -0.009653  0  3.933662  0
C  C65  1  0.69857651  0.35169159  0.89572998  1  0  -0.025696  0  3.702567  0  0  -0.012246  0  3.947758  0  0  -0.01625  0  3.968602  0  -0.033501  0  -0.007099  -0.009624  0  3.933691  0
C  C66  1  0.26259498  0.53962997  0.12897073  1  0  -0.075268  0  3.701536  0  0  -0.099774  0  3.952282  0  0  -0.103098  0  3.97307  0  -0.00438  0  -0.084665  -0.097449  0  3.938184  0
C  C67  1  0.73740040  0.46037269  0.87103350  1  0  -0.075214  0  3.701558  0  0  -0.099683  0  3.952337  0  0  -0.103005  0  3.973125  0  -0.004508  0  -0.084575  -0.097367  0  3.938233  0
C  C68  1  0.41057375  0.45417338  0.13848686  1  0  -0.085872  0  3.702011  0  0  -0.103577  0  3.954798  0  0  -0.103786  0  3.974234  0  -0.024492  0  -0.076116  -0.103151  0  3.941552  0
C  C69  1  0.58942021  0.54582929  0.86151300  1  0  -0.085893  0  3.702023  0  0  -0.103671  0  3.95481  0  0  -0.103881  0  3.974242  0  -0.024405  0  -0.076167  -0.103247  0  3.941555  0
C  C70  1  0.59773658  0.47992394  0.12422042  1  0  0.063681  0  3.733499  0  0  0.053726  0  3.983076  0  0  0.049923  0  4.008564  0  0.16464  0  0.074643  0.05607  0  3.9659  0
C  C71  1  0.40226213  0.52007628  0.87578200  1  0  0.063488  0  3.733695  0  0  0.053665  0  3.983122  0  0  0.049865  0  4.008607  0  0.164621  0  0.07462  0.056006  0  3.965952  0
C  C72  1  0.64106001  0.58757237  0.09953695  1  0  -0.089728  0  3.70466  0  0  -0.114307  0  3.964522  0  0  -0.114196  0  3.983119  0  -0.015816  0  -0.077025  -0.114134  0  3.951875  0
C  C73  1  0.35893961  0.41243030  0.90046623  1  0  -0.089627  0  3.704699  0  0  -0.114221  0  3.964514  0  0  -0.11411  0  3.983111  0  -0.015937  0  -0.077038  -0.114052  0  3.951873  0
C  C74  1  0.49115792  0.67137848  0.08951319  1  0  -0.065754  0  3.700122  0  0  -0.092957  0  3.959803  0  0  -0.095742  0  3.980348  0  -0.003875  0  -0.083581  -0.091052  0  3.946035  0
C  C75  1  0.50884312  0.32862418  0.91048541  1  0  -0.065818  0  3.700077  0  0  -0.092978  0  3.959792  0  0  -0.095779  0  3.980332  0  -0.00389  0  -0.083562  -0.091079  0  3.946017  0
C  C76  1  0.31935124  0.78690535  0.56446264  1  0  0.664175  0  3.885265  0  0  0.607142  0  4.190891  0  0  0.642032  0  4.182428  0  1.591767  0  0.214672  0.583517  0  4.195693  0
C  C77  1  0.68065456  0.21309487  0.43553853  1  0  0.664121  0  3.885347  0  0  0.607076  0  4.190997  0  0  0.641964  0  4.182537  0  1.591348  0  0.214613  0.583451  0  4.195797  0
C  C78  1  0.37640301  0.66505561  0.59077812  1  0  -0.033551  0  3.700257  0  0  -0.022437  0  3.951797  0  0  -0.027048  0  3.972725  0  -0.058632  0  -0.007649  -0.01943  0  3.937708  0
C  C79  1  0.62359236  0.33494706  0.40921865  1  0  -0.033572  0  3.700388  0  0  -0.022457  0  3.951929  0  0  -0.027064  0  3.97285  0  -0.058198  0  -0.007647  -0.019452  0  3.937846  0
C  C80  1  0.23520433  0.59356302  0.62199061  1  0  -0.061643  0  3.699801  0  0  -0.088373  0  3.958339  0  0  -0.090422  0  3.97865  0  -0.079044  0  -0.079886  -0.086949  0  3.944579  0
C  C81  1  0.76479965  0.40643228  0.37800606  1  0  -0.061663  0  3.69975  0  0  -0.088408  0  3.958266  0  0  -0.090463  0  3.978581  0  -0.079129  0  -0.0799  -0.086984  0  3.944507  0
C  C82  1  0.28518626  0.48085432  0.64891490  1  0  -0.097971  0  3.713491  0  0  -0.122476  0  3.971778  0  0  -0.123348  0  3.99069  0  0.074935  0  -0.074771  -0.121664  0  3.958912  0
C  C83  1  0.71481529  0.51914589  0.35108806  1  0  -0.097975  0  3.713323  0  0  -0.12242  0  3.971635  0  0  -0.123295  0  3.990552  0  0.075048  0  -0.07477  -0.121611  0  3.958763  0
C  C84  1  0.47888979  0.44113567  0.64163926  1  0  0.064026  0  3.729488  0  0  0.059255  0  3.981613  0  0  0.056074  0  4.007155  0  0.206881  0  0.079235  0.061174  0  3.964453  0
C  C85  1  0.52110893  0.55886454  0.35835645  1  0  0.064092  0  3.729363  0  0  0.059146  0  3.981714  0  0  0.055967  0  4.007259  0  0.20679  0  0.079278  0.06108  0  3.964525  0
C  C86  1  0.62195369  0.51006131  0.61082860  1  0  -0.092018  0  3.734137  0  0  -0.115426  0  3.98925  0  0  -0.116126  0  4.009842  0  -0.056744  0  -0.074952  -0.114697  0  3.975134  0
C  C87  1  0.37804219  0.48993890  0.38916731  1  0  -0.092074  0  3.734022  0  0  -0.115449  0  3.989194  0  0  -0.116148  0  4.009785  0  -0.056666  0  -0.074955  -0.114725  0  3.975081  0
C  C88  1  0.56942450  0.62260635  0.58584214  1  0  -0.0622  0  3.710514  0  0  -0.088901  0  3.968763  0  0  -0.091025  0  3.989132  0  0.050823  0  -0.079078  -0.087405  0  3.954934  0
C  C89  1  0.43057455  0.37739223  0.41415623  1  0  -0.062078  0  3.71045  0  0  -0.088749  0  3.968698  0  0  -0.090872  0  3.989065  0  0.05107  0  -0.079047  -0.087266  0  3.954867  0
N  N90  1  0.13897632  0.04547200  0.13736627  1  0  -0.304374  0  3.188112  0  0  -0.212308  0  3.430207  0  0  -0.23218  0  3.449741  0  -0.989033  0  -0.345147  -0.19843  0  3.41638  0
N  N91  1  0.86102540  0.95452739  0.86263392  1  0  -0.30436  0  3.188023  0  0  -0.212327  0  3.430215  0  0  -0.232201  0  3.449766  0  -0.989097  0  -0.345118  -0.198452  0  3.416388  0
N  N92  1  0.27535413  0.19009211  0.17872039  1  0  -0.258677  0  3.15714  0  0  -0.190806  0  3.416619  0  0  -0.206038  0  3.432649  0  -0.997519  0  -0.341938  -0.179985  0  3.405148  0
N  N93  1  0.72464917  0.80990647  0.82127917  1  0  -0.25872  0  3.157173  0  0  -0.190861  0  3.416671  0  0  -0.206093  0  3.432715  0  -0.9987  0  -0.341986  -0.180049  0  3.405197  0
N  N94  1  0.14647879  0.04332073  0.31978533  1  0  -0.308009  0  3.159601  0  0  -0.214753  0  3.399981  0  0  -0.235678  0  3.420626  0  -0.976268  0  -0.343503  -0.200135  0  3.385325  0
N  N95  1  0.85352151  0.95667866  0.68021422  1  0  -0.307977  0  3.15959  0  0  -0.214733  0  3.399993  0  0  -0.235658  0  3.420634  0  -0.976286  0  -0.343483  -0.200119  0  3.385334  0
N  N96  1  0.44349526  0.00547513  0.21381828  1  0  -0.274016  0  3.177147  0  0  -0.192355  0  3.414456  0  0  -0.20834  0  3.43052  0  -1.016783  0  -0.338297  -0.181209  0  3.403212  0
N  N97  1  0.55650520  0.99452344  0.78618222  1  0  -0.274097  0  3.177229  0  0  -0.192394  0  3.414535  0  0  -0.208396  0  3.430616  0  -1.016775  0  -0.338329  -0.181254  0  3.403291  0
N  N98  1  0.75451191  0.39130959  0.13766335  1  0  0.46632  0  3.954831  0  0  0.504639  0  4.240213  0  0  0.524153  0  4.251374  0  0.348793  0  0.05377  0.491618  0  4.232643  0
N  N99  1  0.24548272  0.60868980  0.86234033  1  0  0.466507  0  3.954697  0  0  0.504819  0  4.240027  0  0  0.52433  0  4.251189  0  0.348838  0  0.053808  0.491793  0  4.232466  0
N  N100  1  0.53425902  0.32271863  0.66676698  1  0  0.491816  0  3.906739  0  0  0.516278  0  4.213503  0  0  0.536501  0  4.223377  0  0.327879  0  0.053857  0.502794  0  4.20677  0
N  N101  1  0.46573153  0.67727994  0.33323424  1  0  0.491672  0  3.906935  0  0  0.516132  0  4.213786  0  0  0.536351  0  4.223662  0  0.328196  0  0.053662  0.502648  0  4.207046  0
O  O102  1  0.18493495  0.83328400  0.03413729  1  0  -0.661199  0  2.009954  0  0  -0.592805  0  2.266482  0  0  -0.622457  0  2.255914  0  -1.170803  0  -0.334323  -0.571637  0  2.272737  0
O  O103  1  0.81506643  0.16671703  0.96586098  1  0  -0.661175  0  2.010049  0  0  -0.592792  0  2.266582  0  0  -0.622442  0  2.256012  0  -1.170769  0  -0.334311  -0.571639  0  2.272879  0
O  O104  1  0.98027362  0.72067268  0.14232335  1  0  -0.613547  0  1.938051  0  0  -0.562473  0  2.160204  0  0  -0.587722  0  2.150293  0  -1.175696  0  -0.314669  -0.544503  0  2.166291  0
O  O105  1  0.01972634  0.27932835  0.85768025  1  0  -0.61359  0  1.938042  0  0  -0.562531  0  2.160199  0  0  -0.587782  0  2.150291  0  -1.175661  0  -0.314702  -0.544559  0  2.16629  0
O  O106  1  0.71538609  0.29557045  0.17405590  1  0  -0.362375  0  1.793966  0  0  -0.344051  0  2.009844  0  0  -0.356129  0  2.008218  0  -0.492031  0  -0.126089  -0.336084  0  2.011111  0
O  O107  1  0.28460821  0.70443058  0.82593841  1  0  -0.36241  0  1.793731  0  0  -0.344135  0  2.009676  0  0  -0.356216  0  2.008057  0  -0.492029  0  -0.126135  -0.336171  0  2.01095  0
O  O108  1  0.92065544  0.41489006  0.11341169  1  0  -0.348867  0  1.781893  0  0  -0.32701  0  1.985052  0  0  -0.338753  0  1.982915  0  -0.49005  0  -0.120837  -0.319269  0  1.986691  0
O  O109  1  0.07934327  0.58511015  0.88659819  1  0  -0.348918  0  1.782021  0  0  -0.327072  0  1.985165  0  0  -0.338811  0  1.983028  0  -0.490095  0  -0.120817  -0.31933  0  1.986816  0
O  O110  1  0.14857849  0.82027412  0.54321017  1  0  -0.633369  0  1.995326  0  0  -0.569526  0  2.244326  0  0  -0.598076  0  2.23376  0  -1.163604  0  -0.322753  -0.549408  0  2.250762  0
O  O111  1  0.85142379  0.17972937  0.45679110  1  0  -0.633278  0  1.995454  0  0  -0.569406  0  2.24443  0  0  -0.597957  0  2.233869  0  -1.163583  0  -0.322621  -0.549289  0  2.250866  0
O  O112  1  0.44459781  0.84745585  0.56695768  1  0  -0.66363  0  2.014033  0  0  -0.602916  0  2.243948  0  0  -0.629324  0  2.23304  0  -1.197581  0  -0.319147  -0.584318  0  2.250853  0
O  O113  1  0.55540498  0.15254518  0.43303975  1  0  -0.663656  0  2.013929  0  0  -0.602943  0  2.243845  0  0  -0.629357  0  2.232949  0  -1.197513  0  -0.319196  -0.584347  0  2.250758  0
O  O114  1  0.70684239  0.28867560  0.67146228  1  0  -0.357744  0  1.740799  0  0  -0.339189  0  1.947467  0  0  -0.351426  0  1.944927  0  -0.473631  0  -0.124474  -0.331116  0  1.949369  0
O  O115  1  0.29314958  0.71132298  0.32853734  1  0  -0.357625  0  1.740782  0  0  -0.339038  0  1.947416  0  0  -0.35128  0  1.944891  0  -0.473797  0  -0.124364  -0.330962  0  1.949313  0
O  O116  1  0.40649062  0.26251999  0.68137846  1  0  -0.344388  0  1.733015  0  0  -0.31923  0  1.931341  0  0  -0.331151  0  1.92876  0  -0.457427  0  -0.117323  -0.311346  0  1.933272  0
O  O117  1  0.59349642  0.73748186  0.31862509  1  0  -0.344387  0  1.733249  0  0  -0.319175  0  1.931542  0  0  -0.331096  0  1.928965  0  -0.457618  0  -0.117237  -0.311305  0  1.933487  0
O  O118  1  0.76133363  0.90915850  0.11447567  1  0  -0.859773  0  1.906202  0  0  -0.79256  0  2.126972  0  0  -0.815724  0  2.090025  0  -1.287513  0  -0.59643  -0.776066  0  2.152567  0
O  O119  1  0.23866825  0.09084008  0.88552324  1  0  -0.859759  0  1.906156  0  0  -0.792554  0  2.126946  0  0  -0.815716  0  2.089998  0  -1.287488  0  -0.596438  -0.776063  0  2.152535  0
O  O120  1  0.26342415  0.04613154  0.55850546  1  0  -0.823348  0  1.852413  0  0  -0.761522  0  2.037404  0  0  -0.783768  0  2.003556  0  -1.258218  0  -0.591863  -0.745758  0  2.060972  0
O  O121  1  0.73657740  0.95386868  0.44149378  1  0  -0.823387  0  1.85236  0  0  -0.761566  0  2.037356  0  0  -0.783813  0  2.003507  0  -1.258235  0  -0.591872  -0.745802  0  2.060923  0
