# generated using pymatgen
data_Zn2H17C36S2BrN2(O2F)4
_symmetry_space_group_name_H-M   'P 1'
_cell_length_a   12.76831679
_cell_length_b   16.36034992
_cell_length_c   17.71591874
_cell_angle_alpha   95.53275521
_cell_angle_beta   90.24766502
_cell_angle_gamma   92.89955298
_symmetry_Int_Tables_number   1
_chemical_formula_structural   Zn2H17C36S2BrN2(O2F)4
_chemical_formula_sum   'Zn2 H17 C36 S2 Br1 N2 O8 F4'
_cell_volume   3678.63718576
_cell_formula_units_Z   1
loop_
 _symmetry_equiv_pos_site_id
 _symmetry_equiv_pos_as_xyz
  1  'x, y, z'
loop_
 _atom_site_type_symbol
 _atom_site_label
 _atom_site_symmetry_multiplicity
 _atom_site_fract_x
 _atom_site_fract_y
 _atom_site_fract_z
 _atom_site_occupancy
 _atom_site_pbe_bader_charge
 _atom_site_pbe_bader_spin_density
 _atom_site_pbe_cm5_charge
 _atom_site_pbe_ddec_charge
 _atom_site_pbe_ddec_spin_density
 _atom_site_pbe_ddec_sum_bond_order
 _atom_site_pbe_magmom
Zn  Zn0  1  0.49709690  0.41384280  0.49827379  1  1.283689  0  0.669623  0.843272  0  2.413651  0
Zn  Zn1  1  0.50466246  0.58546242  0.50148198  1  1.282376  0  0.66639  0.839048  0  2.398235  0
H  H2  1  0.39594625  0.71194660  0.42676761  1  0.167607  0  0.134802  0.113696  0  0.963462  0
H  H3  1  0.39705769  0.86445069  0.42755282  1  0.080954  0  0.113584  0.122359  0  0.994499  0
H  H4  1  0.64098057  0.87861975  0.60095570  1  0.107689  0  0.122147  0.151401  0  0.972576  0
H  H5  1  0.36041670  0.12132086  0.39803956  1  0.099799  0  0.12173  0.15179  0  0.970859  0
H  H6  1  0.60168324  0.13493833  0.57340006  1  0.075346  0  0.113803  0.122546  0  0.994744  0
H  H7  1  0.60396067  0.28737746  0.57385962  1  0.171352  0  0.134638  0.113555  0  0.962954  0
H  H8  1  0.58598311  0.00419135  0.56164031  1  0.066735  0  0.109901  0.106054  0  0.993399  0
H  H9  1  0.41328060  0.99555056  0.43868785  1  0.058423  0  0.109705  0.105745  0  0.993179  0
H  H10  1  0.50606495  0.61667042  0.26288095  1  0.106582  0  0.104481  0.109424  0  1.001717  0
H  H11  1  0.50572011  0.61175996  0.12288641  1  0.026071  0  0.099488  0.101124  0  1.008382  0
H  H12  1  0.49157256  0.34574130  0.11163121  1  0.081106  0  0.107683  0.128682  0  0.990893  0
H  H13  1  0.50828375  0.65454818  0.88811068  1  0.079349  0  0.107595  0.128451  0  0.991212  0
H  H14  1  0.49396868  0.38853923  0.87709412  1  0.030151  0  0.100401  0.10223  0  1.008063  0
H  H15  1  0.49433883  0.38348932  0.73709548  1  0.107897  0  0.104937  0.110072  0  1.000815  0
H  H16  1  0.49477192  0.40580408  0.99697941  1  0.066489  0  0.100863  0.098124  0  1.005316  0
H  H17  1  0.50503852  0.59454335  0.00289776  1  0.063934  0  0.100555  0.097582  0  1.006454  0
H  H18  1  0.86474064  0.62819250  0.50302624  1  0.139139  0  0.11423  0.139697  0  0.981487  0
C  C19  1  0.49992366  0.49527117  0.35208739  1  1.56299  0  0.213669  0.611706  0  4.169855  0
C  C20  1  0.29599286  0.50233555  0.50030348  1  1.56448  0  0.203187  0.610096  0  4.21068  0
C  C21  1  0.50139767  0.50452606  0.64774199  1  1.561756  0  0.213998  0.612232  0  4.168973  0
C  C22  1  0.70568062  0.49680017  0.49982410  1  1.592696  0  0.206045  0.602462  0  4.216529  0
C  C23  1  0.44863863  0.75233073  0.46387724  1  0.448559  0  0.064958  0.129395  0  3.912508  0
C  C24  1  0.45004943  0.83704425  0.46506783  1  0.018017  0  -0.08425  -0.198962  0  3.939138  0
C  C25  1  0.51980060  0.88615343  0.51470196  1  0.002769  0  0.012379  0.175532  0  4.043045  0
C  C26  1  0.58510788  0.84550559  0.56100334  1  0.063551  0  -0.08477  -0.300035  0  3.912498  0
C  C27  1  0.57761788  0.76012879  0.55512212  1  1.071918  0  0.249309  0.457516  0  4.061156  0
C  C28  1  0.52789551  0.97569704  0.52044395  1  -0.010116  0  -0.072903  -0.11051  0  3.946556  0
C  C29  1  0.47130714  0.02400236  0.47995377  1  -0.099243  0  -0.072626  -0.109265  0  3.945966  0
C  C30  1  0.41603396  0.15428833  0.43827553  1  0.0517  0  -0.084942  -0.299365  0  3.909639  0
C  C31  1  0.47997056  0.11355000  0.48544292  1  0.025672  0  0.012645  0.176116  0  4.041745  0
C  C32  1  0.54948103  0.16245370  0.53540304  1  0.005627  0  -0.084726  -0.199747  0  3.938622  0
C  C33  1  0.55167659  0.24714643  0.53629289  1  0.455382  0  0.06526  0.130342  0  3.912288  0
C  C34  1  0.42490330  0.23964349  0.44338267  1  1.097089  0  0.248818  0.459555  0  4.065498  0
C  C35  1  0.49917400  0.48656592  0.26715571  1  0.108836  0  -0.024472  -0.144408  0  3.940152  0
C  C36  1  0.50275295  0.55781981  0.22826038  1  -0.087854  0  -0.082943  -0.067114  0  4.011837  0
C  C37  1  0.50257749  0.55457339  0.14988495  1  -0.010703  0  -0.098473  -0.156827  0  3.986087  0
C  C38  1  0.49854152  0.47811278  0.10528953  1  0.142584  0  -0.006737  0.144562  0  4.059755  0
C  C39  1  0.49479991  0.40644329  0.14323695  1  -0.024775  0  -0.103891  -0.272601  0  3.968458  0
C  C40  1  0.49524041  0.41116635  0.22192404  1  0.414666  0  0.107574  0.293699  0  4.037452  0
C  C41  1  0.49815576  0.46933234  0.02277381  1  -0.185666  0  -0.088666  -0.127033  0  3.986801  0
C  C42  1  0.50162795  0.53102778  0.97708012  1  -0.092271  0  -0.088339  -0.125339  0  3.988199  0
C  C43  1  0.50518205  0.59382362  0.85654394  1  -0.020467  0  -0.103968  -0.272481  0  3.969756  0
C  C44  1  0.50131135  0.52219609  0.89456805  1  0.141572  0  -0.007353  0.143285  0  4.062478  0
C  C45  1  0.49732555  0.44569299  0.85005262  1  -0.009935  0  -0.098758  -0.157332  0  3.987245  0
C  C46  1  0.49753943  0.44236505  0.77168070  1  -0.088184  0  -0.081916  -0.065512  0  4.009282  0
C  C47  1  0.50149225  0.51357081  0.73268729  1  0.074738  0  -0.024623  -0.14475  0  3.939553  0
C  C48  1  0.50515145  0.58899513  0.77784422  1  0.442327  0  0.106443  0.292343  0  4.038182  0
C  C49  1  0.10819467  0.43214318  0.49934398  1  -0.053513  0  -0.027087  0.060826  0  3.997863  0
C  C50  1  0.89096166  0.56588589  0.50150710  1  0.048132  0  -0.097054  -0.144889  0  3.979701  0
C  C51  1  0.18019889  0.49870974  0.50041113  1  -0.03785  0  -0.030648  -0.158242  0  3.933955  0
C  C52  1  0.82143742  0.49821566  0.50001988  1  -0.184817  0  -0.023194  -0.099587  0  3.959156  0
C  C53  1  0.99582741  0.54193886  0.50111651  1  -0.211869  0  -0.026907  0.001699  0  4.077654  0
C  C54  1  0.00345637  0.45621504  0.49954640  1  -0.107205  0  -0.036645  -0.076844  0  4.10795  0
S  S55  1  0.11845349  0.59154418  0.50200838  1  0.244995  0  0.064189  0.104006  0  2.757107  0
S  S56  1  0.88229868  0.40521903  0.49835227  1  0.256174  0  0.063553  0.105477  0  2.807163  0
Br  Br57  1  0.13750289  0.32031569  0.49775279  1  -0.02016  0  0.014508  -0.046479  0  1.432516  0
N  N58  1  0.51243384  0.71365808  0.50865159  1  -1.240373  0  -0.313331  -0.287787  0  3.461013  0
N  N59  1  0.48936903  0.28591552  0.49059518  1  -1.236514  0  -0.314029  -0.287893  0  3.462859  0
O  O60  1  0.50168524  0.42996360  0.38528228  1  -1.1529  0  -0.316663  -0.546737  0  2.371711  0
O  O61  1  0.49898660  0.56835627  0.38467088  1  -1.167033  0  -0.323667  -0.554776  0  2.306025  0
O  O62  1  0.34114269  0.57361708  0.49851576  1  -1.160582  0  -0.325497  -0.552448  0  2.300455  0
O  O63  1  0.34052977  0.43478006  0.50207348  1  -1.167174  0  -0.317939  -0.542907  0  2.375375  0
O  O64  1  0.50002794  0.56974919  0.61420886  1  -1.152434  0  -0.318186  -0.549474  0  2.371275  0
O  O65  1  0.50249935  0.43139327  0.61554144  1  -1.170192  0  -0.322047  -0.55252  0  2.304368  0
O  O66  1  0.65859929  0.42622515  0.50145533  1  -1.162585  0  -0.325066  -0.550586  0  2.319292  0
O  O67  1  0.66324845  0.56532833  0.49801006  1  -1.160572  0  -0.320869  -0.547486  0  2.312061  0
F  F68  1  0.64029211  0.72073530  0.59866245  1  -0.607418  0  -0.066079  -0.12433  0  1.347122  0
F  F69  1  0.36505151  0.27909985  0.39813869  1  -0.616329  0  -0.064772  -0.125239  0  1.383758  0
F  F70  1  0.49138514  0.33838253  0.25305607  1  -0.625671  0  -0.109127  -0.147317  0  1.351955  0
F  F71  1  0.50921888  0.66175263  0.74658513  1  -0.626515  0  -0.10993  -0.148879  0  1.348481  0
