# generated using pymatgen
data_Cu3H10C12N2(ClO3)2
_symmetry_space_group_name_H-M   'P 1'
_cell_length_a   6.94475517
_cell_length_b   10.02141908
_cell_length_c   12.99296305
_cell_angle_alpha   89.99846088
_cell_angle_beta   90.00344843
_cell_angle_gamma   109.72877072
_symmetry_Int_Tables_number   1
_chemical_formula_structural   Cu3H10C12N2(ClO3)2
_chemical_formula_sum   'Cu6 H20 C24 N4 Cl4 O12'
_cell_volume   851.18303332
_cell_formula_units_Z   2
loop_
 _symmetry_equiv_pos_site_id
 _symmetry_equiv_pos_as_xyz
  1  'x, y, z'
loop_
 _atom_site_type_symbol
 _atom_site_label
 _atom_site_symmetry_multiplicity
 _atom_site_fract_x
 _atom_site_fract_y
 _atom_site_fract_z
 _atom_site_occupancy
 _atom_site_hle17_ddec_charge
 _atom_site_hle17_ddec_spin_density
 _atom_site_hle17_ddec_sum_bond_order
 _atom_site_hle17_magmom
 _atom_site_hse06_10hf_ddec_charge
 _atom_site_hse06_10hf_ddec_spin_density
 _atom_site_hse06_10hf_ddec_sum_bond_order
 _atom_site_hse06_10hf_magmom
 _atom_site_hse06_ddec_charge
 _atom_site_hse06_ddec_spin_density
 _atom_site_hse06_ddec_sum_bond_order
 _atom_site_hse06_magmom
 _atom_site_pbe_cm5_charge
 _atom_site_pbe_ddec_charge
 _atom_site_pbe_ddec_spin_density
 _atom_site_pbe_ddec_sum_bond_order
 _atom_site_pbe_magmom
Cu  Cu0  1  0.73973006  0.80957469  0.32325883  1  0.8402  -0.638323  1.891144  -0.463  0.843778  -0.740588  2.29158  -0.592  0.943201  -0.829259  2.206883  -0.687  0.614685  0.786268  -0.667388  2.346085  -0.522
Cu  Cu1  1  0.76024703  0.19042876  0.82326933  1  0.840208  0.638281  1.891175  0.463  0.843656  0.740543  2.291815  0.592  0.943228  0.829217  2.206849  0.687  0.614631  0.786158  0.667325  2.346297  0.522
Cu  Cu2  1  0.26027110  0.19042963  0.67677690  1  0.839782  -0.638294  1.891442  -0.463  0.843346  -0.740539  2.291955  -0.592  0.942772  -0.829234  2.207242  -0.687  0.61457  0.785833  -0.667335  2.346443  -0.522
Cu  Cu3  1  0.23972952  0.80955490  0.17671560  1  0.840103  0.638302  1.891582  0.463  0.84362  0.740555  2.292151  0.592  0.94307  0.829212  2.207341  0.687  0.614703  0.786122  0.667356  2.346678  0.522
Cu  Cu4  1  0.00010898  0.00000773  0.50002528  1  1.035796  0.727629  1.752486  0.525  1.043924  0.823702  2.144568  0.654  1.130236  0.894556  2.072695  0.737  0.665056  0.987686  0.76154  2.204456  0.591
Cu  Cu5  1  0.49999012  0.99996725  0.99999796  1  1.035621  -0.727464  1.751269  -0.525  1.043668  -0.823602  2.143348  -0.654  1.130111  -0.894486  2.071413  -0.737  0.664835  0.987345  -0.761433  2.203348  -0.591
H  H6  1  0.71199906  0.01602578  0.40473368  1  0.403254  0.000696  0.853857  0.001  0.392366  0.000104  0.910426  0.0  0.403288  0.000106  0.900979  0.0  0.282724  0.38474  8.6e-05  0.916601  0.0
H  H7  1  0.78792553  0.98394106  0.90468034  1  0.403154  -0.000695  0.853738  -0.001  0.392322  -0.0001  0.910167  0.0  0.403259  -0.000103  0.900939  0.0  0.28266  0.384688  -8.2e-05  0.916347  0.0
H  H8  1  0.28808702  0.98399187  0.59530667  1  0.403205  0.000701  0.853502  0.001  0.392448  0.000107  0.90982  0.0  0.403376  0.000109  0.900731  0.0  0.282736  0.384814  8.9e-05  0.916005  0.0
H  H9  1  0.21202034  0.01602798  0.09529844  1  0.403371  -0.000693  0.853443  -0.001  0.392548  -0.0001  0.909863  0.0  0.403485  -0.000103  0.900641  0.0  0.282678  0.384916  -8.1e-05  0.916045  0.0
H  H10  1  0.65522625  0.20766893  0.60359984  1  0.102726  0.001383  0.941447  0.001  0.110429  0.00132  1.005988  0.001  0.11424  0.001044  1.002666  0.001  0.117081  0.107193  0.001541  1.009166  0.001
H  H11  1  0.84479021  0.79234697  0.10358358  1  0.102753  -0.00138  0.941617  -0.001  0.110436  -0.001318  1.006156  -0.001  0.114249  -0.001042  1.002833  -0.001  0.117065  0.107191  -0.001539  1.00934  -0.001
H  H12  1  0.34474202  0.79235306  0.39639818  1  0.102795  0.001377  0.941503  0.001  0.110428  0.001317  1.006096  0.001  0.114319  0.001042  1.002685  0.001  0.117099  0.107182  0.001539  1.009279  0.001
H  H13  1  0.15514818  0.20765208  0.89640981  1  0.102702  -0.001382  0.94167  -0.001  0.11041  -0.001319  1.006198  -0.001  0.114231  -0.001043  1.002867  -0.001  0.117035  0.107164  -0.00154  1.009387  -0.001
H  H14  1  0.67779602  0.40306306  0.47834967  1  0.121425  0.000188  0.924871  0.0  0.135119  0.000249  0.975968  0.0  0.138833  0.000194  0.974364  0.0  0.116823  0.132382  0.000329  0.977336  0.001
H  H15  1  0.82225582  0.59694964  0.97833715  1  0.121285  -0.000189  0.925045  0.0  0.135081  -0.000248  0.976038  0.0  0.138785  -0.000193  0.97445  0.0  0.11682  0.132353  -0.000328  0.977386  -0.001
H  H16  1  0.32229616  0.59694854  0.52164450  1  0.121288  0.000193  0.9252  0.0  0.135044  0.000249  0.976237  0.0  0.138741  0.000193  0.97465  0.0  0.11682  0.132316  0.000329  0.97758  0.001
H  H17  1  0.17771979  0.40305903  0.02166164  1  0.121338  -0.000192  0.925126  0.0  0.135196  -0.000249  0.976037  0.0  0.138908  -0.000193  0.974446  0.0  0.116855  0.132464  -0.000329  0.97739  -0.001
H  H18  1  0.00717064  0.70231704  0.70933223  1  0.131453  0.000481  0.928072  0.0  0.142254  0.000459  0.981339  0.0  0.147295  0.000325  0.977849  0.0  0.11736  0.138474  0.000656  0.983922  0.0
H  H19  1  0.49278326  0.29764863  0.20934709  1  0.131521  -0.000485  0.927586  0.0  0.142341  -0.00046  0.980861  0.0  0.14739  -0.000325  0.977365  0.0  0.117346  0.138558  -0.000657  0.983442  0.0
H  H20  1  0.99292182  0.29766117  0.29067348  1  0.131411  0.000486  0.928116  0.0  0.142382  0.00046  0.98117  0.0  0.147429  0.000325  0.977679  0.0  0.117434  0.138602  0.000657  0.983749  0.0
H  H21  1  0.50721082  0.70234919  0.79064015  1  0.131505  -0.000487  0.927723  0.0  0.142366  -0.00046  0.980957  0.0  0.147413  -0.000326  0.977464  0.0  0.117354  0.138579  -0.000658  0.983543  0.0
H  H22  1  0.95565756  0.49523594  0.82858346  1  0.081666  0.00062  0.972636  0.001  0.089124  0.000552  1.038753  0.001  0.091285  0.000406  1.037076  0.001  0.115545  0.08749  0.000697  1.040125  0.002
H  H23  1  0.54420866  0.50474276  0.32859354  1  0.081942  -0.000617  0.972686  -0.001  0.08926  -0.000552  1.038916  -0.001  0.091432  -0.000405  1.037252  -0.001  0.115508  0.087623  -0.000696  1.040289  -0.002
H  H24  1  0.04428479  0.50474864  0.17143687  1  0.081861  0.000617  0.972621  0.001  0.089259  0.000551  1.038787  0.001  0.09142  0.000405  1.037113  0.001  0.115529  0.087622  0.000695  1.040173  0.002
H  H25  1  0.45576462  0.49525017  0.67139448  1  0.082022  -0.000616  0.972471  -0.001  0.089284  -0.000552  1.038733  -0.001  0.091463  -0.000406  1.037064  -0.001  0.115487  0.087612  -0.000696  1.040145  -0.002
C  C26  1  0.72805077  0.31874339  0.62427354  1  0.115397  -0.005327  3.6766  -0.006  0.081563  -0.000615  3.946466  -0.002  0.088364  -0.00169  3.964198  -0.003  0.044034  0.076053  0.000262  3.937283  -0.001
C  C27  1  0.77193679  0.68127116  0.12428458  1  0.115581  0.005342  3.675544  0.006  0.081782  0.000624  3.945446  0.002  0.088596  0.001701  3.963162  0.003  0.044106  0.076278  -0.000253  3.93627  0.001
C  C28  1  0.27193824  0.68125947  0.37573294  1  0.115435  -0.005322  3.676108  -0.006  0.081681  -0.00062  3.945986  -0.002  0.088426  -0.001694  3.963684  -0.003  0.044115  0.076177  0.000258  3.936806  -0.001
C  C29  1  0.22802377  0.31872238  0.87571651  1  0.115565  0.005302  3.675723  0.006  0.081764  0.000627  3.945684  0.002  0.088564  0.001704  3.963409  0.003  0.04408  0.076256  -0.000251  3.936511  0.001
C  C30  1  0.74391943  0.42768962  0.55484282  1  -0.102487  0.008013  3.681119  0.009  -0.125821  0.003939  3.933268  0.005  -0.129423  0.003862  3.949694  0.005  -0.07261  -0.123458  0.00415  3.923228  0.005
C  C31  1  0.75608207  0.57231200  0.05482243  1  -0.102487  -0.008014  3.680466  -0.009  -0.125944  -0.003942  3.93274  -0.005  -0.129549  -0.003864  3.949167  -0.005  -0.072682  -0.12357  -0.004152  3.922694  -0.005
C  C32  1  0.25609154  0.57230042  0.44516905  1  -0.102313  0.007993  3.681115  0.009  -0.125722  0.003941  3.933272  0.005  -0.129328  0.003862  3.949722  0.005  -0.072605  -0.123337  0.00415  3.923213  0.005
C  C33  1  0.24388255  0.42767751  0.94517174  1  -0.102506  -0.007973  3.680418  -0.009  -0.126015  -0.003948  3.932661  -0.005  -0.129628  -0.00387  3.949091  -0.005  -0.072633  -0.123647  -0.004156  3.922631  -0.005
C  C34  1  0.84459250  0.56797843  0.58483409  1  -0.011535  -0.005121  3.722986  -0.005  0.007355  -0.002528  3.952125  -0.003  0.006421  -0.003075  3.968737  -0.003  0.003708  0.007431  -0.001942  3.941345  -0.002
C  C35  1  0.65542334  0.43202317  0.08480593  1  -0.01155  0.00513  3.722312  0.005  0.007285  0.002537  3.951502  0.003  0.006357  0.003085  3.968116  0.003  0.003568  0.007363  0.00195  3.940714  0.002
C  C36  1  0.15548163  0.43199394  0.41519471  1  -0.011782  -0.005115  3.722935  -0.005  0.007141  -0.00254  3.952069  -0.003  0.006216  -0.003085  3.968674  -0.003  0.003558  0.007209  -0.001951  3.94129  -0.002
C  C37  1  0.34455734  0.56798046  0.91517823  1  -0.011525  0.005094  3.722011  0.005  0.00737  0.00254  3.951232  0.003  0.006451  0.003089  3.967832  0.003  0.003661  0.007435  0.001953  3.940462  0.002
C  C38  1  0.92700519  0.59410475  0.68397594  1  -0.118471  0.007569  3.689914  0.008  -0.137395  0.003691  3.929466  0.004  -0.141651  0.003653  3.945872  0.004  -0.07452  -0.134751  0.003684  3.918635  0.004
C  C39  1  0.57294402  0.40588763  0.18396450  1  -0.11833  -0.007578  3.688364  -0.008  -0.137237  -0.003698  3.927859  -0.004  -0.141495  -0.003661  3.944278  -0.004  -0.074335  -0.134588  -0.003691  3.917034  -0.004
C  C40  1  0.07305460  0.40589844  0.31603670  1  -0.118319  0.007551  3.68913  0.008  -0.137388  0.003697  3.928601  0.004  -0.141651  0.003658  3.945014  0.004  -0.074513  -0.134743  0.003689  3.917781  0.004
C  C41  1  0.42703341  0.59411171  0.81601274  1  -0.118501  -0.007543  3.688544  -0.008  -0.137516  -0.003707  3.928063  -0.004  -0.141772  -0.003668  3.944465  -0.004  -0.07441  -0.134874  -0.003697  3.917247  -0.004
C  C42  1  0.90070018  0.48024720  0.74968220  1  0.128803  -0.00563  3.689417  -0.006  0.098098  -0.000954  3.94808  -0.002  0.106334  -0.001927  3.96749  -0.003  0.042831  0.092852  -0.000214  3.935818  -0.001
C  C43  1  0.59922735  0.51974748  0.24969554  1  0.12845  0.005626  3.68915  0.006  0.097832  0.000952  3.947799  0.002  0.106049  0.001928  3.967226  0.003  0.04286  0.092587  0.000212  3.935534  0.001
C  C44  1  0.09928283  0.51977216  0.25033121  1  0.128486  -0.005604  3.688928  -0.006  0.097839  -0.000955  3.947595  -0.002  0.106073  -0.001929  3.967007  -0.003  0.042833  0.092591  -0.000214  3.935327  -0.001
C  C45  1  0.40076057  0.48023239  0.75029940  1  0.128558  0.005589  3.688473  0.006  0.098105  0.000953  3.947064  0.002  0.106327  0.001929  3.966477  0.003  0.042938  0.092872  0.000211  3.934817  0.001
C  C46  1  0.86330916  0.69108895  0.51448586  1  0.657137  0.000662  3.863318  0.001  0.616723  0.000813  4.153291  0.001  0.655207  0.000676  4.146969  0.001  0.220963  0.590459  0.001002  4.156729  0.001
C  C47  1  0.63668669  0.30889126  0.01446416  1  0.657005  -0.000646  3.862677  -0.001  0.616796  -0.000801  4.152387  -0.001  0.655288  -0.000665  4.146091  -0.001  0.221071  0.59054  -0.000991  4.155815  -0.001
C  C48  1  0.13677552  0.30890152  0.48554141  1  0.657335  0.000641  3.863421  0.001  0.616885  0.000802  4.153479  0.001  0.655361  0.000666  4.147176  0.001  0.220895  0.590623  0.000991  4.156906  0.001
C  C49  1  0.36325444  0.69108701  0.98553078  1  0.657167  -0.000644  3.862783  -0.001  0.616829  -0.000805  4.152677  -0.001  0.655322  -0.000668  4.146373  -0.001  0.22106  0.590572  -0.000995  4.156107  -0.001
N  N50  1  0.80236468  0.34521349  0.72081614  1  -0.300448  0.059716  3.360199  0.075  -0.251118  0.044687  3.662844  0.059  -0.283556  0.038579  3.688758  0.054  -0.351461  -0.232969  0.046512  3.649331  0.06
N  N51  1  0.69757366  0.65480293  0.22083189  1  -0.300588  -0.059714  3.360241  -0.075  -0.251308  -0.044689  3.662994  -0.059  -0.283715  -0.038583  3.688901  -0.054  -0.35156  -0.233158  -0.046512  3.64949  -0.06
N  N52  1  0.19758386  0.65482661  0.27917572  1  -0.30054  0.059677  3.360068  0.075  -0.251274  0.044674  3.662799  0.059  -0.283693  0.03857  3.688733  0.054  -0.351659  -0.23313  0.046496  3.649293  0.06
N  N53  1  0.30237893  0.34518199  0.77916536  1  -0.300492  -0.059737  3.359882  -0.075  -0.251336  -0.044736  3.66271  -0.06  -0.283751  -0.03863  3.688624  -0.054  -0.351664  -0.233185  -0.046549  3.649195  -0.06
Cl  Cl54  1  0.63525533  0.94821572  0.21007573  1  -0.55508  -0.122802  1.032921  -0.146  -0.574004  -0.077991  1.328856  -0.099  -0.610897  -0.059266  1.29261  -0.078  -0.2963  -0.550802  -0.086423  1.355109  -0.107
Cl  Cl55  1  0.86476846  0.05181424  0.71008990  1  -0.555004  0.122775  1.032938  0.146  -0.573926  0.077976  1.328905  0.099  -0.6108  0.059263  1.292621  0.078  -0.296225  -0.550729  0.086399  1.355142  0.107
Cl  Cl56  1  0.36468412  0.05175519  0.78991459  1  -0.554994  -0.122804  1.033162  -0.146  -0.573897  -0.077987  1.329147  -0.099  -0.610792  -0.059272  1.29289  -0.078  -0.296291  -0.550736  -0.086403  1.355409  -0.107
Cl  Cl57  1  0.13525848  0.94824419  0.28988195  1  -0.554925  0.122877  1.032511  0.146  -0.573916  0.078035  1.328417  0.099  -0.6108  0.059301  1.292191  0.078  -0.296254  -0.550691  0.086468  1.354644  0.107
O  O58  1  0.98281370  0.81021312  0.54628252  1  -0.600794  0.067316  2.120361  0.089  -0.565392  0.046159  2.391323  0.066  -0.602989  0.036072  2.378286  0.054  -0.315658  -0.538657  0.053153  2.399968  0.074
O  O59  1  0.51711924  0.18982597  0.04632118  1  -0.600623  -0.067338  2.119211  -0.089  -0.565201  -0.046184  2.389849  -0.066  -0.602821  -0.036083  2.37683  -0.054  -0.31547  -0.538496  -0.053186  2.398539  -0.074
O  O60  1  0.01720854  0.18982740  0.45368625  1  -0.600727  0.06735  2.119239  0.089  -0.565307  0.04619  2.390097  0.066  -0.602903  0.03609  2.377083  0.054  -0.315384  -0.538575  0.053197  2.398725  0.074
O  O61  1  0.48287251  0.81015612  0.95369454  1  -0.600626  -0.067371  2.119427  -0.089  -0.565186  -0.0462  2.390204  -0.066  -0.602823  -0.036099  2.377202  -0.054  -0.315507  -0.538452  -0.053199  2.398853  -0.074
O  O62  1  0.75971738  0.66504909  0.43205189  1  -0.58301  -0.054566  2.104761  -0.073  -0.548322  -0.04343  2.378835  -0.063  -0.589171  -0.03548  2.371644  -0.054  -0.3049  -0.522036  -0.047708  2.38403  -0.067
O  O63  1  0.74031898  0.33498163  0.93203481  1  -0.582854  0.054593  2.104528  0.073  -0.548376  0.043455  2.378746  0.063  -0.589271  0.035504  2.371551  0.055  -0.304925  -0.522064  0.047726  2.383898  0.067
O  O64  1  0.24042100  0.33504445  0.56796152  1  -0.582815  -0.05459  2.105038  -0.073  -0.548091  -0.043462  2.378974  -0.063  -0.588959  -0.035506  2.371819  -0.055  -0.304673  -0.52179  -0.047736  2.384133  -0.067
O  O65  1  0.25962033  0.66500597  0.06796013  1  -0.582925  0.054549  2.104774  0.072  -0.54833  0.043431  2.378932  0.063  -0.58919  0.035489  2.371737  0.055  -0.304914  -0.522035  0.047702  2.384108  0.067
O  O66  1  0.73123811  0.93273369  0.43611387  1  -0.828304  -0.024197  1.861374  -0.03  -0.836831  -0.012958  2.149951  -0.017  -0.902079  -0.011194  2.127623  -0.016  -0.592927  -0.79459  -0.010556  2.165684  -0.013
O  O67  1  0.76873239  0.06726653  0.93608722  1  -0.828194  0.024112  1.862136  0.03  -0.836635  0.012907  2.150677  0.017  -0.901945  0.011153  2.128531  0.016  -0.592866  -0.794418  0.010511  2.166446  0.013
O  O68  1  0.26878045  0.06728792  0.56386106  1  -0.828163  -0.024079  1.861778  -0.03  -0.836762  -0.012868  2.150212  -0.017  -0.901988  -0.011093  2.128216  -0.016  -0.592918  -0.794539  -0.01049  2.165951  -0.013
O  O69  1  0.23118718  0.93268805  0.06389926  1  -0.828396  0.0241  1.861642  0.03  -0.836885  0.012906  2.150121  0.017  -0.902173  0.011154  2.128004  0.016  -0.592855  -0.794654  0.010518  2.165881  0.013
