# generated using pymatgen
data_SbH16C8S2Br3N4
_symmetry_space_group_name_H-M   'P 1'
_cell_length_a   8.70309494
_cell_length_b   9.57248479
_cell_length_c   20.77210000
_cell_angle_alpha   90.00000000
_cell_angle_beta   90.00000000
_cell_angle_gamma   107.81744140
_symmetry_Int_Tables_number   1
_chemical_formula_structural   SbH16C8S2Br3N4
_chemical_formula_sum   'Sb4 H64 C32 S8 Br12 N16'
_cell_volume   1647.52614464
_cell_formula_units_Z   4
loop_
 _symmetry_equiv_pos_site_id
 _symmetry_equiv_pos_as_xyz
  1  'x, y, z'
loop_
 _atom_site_type_symbol
 _atom_site_label
 _atom_site_symmetry_multiplicity
 _atom_site_fract_x
 _atom_site_fract_y
 _atom_site_fract_z
 _atom_site_occupancy
 _atom_site_pbe_bader_charge
 _atom_site_pbe_bader_spin_density
 _atom_site_pbe_cm5_charge
 _atom_site_pbe_ddec_charge
 _atom_site_pbe_ddec_spin_density
 _atom_site_pbe_ddec_sum_bond_order
 _atom_site_pbe_magmom
Sb  Sb0  1  0.18157607  0.94966804  0.16816258  1  1.275235  0  0.370341  0.678594  0  3.304045  0
Sb  Sb1  1  0.31843057  0.05034810  0.66816018  1  1.275282  0  0.37031  0.678451  0  3.304112  0
Sb  Sb2  1  0.81843090  0.05034481  0.83183549  1  1.275303  0  0.370365  0.678614  0  3.303949  0
Sb  Sb3  1  0.68157340  0.94965926  0.33183694  1  1.275362  0  0.370267  0.678411  0  3.304284  0
H  H4  1  0.92203445  0.62800597  0.47266526  1  0.060373  0  0.105387  0.080848  0  0.999449  0
H  H5  1  0.57795554  0.37197945  0.97266574  1  0.060438  0  0.105396  0.080845  0  0.99948  0
H  H6  1  0.07793760  0.37198164  0.52732993  1  0.060513  0  0.105366  0.080879  0  0.999468  0
H  H7  1  0.42204852  0.62802133  0.02733426  1  0.060451  0  0.105418  0.08086  0  0.999453  0
H  H8  1  0.13201793  0.66683141  0.45832535  1  0.046693  0  0.093723  0.071785  0  0.987059  0
H  H9  1  0.36797296  0.33315839  0.95832294  1  0.047013  0  0.093728  0.07179  0  0.987091  0
H  H10  1  0.86796291  0.33315839  0.54167946  1  0.046914  0  0.093782  0.071845  0  0.987249  0
H  H11  1  0.63203073  0.66684129  0.04167658  1  0.046963  0  0.093738  0.071758  0  0.987117  0
H  H12  1  0.00219822  0.40968785  0.42620101  1  0.052822  0  0.093193  0.096801  0  1.02039  0
H  H13  1  0.49780108  0.59030305  0.92619957  1  0.052977  0  0.093144  0.096746  0  1.020337  0
H  H14  1  0.99778836  0.59030195  0.57379851  1  0.052922  0  0.093154  0.096789  0  1.020398  0
H  H15  1  0.50220680  0.40969883  0.07380140  1  0.053007  0  0.093131  0.096743  0  1.020353  0
H  H16  1  0.85141116  0.45688453  0.38231185  1  0.06665  0  0.083868  0.094181  0  1.032654  0
H  H17  1  0.64858724  0.54310198  0.88231281  1  0.066663  0  0.083887  0.094219  0  1.032799  0
H  H18  1  0.14858802  0.54310856  0.61768141  1  0.06671  0  0.083886  0.094197  0  1.032758  0
H  H19  1  0.35141760  0.45689770  0.11768574  1  0.066731  0  0.083889  0.094209  0  1.032769  0
H  H20  1  0.21206536  0.54565867  0.34793160  1  0.071906  0  0.093388  0.072769  0  1.001997  0
H  H21  1  0.28793816  0.45433114  0.84792823  1  0.071757  0  0.093429  0.072822  0  1.001997  0
H  H22  1  0.78793849  0.45432785  0.65207129  1  0.071593  0  0.093439  0.072795  0  1.002029  0
H  H23  1  0.71206360  0.54566964  0.15207321  1  0.071656  0  0.093435  0.072825  0  1.00201  0
H  H24  1  0.04786650  0.42481072  0.30454408  1  0.064772  0  0.102721  0.087385  0  0.997161  0
H  H25  1  0.45213858  0.57517689  0.80454071  1  0.064501  0  0.102711  0.087314  0  0.997065  0
H  H26  1  0.95213920  0.57518128  0.69545785  1  0.064828  0  0.102709  0.087322  0  0.997027  0
H  H27  1  0.54786277  0.42482608  0.19545929  1  0.064466  0  0.102728  0.087342  0  0.997048  0
H  H28  1  0.84183750  0.34344440  0.15115323  1  0.084426  0  0.093596  0.07647  0  1.011516  0
H  H29  1  0.65816073  0.65655528  0.65115227  1  0.084563  0  0.093594  0.076504  0  1.011495  0
H  H30  1  0.15815544  0.65655748  0.84885014  1  0.084575  0  0.093591  0.076526  0  1.01145  0
H  H31  1  0.34183421  0.34343891  0.34884821  1  0.084388  0  0.093597  0.076482  0  1.011555  0
H  H32  1  0.64457077  0.25358175  0.12060119  1  0.076313  0  0.101185  0.085124  0  1.003981  0
H  H33  1  0.85542710  0.74641683  0.62060312  1  0.076384  0  0.101198  0.085161  0  1.003993  0
H  H34  1  0.35542443  0.74642341  0.87939785  1  0.076404  0  0.101213  0.085163  0  1.003995  0
H  H35  1  0.14456986  0.25356968  0.37939640  1  0.076353  0  0.101227  0.085153  0  1.003928  0
H  H36  1  0.74756573  0.25083852  0.01122900  1  0.063713  0  0.083623  0.088619  0  1.030248  0
H  H37  1  0.75243943  0.74915786  0.51122804  1  0.063744  0  0.083612  0.088606  0  1.030275  0
H  H38  1  0.25243709  0.74916884  0.98877340  1  0.06361  0  0.08365  0.088653  0  1.030128  0
H  H39  1  0.24755441  0.25083304  0.48877100  1  0.063622  0  0.083627  0.088603  0  1.030139  0
H  H40  1  0.83401550  0.43312379  0.04114991  1  0.042649  0  0.094914  0.100646  0  1.004951  0
H  H41  1  0.66599234  0.56687369  0.54115231  1  0.042562  0  0.094921  0.100674  0  1.005032  0
H  H42  1  0.16599156  0.56688247  0.95885106  1  0.042682  0  0.09493  0.100658  0  1.005001  0
H  H43  1  0.33399957  0.43311831  0.45884817  1  0.042662  0  0.094925  0.100669  0  1.005007  0
H  H44  1  0.03060908  0.32276595  0.98387212  1  0.085406  0  0.09238  0.074003  0  1.036304  0
H  H45  1  0.46939067  0.67721947  0.48387356  1  0.085411  0  0.092388  0.074037  0  1.036309  0
H  H46  1  0.96938554  0.67722386  0.01612740  1  0.085364  0  0.092374  0.073984  0  1.036309  0
H  H47  1  0.53060042  0.32277692  0.51612933  1  0.085359  0  0.092378  0.074018  0  1.036307  0
H  H48  1  0.08956265  0.38779361  0.06405178  1  0.079337  0  0.093418  0.077962  0  1.002201  0
H  H49  1  0.41044469  0.61219729  0.56405274  1  0.079551  0  0.093446  0.078052  0  1.00225  0
H  H50  1  0.91044297  0.61220498  0.93594677  1  0.079627  0  0.093428  0.077937  0  1.002202  0
H  H51  1  0.58955054  0.38780458  0.43595063  1  0.079384  0  0.09343  0.077991  0  1.002167  0
H  H52  1  0.97996704  0.84576446  0.41189769  1  0.480546  0  0.28735  0.255802  0  1.000572  0
H  H53  1  0.52002446  0.15422205  0.91189817  1  0.480719  0  0.287342  0.255844  0  1.000611  0
H  H54  1  0.02003258  0.15422315  0.58809750  1  0.480633  0  0.287336  0.255851  0  1.000313  0
H  H55  1  0.47998226  0.84577982  0.08810135  1  0.480667  0  0.287363  0.255875  0  1.000514  0
H  H56  1  0.06756777  0.64460030  0.25100447  1  0.458267  0  0.271494  0.246832  0  1.04504  0
H  H57  1  0.43242926  0.35538731  0.75100255  1  0.458205  0  0.271459  0.246757  0  1.045106  0
H  H58  1  0.93244063  0.35538951  0.74899264  1  0.458229  0  0.271507  0.246771  0  1.045332  0
H  H59  1  0.56756979  0.64461566  0.24899745  1  0.458189  0  0.271483  0.246781  0  1.045026  0
H  H60  1  0.71827116  0.05368386  0.15845918  1  0.496729  0  0.27617  0.239564  0  1.04626  0
H  H61  1  0.78172630  0.94631691  0.65845774  1  0.496775  0  0.276125  0.23945  0  1.046297  0
H  H62  1  0.28171640  0.94631911  0.84154034  1  0.496849  0  0.276136  0.239495  0  1.046261  0
H  H63  1  0.21828474  0.05367728  0.34154034  1  0.496843  0  0.276137  0.239524  0  1.046188  0
H  H64  1  0.08625555  0.11868409  0.03236697  1  0.489319  0  0.288729  0.251439  0  1.01246  0
H  H65  1  0.41374186  0.88130462  0.53236312  1  0.489363  0  0.288734  0.25145  0  1.01251  0
H  H66  1  0.91374014  0.88131230  0.96763832  1  0.489274  0  0.288747  0.251399  0  1.012458  0
H  H67  1  0.58626294  0.11869835  0.46763832  1  0.489271  0  0.288746  0.251417  0  1.012489  0
C  C68  1  0.02532569  0.75586999  0.32872074  1  1.038107  0  0.246375  0.383106  0  4.133758  0
C  C69  1  0.47467286  0.24411871  0.82871977  1  1.038  0  0.246404  0.383061  0  4.133667  0
C  C70  1  0.97468592  0.24410884  0.67126867  1  1.037243  0  0.24635  0.383013  0  4.133724  0
C  C71  1  0.52533157  0.75588316  0.17127926  1  1.038019  0  0.246457  0.383155  0  4.133428  0
C  C72  1  0.01272599  0.63779490  0.43483808  1  0.306945  0  -0.060803  0.007173  0  3.894635  0
C  C73  1  0.48726756  0.36219600  0.93483663  1  0.306586  0  -0.060783  0.007339  0  3.894438  0
C  C74  1  0.98725944  0.36219491  0.56515855  1  0.306502  0  -0.060827  0.007091  0  3.894556  0
C  C75  1  0.51273687  0.63780587  0.06516337  1  0.306626  0  -0.06081  0.007357  0  3.894533  0
C  C76  1  0.97895282  0.49593054  0.39661758  1  -0.034074  0  -0.166771  -0.210913  0  3.932396  0
C  C77  1  0.52104475  0.50406036  0.89661517  1  -0.034214  0  -0.16671  -0.210945  0  3.932493  0
C  C78  1  0.02104138  0.50406146  0.60338001  1  -0.034175  0  -0.166753  -0.210912  0  3.932308  0
C  C79  1  0.47896082  0.49594151  0.10338483  1  -0.034289  0  -0.166683  -0.210874  0  3.932385  0
C  C80  1  0.08287360  0.52139537  0.33616486  1  0.295032  0  -0.059442  0.006119  0  3.866553  0
C  C81  1  0.41712840  0.47859334  0.83616149  1  0.295427  0  -0.059585  0.006034  0  3.866638  0
C  C82  1  0.91713439  0.47859663  0.66383563  1  0.295141  0  -0.059564  0.006085  0  3.86684  0
C  C83  1  0.58287295  0.52140963  0.16383900  1  0.29556  0  -0.059605  0.00597  0  3.866724  0
C  C84  1  0.90205165  0.07557811  0.09538901  1  1.067469  0  0.248131  0.373291  0  4.124043  0
C  C85  1  0.59794662  0.92441828  0.59538564  1  1.067579  0  0.248028  0.373257  0  4.124368  0
C  C86  1  0.09794666  0.92442267  0.90461436  1  1.06749  0  0.247992  0.373149  0  4.124159  0
C  C87  1  0.40205362  0.07558140  0.40461436  1  1.067449  0  0.247997  0.373189  0  4.124239  0
C  C88  1  0.77334454  0.26617646  0.11449396  1  0.276015  0  -0.063596  -0.00869  0  3.885517  0
C  C89  1  0.72665751  0.73382432  0.61449396  1  0.275454  0  -0.063637  -0.008805  0  3.885466  0
C  C90  1  0.22665525  0.73382871  0.88550652  1  0.275546  0  -0.063692  -0.008891  0  3.885451  0
C  C91  1  0.27334088  0.26616987  0.38550508  1  0.27585  0  -0.0637  -0.008834  0  3.885454  0
C  C92  1  0.83093222  0.31846018  0.04693555  1  -0.020335  0  -0.166581  -0.201549  0  3.925311  0
C  C93  1  0.66907144  0.68153511  0.54693315  1  -0.020252  0  -0.166573  -0.201541  0  3.92526  0
C  C94  1  0.16907065  0.68154389  0.95306878  1  -0.020339  0  -0.166601  -0.201589  0  3.925092  0
C  C95  1  0.33092392  0.31845689  0.45306685  1  -0.019928  0  -0.166597  -0.201572  0  3.925087  0
C  C96  1  0.99913399  0.30608274  0.03512789  1  0.257554  0  -0.06356  0.002839  0  3.868239  0
C  C97  1  0.50086400  0.69390597  0.53512885  1  0.257298  0  -0.063582  0.002792  0  3.868396  0
C  C98  1  0.00086248  0.69391255  0.96487307  1  0.257332  0  -0.063551  0.002997  0  3.868087  0
C  C99  1  0.49913054  0.30609042  0.46487356  1  0.257162  0  -0.063565  0.002861  0  3.868238  0
S  S100  1  0.00756422  0.90413376  0.28475551  1  -0.286742  0  -0.134926  -0.378404  0  2.596959  0
S  S101  1  0.49243319  0.09585495  0.78475359  1  -0.286484  0  -0.13496  -0.378375  0  2.596879  0
S  S102  1  0.99244148  0.09585824  0.71524304  1  -0.286306  0  -0.134929  -0.378381  0  2.597068  0
S  S103  1  0.50756701  0.90414802  0.21524449  1  -0.286555  0  -0.13497  -0.37843  0  2.596847  0
S  S104  1  0.90976479  0.89833567  0.11043274  1  -0.242289  0  -0.114408  -0.299888  0  2.54784  0
S  S105  1  0.59023919  0.10166401  0.61042889  1  -0.242296  0  -0.114363  -0.299821  0  2.547854  0
S  S106  1  0.09023045  0.10166620  0.88956918  1  -0.242336  0  -0.114382  -0.299835  0  2.547796  0
S  S107  1  0.40977250  0.89833896  0.38957159  1  -0.24233  0  -0.114344  -0.299798  0  2.547844  0
Br  Br108  1  0.18585478  0.22337772  0.20479537  1  -0.539918  0  -0.206159  -0.348345  0  1.213179  0
Br  Br109  1  0.31413126  0.77663183  0.70479056  1  -0.540041  0  -0.20614  -0.348319  0  1.213178  0
Br  Br110  1  0.81413581  0.77662745  0.79520607  1  -0.539996  0  -0.206148  -0.348341  0  1.213128  0
Br  Br111  1  0.68585434  0.22337553  0.29520366  1  -0.539963  0  -0.206171  -0.348344  0  1.213189  0
Br  Br112  1  0.08634256  0.63973820  0.14105266  1  -0.598609  0  -0.219451  -0.410933  0  1.214547  0
Br  Br113  1  0.41366617  0.36029440  0.64106229  1  -0.598484  0  -0.21947  -0.410904  0  1.214437  0
Br  Br114  1  0.91368033  0.36028781  0.85893915  1  -0.598562  0  -0.2195  -0.410924  0  1.214401  0
Br  Br115  1  0.58633452  0.63973052  0.35894397  1  -0.598641  0  -0.219438  -0.410873  0  1.214553  0
Br  Br116  1  0.35068107  0.04676983  0.05416978  1  -0.582313  0  -0.214568  -0.393971  0  1.23845  0
Br  Br117  1  0.14934334  0.95329568  0.55415630  1  -0.582431  0  -0.214538  -0.393959  0  1.238517  0
Br  Br118  1  0.64934437  0.95329788  0.94583648  1  -0.58237  0  -0.214549  -0.393959  0  1.238444  0
Br  Br119  1  0.85065924  0.04670070  0.44583889  1  -0.582361  0  -0.214541  -0.393933  0  1.2385  0
N  N120  1  0.00689131  0.75785828  0.39257417  1  -1.239988  0  -0.418746  -0.313178  0  3.593066  0
N  N121  1  0.49310458  0.24212933  0.89257514  1  -1.240188  0  -0.418821  -0.313444  0  3.593119  0
N  N122  1  0.99310471  0.24214249  0.60742871  1  -1.240139  0  -0.418707  -0.313028  0  3.593029  0
N  N123  1  0.50690177  0.75787145  0.10742438  1  -1.240135  0  -0.418865  -0.31346  0  3.59309  0
N  N124  1  0.05942470  0.64456957  0.30041787  1  -1.196928  0  -0.410717  -0.294311  0  3.570768  0
N  N125  1  0.44057657  0.35541694  0.80041787  1  -1.197058  0  -0.410571  -0.29407  0  3.570929  0
N  N126  1  0.94058281  0.35543120  0.69958598  1  -1.196262  0  -0.410703  -0.294332  0  3.570603  0
N  N127  1  0.55942404  0.64458384  0.19958309  1  -1.197009  0  -0.410607  -0.294099  0  3.570891  0
N  N128  1  0.79330428  0.12240281  0.12570900  1  -1.241808  0  -0.405305  -0.279952  0  3.591075  0
N  N129  1  0.70669165  0.87759687  0.62570708  1  -1.241522  0  -0.405243  -0.279837  0  3.591161  0
N  N130  1  0.20668521  0.87759906  0.87429292  1  -1.241578  0  -0.405131  -0.27975  0  3.590982  0
N  N131  1  0.29331589  0.12240061  0.37429244  1  -1.241588  0  -0.405146  -0.279796  0  3.590966  0
N  N132  1  0.00094962  0.15882848  0.05208766  1  -1.25321  0  -0.414975  -0.311251  0  3.624993  0
N  N133  1  0.49904586  0.84116132  0.55208621  1  -1.253337  0  -0.414882  -0.31127  0  3.625339  0
N  N134  1  0.99904492  0.84116791  0.94791620  1  -1.253256  0  -0.414916  -0.311152  0  3.624953  0
N  N135  1  0.50095935  0.15883945  0.44791571  1  -1.253221  0  -0.414917  -0.311179  0  3.625164  0
