# generated using pymatgen
data_Al2H21C30(NO4)3
_symmetry_space_group_name_H-M   'P 1'
_cell_length_a   3.96062637
_cell_length_b   17.22293839
_cell_length_c   17.22292763
_cell_angle_alpha   120.00013683
_cell_angle_beta   90.00009091
_cell_angle_gamma   89.99979222
_symmetry_Int_Tables_number   1
_chemical_formula_structural   Al2H21C30(NO4)3
_chemical_formula_sum   'Al2 H21 C30 N3 O12'
_cell_volume   1017.43841727
_cell_formula_units_Z   1
loop_
 _symmetry_equiv_pos_site_id
 _symmetry_equiv_pos_as_xyz
  1  'x, y, z'
loop_
 _atom_site_type_symbol
 _atom_site_label
 _atom_site_symmetry_multiplicity
 _atom_site_fract_x
 _atom_site_fract_y
 _atom_site_fract_z
 _atom_site_occupancy
 _atom_site_pbe_bader_charge
 _atom_site_pbe_bader_spin_density
 _atom_site_pbe_cm5_charge
 _atom_site_pbe_ddec_charge
 _atom_site_pbe_ddec_spin_density
 _atom_site_pbe_ddec_sum_bond_order
 _atom_site_pbe_magmom
Al  Al0  1  0.98913159  0.49999989  0.49999983  1  2.501621  0  0.422015  1.587896  0  2.580048  0
Al  Al1  1  0.00933322  0.16666608  0.83333216  1  2.502744  0  0.42448  1.586358  0  2.585792  0
H  H2  1  0.50824221  0.41836409  0.83544589  1  0.015863  0  0.104429  0.117161  0  0.991156  0
H  H3  1  0.27027119  0.11207838  0.52717076  1  0.040521  0  0.089325  0.092231  0  1.017454  0
H  H4  1  0.72052322  0.11092011  0.52805014  1  0.035729  0  0.089352  0.091721  0  1.015162  0
H  H5  1  0.73059391  0.19710389  0.44578777  1  0.043674  0  0.088699  0.091765  0  1.01877  0
H  H6  1  0.28005405  0.19821927  0.44522418  1  0.036043  0  0.089153  0.092693  0  1.015238  0
H  H7  1  0.50825006  0.91708259  0.58163693  1  0.066994  0  0.104415  0.117154  0  0.991145  0
H  H8  1  0.27027102  0.91509539  0.88792282  1  0.036259  0  0.089331  0.092228  0  1.017495  0
H  H9  1  0.72052303  0.91713164  0.88908096  1  0.028531  0  0.089346  0.091723  0  1.015136  0
H  H10  1  0.73059320  0.74868411  0.80289542  1  0.04394  0  0.088702  0.091792  0  1.018749  0
H  H11  1  0.28005336  0.74700623  0.80178187  1  0.045277  0  0.089155  0.092706  0  1.015234  0
H  H12  1  0.50824433  0.16455461  0.08291567  1  0.067995  0  0.104405  0.117157  0  0.991148  0
H  H13  1  0.27027195  0.47282689  0.08490469  1  0.03936  0  0.089318  0.092216  0  1.017456  0
H  H14  1  0.72052396  0.47194827  0.08286839  1  0.033116  0  0.089346  0.091709  0  1.015123  0
H  H15  1  0.73059297  0.55421175  0.25131539  1  0.050031  0  0.088714  0.091779  0  1.018787  0
H  H16  1  0.28005060  0.55477632  0.25299338  1  0.044023  0  0.089143  0.0927  0  1.015246  0
H  H17  1  0.47457691  0.55685281  0.73223449  1  0.431254  0  0.299726  0.30018  0  0.965617  0
H  H18  1  0.58056552  0.55347824  0.82558348  1  0.42687  0  0.300795  0.292525  0  0.953926  0
H  H19  1  0.47457756  0.67538155  0.44314650  1  0.419781  0  0.299726  0.300162  0  0.965626  0
H  H20  1  0.58056509  0.77210536  0.44652189  1  0.420345  0  0.300765  0.292414  0  0.954077  0
H  H21  1  0.47456779  0.26776663  0.32461784  1  0.479399  0  0.29972  0.30019  0  0.965616  0
H  H22  1  0.58056408  0.17441808  0.22789496  1  0.415607  0  0.300771  0.29243  0  0.954072  0
C  C23  1  0.49038483  0.42958438  0.36203827  1  1.539419  0  0.276945  0.678549  0  4.053673  0
C  C24  1  0.49038801  0.43245397  0.57041549  1  1.529779  0  0.276855  0.678383  0  4.053974  0
C  C25  1  0.49038637  0.63796103  0.56754551  1  1.531094  0  0.276864  0.678447  0  4.053952  0
C  C26  1  0.50919782  0.23787232  0.76678802  1  1.589949  0  0.282746  0.672945  0  4.047691  0
C  C27  1  0.50920451  0.02891529  0.76212838  1  1.590886  0  0.282738  0.672909  0  4.047828  0
C  C28  1  0.50919851  0.23321281  0.97108422  1  1.530192  0  0.282776  0.672981  0  4.047631  0
C  C29  1  0.50570539  0.28784107  0.71709674  1  0.037451  0  -0.003073  -0.046134  0  3.999044  0
C  C30  1  0.49183529  0.38469321  0.62164030  1  -0.020245  0  -0.022195  -0.200579  0  3.944536  0
C  C31  1  0.49727495  0.24371902  0.62372390  1  -0.002019  0  -0.01989  0.022756  0  3.916442  0
C  C32  1  0.48244783  0.43091526  0.71702396  1  0.461445  0  0.104301  0.294215  0  4.051487  0
C  C33  1  0.50389207  0.29151455  0.57840292  1  -0.030058  0  -0.007948  0.07179  0  3.929204  0
C  C34  1  0.50429340  0.38169621  0.76227974  1  -0.02254  0  -0.094943  -0.220498  0  3.932463  0
C  C35  1  0.49746224  0.15301664  0.53846749  1  0.002584  0  -0.152098  -0.186057  0  3.877504  0
C  C36  1  0.50407423  0.20735233  0.48664119  1  -0.061954  0  -0.153171  -0.192421  0  3.871706  0
C  C37  1  0.50571290  0.92925542  0.71215910  1  -0.068997  0  -0.003029  -0.046061  0  3.999111  0
C  C38  1  0.49183753  0.73694686  0.61530616  1  0.108583  0  -0.022182  -0.200609  0  3.944504  0
C  C39  1  0.49727790  0.88000512  0.75628141  1  0.104956  0  -0.019879  0.022769  0  3.916474  0
C  C40  1  0.48245211  0.78610885  0.56908554  1  0.398886  0  0.104339  0.29431  0  4.051567  0
C  C41  1  0.50389108  0.78688854  0.70848676  1  -0.223393  0  -0.007938  0.071792  0  3.929216  0
C  C42  1  0.50430412  0.88058307  0.61830488  1  0.098466  0  -0.094965  -0.220583  0  3.932567  0
C  C43  1  0.49746246  0.88545172  0.84698360  1  0.0186  0  -0.152087  -0.186043  0  3.87746  0
C  C44  1  0.50407320  0.77928947  0.79264791  1  -0.074735  0  -0.153195  -0.192488  0  3.871702  0
C  C45  1  0.50570840  0.28290321  0.07074309  1  0.009071  0  -0.003025  -0.046053  0  3.998989  0
C  C46  1  0.49183419  0.37835964  0.26305247  1  0.085735  0  -0.022188  -0.200631  0  3.944486  0
C  C47  1  0.49727985  0.37627616  0.11999420  1  0.095057  0  -0.019863  0.022741  0  3.916369  0
C  C48  1  0.48244486  0.28297677  0.21389059  1  0.383737  0  0.104304  0.294262  0  4.051546  0
C  C49  1  0.50388733  0.42159802  0.21311132  1  -0.039261  0  -0.007935  0.071841  0  3.929135  0
C  C50  1  0.50429247  0.23772092  0.11941614  1  -0.092925  0  -0.094967  -0.220599  0  3.932435  0
C  C51  1  0.49746600  0.46153226  0.11454808  1  -0.071062  0  -0.15206  -0.185976  0  3.877432  0
C  C52  1  0.50407094  0.51335881  0.22071007  1  0.000938  0  -0.153212  -0.192509  0  3.871779  0
N  N53  1  0.45050786  0.52380661  0.76698081  1  -1.181783  0  -0.602827  -0.634265  0  3.307515  0
N  N54  1  0.45051276  0.74317449  0.47619373  1  -1.209552  0  -0.60282  -0.634156  0  3.307726  0
N  N55  1  0.45050095  0.23301959  0.25682463  1  -1.224432  0  -0.602813  -0.634193  0  3.307699  0
O  O56  1  0.72298884  0.59867663  0.58658238  1  -1.24742  0  -0.239916  -0.60102  0  2.340148  0
O  O57  1  0.72299165  0.48790502  0.40132246  1  -1.251675  0  -0.23992  -0.601049  0  2.340043  0
O  O58  1  0.72299007  0.41341719  0.51209350  1  -1.247761  0  -0.239913  -0.600986  0  2.340119  0
O  O59  1  0.25652703  0.59728685  0.50976016  1  -1.259827  0  -0.239133  -0.603863  0  2.357229  0
O  O60  1  0.25652561  0.49023967  0.58752667  1  -1.255385  0  -0.239112  -0.603848  0  2.357272  0
O  O61  1  0.25653068  0.41247373  0.40271303  1  -1.261343  0  -0.23921  -0.603935  0  2.357158  0
O  O62  1  0.74416167  0.17629712  0.93114155  1  -1.254839  0  -0.236826  -0.597298  0  2.346401  0
O  O63  1  0.74415565  0.25484582  0.82370328  1  -1.251403  0  -0.236786  -0.597277  0  2.346456  0
O  O64  1  0.74415940  0.06885819  0.74515477  1  -1.254723  0  -0.236816  -0.597313  0  2.346539  0
O  O65  1  0.27509385  0.25210047  0.93229289  1  -1.246088  0  -0.235586  -0.594394  0  2.343209  0
O  O66  1  0.27510253  0.06770832  0.81980704  1  -1.242811  0  -0.235586  -0.594352  0  2.343271  0
O  O67  1  0.27509383  0.18019293  0.74789969  1  -1.245573  0  -0.235593  -0.594393  0  2.34321  0
