# generated using pymatgen
data_ZnH8C6N2O7
_symmetry_space_group_name_H-M   'P 1'
_cell_length_a   5.33458166
_cell_length_b   10.78929842
_cell_length_c   15.51022778
_cell_angle_alpha   90.00004179
_cell_angle_beta   89.99987355
_cell_angle_gamma   93.78016950
_symmetry_Int_Tables_number   1
_chemical_formula_structural   ZnH8C6N2O7
_chemical_formula_sum   'Zn4 H32 C24 N8 O28'
_cell_volume   890.77053958
_cell_formula_units_Z   4
loop_
 _symmetry_equiv_pos_site_id
 _symmetry_equiv_pos_as_xyz
  1  'x, y, z'
loop_
 _atom_site_type_symbol
 _atom_site_label
 _atom_site_symmetry_multiplicity
 _atom_site_fract_x
 _atom_site_fract_y
 _atom_site_fract_z
 _atom_site_occupancy
 _atom_site_hle17_bader_spin_density
 _atom_site_hle17_ddec_charge
 _atom_site_hle17_ddec_spin_density
 _atom_site_hle17_ddec_sum_bond_order
 _atom_site_hle17_magmom
 _atom_site_hse06_10hf_bader_spin_density
 _atom_site_hse06_10hf_ddec_charge
 _atom_site_hse06_10hf_ddec_spin_density
 _atom_site_hse06_10hf_ddec_sum_bond_order
 _atom_site_hse06_10hf_magmom
 _atom_site_hse06_bader_spin_density
 _atom_site_hse06_ddec_charge
 _atom_site_hse06_ddec_spin_density
 _atom_site_hse06_ddec_sum_bond_order
 _atom_site_hse06_magmom
 _atom_site_pbe_bader_spin_density
 _atom_site_pbe_cm5_charge
 _atom_site_pbe_ddec_charge
 _atom_site_pbe_ddec_spin_density
 _atom_site_pbe_ddec_sum_bond_order
 _atom_site_pbe_magmom
Zn  Zn0  1  0.54727720  0.30473147  0.36306419  1  0  1.146443  0  1.70319  0  0  0.978287  0  2.145916  0  0  1.025501  0  2.088548  0  0  0.682021  0.945058  0  2.185421  0
Zn  Zn1  1  0.95271716  0.19527029  0.86306570  1  0  1.146468  0  1.703103  0  0  0.978309  0  2.145848  0  0  1.025522  0  2.088483  0  0  0.682021  0.945084  0  2.185328  0
Zn  Zn2  1  0.45272607  0.69526212  0.63693523  1  0  1.146428  0  1.7032  0  0  0.97825  0  2.145957  0  0  1.025465  0  2.08859  0  0  0.68201  0.945019  0  2.185463  0
Zn  Zn3  1  0.04727284  0.80473900  0.13693630  1  0  1.146361  0  1.703096  0  0  0.978198  0  2.145844  0  0  1.025411  0  2.088479  0  0  0.681967  0.944969  0  2.185346  0
H  H4  1  0.35648150  0.04426830  0.75456843  1  0  0.110335  0  0.953662  0  0  0.114828  0  1.020544  0  0  0.118543  0  1.017409  0  0  0.121629  0.112058  0  1.022974  0
H  H5  1  0.14351883  0.45573239  0.25456952  1  0  0.110337  0  0.953672  0  0  0.114818  0  1.020567  0  0  0.11853  0  1.017436  0  0  0.12163  0.112052  0  1.023  0
H  H6  1  0.64351300  0.95573080  0.24543873  1  0  0.110241  0  0.953868  0  0  0.114825  0  1.020641  0  0  0.118543  0  1.0175  0  0  0.121635  0.112055  0  1.023072  0
H  H7  1  0.85648141  0.54426768  0.74543635  1  0  0.110278  0  0.953822  0  0  0.114899  0  1.020562  0  0  0.118616  0  1.017422  0  0  0.121662  0.11213  0  1.022989  0
H  H8  1  0.41367018  0.00385960  0.59531993  1  0  0.107881  0  0.925947  0  0  0.114221  0  0.988939  0  0  0.117543  0  0.986097  0  0  0.12588  0.111753  0  0.991154  0
H  H9  1  0.08633123  0.49614098  0.09532044  1  0  0.107808  0  0.92603  0  0  0.114205  0  0.98896  0  0  0.117527  0  0.986119  0  0  0.125879  0.11174  0  0.991176  0
H  H10  1  0.58633593  0.99612566  0.40468787  1  0  0.107913  0  0.925964  0  0  0.114223  0  0.988976  0  0  0.11754  0  0.986146  0  0  0.125928  0.111755  0  0.991189  0
H  H11  1  0.91367251  0.50387396  0.90468479  1  0  0.107874  0  0.925977  0  0  0.114244  0  0.988944  0  0  0.117563  0  0.986109  0  0  0.125928  0.111777  0  0.991161  0
H  H12  1  0.21255185  0.13837509  0.43719470  1  0  0.397793  0  0.900076  0  0  0.355855  0  0.99271  0  0  0.366873  0  0.976829  0  0  0.28446  0.348049  0  1.003933  0
H  H13  1  0.28744527  0.36162479  0.93719513  1  0  0.397779  0  0.900108  0  0  0.355844  0  0.992722  0  0  0.366864  0  0.976835  0  0  0.284457  0.34804  0  1.003945  0
H  H14  1  0.78744944  0.86161756  0.56280601  1  0  0.397754  0  0.90013  0  0  0.355795  0  0.992799  0  0  0.366813  0  0.976919  0  0  0.284441  0.34799  0  1.004023  0
H  H15  1  0.71254452  0.63838264  0.06280880  1  0  0.397704  0  0.900239  0  0  0.355729  0  0.992881  0  0  0.366749  0  0.976995  0  0  0.284399  0.347925  0  1.004101  0
H  H16  1  0.09041333  0.17177875  0.34616643  1  0  0.425015  0  0.873878  0  0  0.39203  0  0.94036  0  0  0.403121  0  0.924427  0  0  0.288552  0.384169  0  0.951651  0
H  H17  1  0.40958796  0.32821923  0.84616676  1  0  0.425003  0  0.873895  0  0  0.39202  0  0.940374  0  0  0.403111  0  0.924442  0  0  0.288552  0.384163  0  0.95166  0
H  H18  1  0.90958639  0.82821667  0.65383363  1  0  0.425053  0  0.873836  0  0  0.392054  0  0.940337  0  0  0.403145  0  0.924405  0  0  0.288567  0.38419  0  0.951632  0
H  H19  1  0.59040183  0.67178820  0.15383589  1  0  0.424975  0  0.873954  0  0  0.392132  0  0.940235  0  0  0.403221  0  0.924305  0  0  0.288606  0.384272  0  0.951527  0
H  H20  1  0.19911869  0.41388787  0.45847300  1  0  0.4436  0  0.859368  0  0  0.411007  0  0.924332  0  0  0.421553  0  0.909145  0  0  0.300718  0.403552  0  0.935067  0
H  H21  1  0.30088757  0.08611116  0.95847327  1  0  0.443559  0  0.85941  0  0  0.410967  0  0.92437  0  0  0.421515  0  0.909181  0  0  0.300707  0.403508  0  0.935114  0
H  H22  1  0.80087302  0.58610287  0.54152255  1  0  0.443643  0  0.859313  0  0  0.411026  0  0.924308  0  0  0.421573  0  0.90912  0  0  0.300761  0.403576  0  0.935035  0
H  H23  1  0.69912058  0.91389267  0.04152035  1  0  0.443652  0  0.859282  0  0  0.411035  0  0.92428  0  0  0.42158  0  0.909095  0  0  0.300723  0.403576  0  0.935022  0
H  H24  1  0.36563678  0.52059481  0.40854592  1  0  0.441722  0  0.853898  0  0  0.410596  0  0.91751  0  0  0.42027  0  0.903441  0  0  0.30556  0.40373  0  0.927505  0
H  H25  1  0.13436553  0.97940282  0.90854588  1  0  0.441661  0  0.853975  0  0  0.410543  0  0.917575  0  0  0.420217  0  0.903506  0  0  0.305531  0.403673  0  0.927574  0
H  H26  1  0.63436056  0.47939596  0.59145286  1  0  0.441632  0  0.853996  0  0  0.410531  0  0.917603  0  0  0.420211  0  0.903524  0  0  0.305522  0.403664  0  0.9276  0
H  H27  1  0.86564282  0.02060286  0.09144581  1  0  0.441572  0  0.854081  0  0  0.410494  0  0.917618  0  0  0.420169  0  0.903551  0  0  0.305523  0.403625  0  0.927616  0
H  H28  1  0.88573364  0.52080861  0.39372777  1  0  0.416957  0  0.869303  0  0  0.383037  0  0.952005  0  0  0.393903  0  0.93592  0  0  0.292284  0.375297  0  0.963441  0
H  H29  1  0.61425698  0.97918161  0.89372581  1  0  0.417003  0  0.869105  0  0  0.383112  0  0.951876  0  0  0.393965  0  0.935801  0  0  0.292367  0.37537  0  0.963316  0
H  H30  1  0.11426827  0.47918961  0.60626972  1  0  0.416966  0  0.869224  0  0  0.383087  0  0.951937  0  0  0.393938  0  0.935857  0  0  0.292328  0.375344  0  0.963377  0
H  H31  1  0.38573139  0.02081282  0.10627297  1  0  0.416982  0  0.869231  0  0  0.38307  0  0.95193  0  0  0.393933  0  0.93585  0  0  0.292292  0.37533  0  0.963362  0
H  H32  1  0.69225879  0.55898597  0.32547740  1  0  0.414868  0  0.876057  0  0  0.384882  0  0.946285  0  0  0.395355  0  0.931109  0  0  0.288605  0.377503  0  0.956965  0
H  H33  1  0.80773989  0.94100517  0.82547915  1  0  0.414889  0  0.875962  0  0  0.384851  0  0.946326  0  0  0.395326  0  0.931146  0  0  0.288618  0.377466  0  0.957014  0
H  H34  1  0.30773687  0.44100664  0.67452009  1  0  0.414925  0  0.875941  0  0  0.384888  0  0.946276  0  0  0.395363  0  0.931097  0  0  0.288635  0.377505  0  0.956962  0
H  H35  1  0.19225827  0.05899303  0.17452221  1  0  0.414873  0  0.875963  0  0  0.384899  0  0.946231  0  0  0.395374  0  0.931053  0  0  0.288649  0.377516  0  0.956916  0
C  C36  1  0.96224276  0.19531576  0.58682088  1  0  0.085725  0  3.675997  0  0  0.08096  0  3.927859  0  0  0.082638  0  3.941825  0  0  0.137104  0.079321  0  3.919185  0
C  C37  1  0.53777500  0.30469428  0.08682067  1  0  0.085542  0  3.675923  0  0  0.080977  0  3.927621  0  0  0.082679  0  3.941582  0  0  0.137041  0.079336  0  3.918963  0
C  C38  1  0.03777207  0.80468069  0.41317919  1  0  0.085494  0  3.676091  0  0  0.080791  0  3.927905  0  0  0.082474  0  3.941867  0  0  0.136998  0.079156  0  3.91923  0
C  C39  1  0.46223041  0.69531881  0.91317875  1  0  0.085527  0  3.676059  0  0  0.080893  0  3.927785  0  0  0.082584  0  3.941757  0  0  0.137003  0.079254  0  3.919117  0
C  C40  1  0.91539321  0.21063620  0.67495823  1  0  0.03402  0  3.700199  0  0  0.034176  0  3.939351  0  0  0.031756  0  3.958385  0  0  0.120665  0.035273  0  3.927182  0
C  C41  1  0.58461427  0.28937106  0.17495862  1  0  0.0342  0  3.700222  0  0  0.03409  0  3.939618  0  0  0.031633  0  3.958696  0  0  0.120646  0.035193  0  3.92745  0
C  C42  1  0.08461057  0.78936203  0.32504119  1  0  0.034059  0  3.700176  0  0  0.03415  0  3.93936  0  0  0.031722  0  3.958403  0  0  0.120647  0.035248  0  3.927193  0
C  C43  1  0.41538272  0.71063363  0.82504209  1  0  0.033987  0  3.700211  0  0  0.034079  0  3.939381  0  0  0.031631  0  3.958452  0  0  0.120608  0.03518  0  3.927212  0
C  C44  1  0.23725541  0.08434426  0.70612045  1  0  0.100565  0  3.609166  0  0  0.065883  0  3.870194  0  0  0.06988  0  3.884175  0  0  0.060899  0.062829  0  3.861176  0
C  C45  1  0.26275138  0.41566107  0.20612208  1  0  0.10054  0  3.609187  0  0  0.065873  0  3.870185  0  0  0.069873  0  3.88416  0  0  0.060908  0.062815  0  3.861181  0
C  C46  1  0.76274274  0.91565394  0.29388413  1  0  0.100697  0  3.60956  0  0  0.065973  0  3.870539  0  0  0.06997  0  3.884518  0  0  0.060983  0.062921  0  3.861519  0
C  C47  1  0.73725757  0.58435018  0.79388121  1  0  0.100601  0  3.609265  0  0  0.065838  0  3.87033  0  0  0.069836  0  3.884307  0  0  0.060908  0.062789  0  3.861311  0
C  C48  1  0.27342045  0.06535331  0.61782192  1  0  0.121617  0  3.613124  0  0  0.087915  0  3.885674  0  0  0.092965  0  3.897106  0  0  0.07122  0.084465  0  3.878246  0
C  C49  1  0.22658288  0.43464915  0.11782230  1  0  0.121731  0  3.613116  0  0  0.087949  0  3.885702  0  0  0.093001  0  3.897135  0  0  0.071206  0.0845  0  3.878279  0
C  C50  1  0.72658835  0.93463938  0.38218395  1  0  0.121661  0  3.613037  0  0  0.087945  0  3.885651  0  0  0.092996  0  3.897078  0  0  0.071211  0.084499  0  3.87822  0
C  C51  1  0.77342055  0.56536300  0.88217971  1  0  0.121739  0  3.612905  0  0  0.087943  0  3.885599  0  0  0.092994  0  3.897029  0  0  0.071212  0.084493  0  3.878178  0
C  C52  1  0.84411776  0.26947534  0.51741062  1  0  0.653516  0  3.938814  0  0  0.588455  0  4.251104  0  0  0.6242  0  4.239767  0  0  0.2208  0.564084  0  4.258128  0
C  C53  1  0.65589454  0.23053183  0.01741092  1  0  0.653573  0  3.938974  0  0  0.588463  0  4.251264  0  0  0.624208  0  4.239925  0  0  0.220749  0.564083  0  4.258296  0
C  C54  1  0.15589991  0.73051277  0.48258687  1  0  0.653363  0  3.938977  0  0  0.588231  0  4.251344  0  0  0.623977  0  4.240014  0  0  0.220679  0.563862  0  4.25836  0
C  C55  1  0.34409358  0.76947745  0.98258850  1  0  0.653369  0  3.939012  0  0  0.588201  0  4.251425  0  0  0.623933  0  4.240103  0  0  0.220671  0.563823  0  4.258449  0
C  C56  1  0.70740282  0.28567115  0.70980243  1  0  0.634181  0  3.91866  0  0  0.572387  0  4.228609  0  0  0.60553  0  4.223115  0  0  0.217268  0.550025  0  4.231621  0
C  C57  1  0.79259485  0.21433423  0.20980392  1  0  0.634161  0  3.918847  0  0  0.572378  0  4.228888  0  0  0.605534  0  4.223389  0  0  0.217284  0.550013  0  4.231896  0
C  C58  1  0.29260689  0.71432990  0.29019442  1  0  0.634268  0  3.918857  0  0  0.572501  0  4.228796  0  0  0.605646  0  4.2233  0  0  0.217342  0.550139  0  4.231807  0
C  C59  1  0.20739028  0.78566482  0.79019550  1  0  0.634217  0  3.918942  0  0  0.572429  0  4.228907  0  0  0.605578  0  4.223412  0  0  0.21739  0.550059  0  4.231914  0
N  N60  1  0.13852892  0.12129894  0.55844246  1  0  -0.26204  0  3.066992  0  0  -0.22226  0  3.327321  0  0  -0.230137  0  3.338525  0  0  -0.275271  -0.216917  0  3.320113  0
N  N61  1  0.36147461  0.37870162  0.05844335  1  0  -0.262072  0  3.066939  0  0  -0.222319  0  3.32723  0  0  -0.230202  0  3.338431  0  0  -0.275285  -0.216969  0  3.320021  0
N  N62  1  0.86147562  0.87868909  0.44156148  1  0  -0.262016  0  3.066941  0  0  -0.222229  0  3.327243  0  0  -0.230103  0  3.338443  0  0  -0.2753  -0.216881  0  3.320029  0
N  N63  1  0.63852299  0.62130864  0.94155736  1  0  -0.262068  0  3.066988  0  0  -0.222282  0  3.327272  0  0  -0.230161  0  3.338473  0  0  -0.275317  -0.216936  0  3.320067  0
N  N64  1  0.05752324  0.15572327  0.73328777  1  0  -0.280083  0  3.274334  0  0  -0.212236  0  3.532867  0  0  -0.224915  0  3.548381  0  0  -0.296975  -0.203394  0  3.522613  0
N  N65  1  0.44248149  0.34428207  0.23328858  1  0  -0.280112  0  3.274521  0  0  -0.212147  0  3.533047  0  0  -0.224815  0  3.548567  0  0  -0.296896  -0.203305  0  3.522799  0
N  N66  1  0.94247354  0.84427956  0.26671294  1  0  -0.280124  0  3.274574  0  0  -0.212263  0  3.533152  0  0  -0.224941  0  3.548667  0  0  -0.29698  -0.203419  0  3.5229  0
N  N67  1  0.55752102  0.65572172  0.76671148  1  0  -0.280071  0  3.274416  0  0  -0.212209  0  3.533016  0  0  -0.22488  0  3.548535  0  0  -0.296936  -0.203365  0  3.522764  0
O  O68  1  0.67996044  0.21474402  0.46954869  1  0  -0.603894  0  2.058777  0  0  -0.534246  0  2.320078  0  0  -0.564093  0  2.308002  0  0  -0.300372  -0.513149  0  2.327604  0
O  O69  1  0.82004349  0.28526624  0.96954648  1  0  -0.603834  0  2.058909  0  0  -0.534201  0  2.320283  0  0  -0.56405  0  2.308206  0  0  -0.300278  -0.513105  0  2.327811  0
O  O70  1  0.32004866  0.78525146  0.53045008  1  0  -0.603814  0  2.058644  0  0  -0.534188  0  2.32  0  0  -0.564034  0  2.307926  0  0  -0.300346  -0.513087  0  2.327519  0
O  O71  1  0.17994797  0.71473935  0.03045101  1  0  -0.603734  0  2.058904  0  0  -0.534096  0  2.320257  0  0  -0.563946  0  2.308196  0  0  -0.300329  -0.513002  0  2.327783  0
O  O72  1  0.93823824  0.37937925  0.50955451  1  0  -0.63851  0  2.078862  0  0  -0.567402  0  2.3028  0  0  -0.594723  0  2.292224  0  0  -0.301383  -0.548032  0  2.309575  0
O  O73  1  0.56177775  0.12062700  0.00955546  1  0  -0.638547  0  2.078858  0  0  -0.56741  0  2.302743  0  0  -0.594748  0  2.292192  0  0  -0.301363  -0.548034  0  2.309507  0
O  O74  1  0.06176837  0.62061064  0.49044620  1  0  -0.638371  0  2.079033  0  0  -0.567104  0  2.302814  0  0  -0.594447  0  2.292281  0  0  -0.301284  -0.547748  0  2.309596  0
O  O75  1  0.43821797  0.87938325  0.99044783  1  0  -0.638418  0  2.078816  0  0  -0.567205  0  2.30268  0  0  -0.594498  0  2.292099  0  0  -0.301269  -0.547833  0  2.309446  0
O  O76  1  0.57043405  0.33877359  0.65711661  1  0  -0.610288  0  2.006451  0  0  -0.551171  0  2.230882  0  0  -0.576262  0  2.22392  0  0  -0.297262  -0.533684  0  2.23517  0
O  O77  1  0.92957584  0.16123739  0.15711668  1  0  -0.610326  0  2.006483  0  0  -0.551218  0  2.23091  0  0  -0.576307  0  2.223941  0  0  -0.297341  -0.533721  0  2.235177  0
O  O78  1  0.42956816  0.66122742  0.34288217  1  0  -0.610286  0  2.006547  0  0  -0.551209  0  2.230965  0  0  -0.576289  0  2.223996  0  0  -0.297284  -0.533725  0  2.235259  0
O  O79  1  0.07041979  0.83877193  0.84287887  1  0  -0.610243  0  2.006582  0  0  -0.55117  0  2.231054  0  0  -0.576261  0  2.22409  0  0  -0.297352  -0.533671  0  2.235315  0
O  O80  1  0.68297606  0.28687681  0.79187086  1  0  -0.640337  0  2.104347  0  0  -0.56432  0  2.359675  0  0  -0.594322  0  2.349348  0  0  -0.29639  -0.54339  0  2.36616  0
O  O81  1  0.81703358  0.21312312  0.29187105  1  0  -0.640298  0  2.104469  0  0  -0.564256  0  2.35978  0  0  -0.59426  0  2.349448  0  0  -0.296368  -0.543338  0  2.366293  0
O  O82  1  0.31701165  0.71312875  0.20812469  1  0  -0.640332  0  2.104553  0  0  -0.564364  0  2.35988  0  0  -0.594359  0  2.34955  0  0  -0.296386  -0.543427  0  2.366365  0
O  O83  1  0.18296280  0.78687599  0.70812773  1  0  -0.640364  0  2.104497  0  0  -0.56432  0  2.359799  0  0  -0.594314  0  2.349466  0  0  -0.296418  -0.543389  0  2.366292  0
O  O84  1  0.25135966  0.15688333  0.37553087  1  0  -0.82098  0  1.887817  0  0  -0.760429  0  2.104104  0  0  -0.781287  0  2.06895  0  0  -0.579272  -0.745591  0  2.128534  0
O  O85  1  0.24864183  0.34311839  0.87553003  1  0  -0.820952  0  1.887903  0  0  -0.760415  0  2.1042  0  0  -0.78127  0  2.069052  0  0  -0.579271  -0.74558  0  2.128619  0
O  O86  1  0.74863798  0.84311023  0.62447049  1  0  -0.821014  0  1.887882  0  0  -0.760401  0  2.104164  0  0  -0.781269  0  2.069033  0  0  -0.579254  -0.74557  0  2.128604  0
O  O87  1  0.75135232  0.65689463  0.12447262  1  0  -0.820891  0  1.888037  0  0  -0.760378  0  2.104185  0  0  -0.781243  0  2.069059  0  0  -0.579242  -0.745545  0  2.128624  0
O  O88  1  0.35533890  0.43231514  0.42454889  1  0  -0.860195  0  1.973402  0  0  -0.794222  0  2.20132  0  0  -0.815875  0  2.165097  0  0  -0.589192  -0.779029  0  2.226506  0
O  O89  1  0.14467321  0.06768389  0.92454667  1  0  -0.860103  0  1.973484  0  0  -0.794126  0  2.201383  0  0  -0.815782  0  2.165159  0  0  -0.589159  -0.778942  0  2.226572  0
O  O90  1  0.64465093  0.56767558  0.57544602  1  0  -0.860132  0  1.97342  0  0  -0.794173  0  2.201238  0  0  -0.815829  0  2.165013  0  0  -0.589185  -0.778976  0  2.22642  0
O  O91  1  0.85535222  0.93232375  0.07543663  1  0  -0.860026  0  1.973399  0  0  -0.79407  0  2.20126  0  0  -0.81572  0  2.165032  0  0  -0.589126  -0.778881  0  2.226449  0
O  O92  1  0.81392094  0.49576370  0.33742494  1  0  -0.817929  0  1.842113  0  0  -0.76827  0  2.045548  0  0  -0.788056  0  2.012892  0  0  -0.581528  -0.754001  0  2.068216  0
O  O93  1  0.68607424  0.00422691  0.83742460  1  0  -0.818006  0  1.841759  0  0  -0.768337  0  2.045274  0  0  -0.788109  0  2.01266  0  0  -0.581661  -0.754083  0  2.067957  0
O  O94  1  0.18607285  0.50422891  0.66257448  1  0  -0.817954  0  1.841933  0  0  -0.768332  0  2.045364  0  0  -0.78809  0  2.012779  0  0  -0.581617  -0.754083  0  2.068086  0
O  O95  1  0.31391808  0.99576940  0.16257547  1  0  -0.817939  0  1.84195  0  0  -0.768294  0  2.045483  0  0  -0.788083  0  2.012827  0  0  -0.581596  -0.754043  0  2.06818  0
