# generated using pymatgen
data_Sm2H20C15(N3O8)2
_symmetry_space_group_name_H-M   'P 1'
_cell_length_a   10.47109794
_cell_length_b   10.47107321
_cell_length_c   14.94177846
_cell_angle_alpha   90.63636561
_cell_angle_beta   90.63632001
_cell_angle_gamma   106.22911133
_symmetry_Int_Tables_number   1
_chemical_formula_structural   Sm2H20C15(N3O8)2
_chemical_formula_sum   'Sm4 H40 C30 N12 O32'
_cell_volume   1572.71944553
_cell_formula_units_Z   2
loop_
 _symmetry_equiv_pos_site_id
 _symmetry_equiv_pos_as_xyz
  1  'x, y, z'
loop_
 _atom_site_type_symbol
 _atom_site_label
 _atom_site_symmetry_multiplicity
 _atom_site_fract_x
 _atom_site_fract_y
 _atom_site_fract_z
 _atom_site_occupancy
 _atom_site_pbe_bader_charge
 _atom_site_pbe_bader_spin_density
 _atom_site_pbe_cm5_charge
 _atom_site_pbe_ddec_charge
 _atom_site_pbe_ddec_spin_density
 _atom_site_pbe_ddec_sum_bond_order
 _atom_site_pbe_magmom
Sm  Sm0  1  0.57140082  0.17811495  0.05611328  1  2.219572  0  1.499467  2.103517  0  2.124392  0
Sm  Sm1  1  0.82189266  0.42859906  0.44388443  1  2.219461  0  1.499436  2.103516  0  2.12446  0
Sm  Sm2  1  0.42859529  0.82188917  0.94389019  1  2.219357  0  1.499436  2.103545  0  2.124474  0
Sm  Sm3  1  0.17811039  0.57140218  0.55611305  1  2.219395  0  1.49941  2.103539  0  2.124344  0
H  H4  1  0.17609450  0.32756683  0.82728629  1  0.074772  0  0.123023  0.118938  0  0.958003  0
H  H5  1  0.67243734  0.82390776  0.67271361  1  0.074861  0  0.123007  0.118887  0  0.958023  0
H  H6  1  0.82390458  0.67243428  0.17271383  1  0.074803  0  0.123  0.118889  0  0.957978  0
H  H7  1  0.32756671  0.17609472  0.32728790  1  0.07477  0  0.123008  0.118894  0  0.95796  0
H  H8  1  0.31897332  0.46297077  0.84497681  1  0.07126  0  0.11527  0.089646  0  1.041283  0
H  H9  1  0.53703324  0.68102846  0.65502175  1  0.0713  0  0.115255  0.089629  0  1.041298  0
H  H10  1  0.68102474  0.53702624  0.15501993  1  0.07122  0  0.11524  0.089587  0  1.041299  0
H  H11  1  0.46297181  0.31897525  0.34497911  1  0.071245  0  0.115262  0.089616  0  1.041263  0
H  H12  1  0.32629412  0.09482928  0.74357294  1  0.087379  0  0.117236  0.115501  0  0.973325  0
H  H13  1  0.90517296  0.67370547  0.75642548  1  0.087341  0  0.117238  0.115486  0  0.973325  0
H  H14  1  0.67370296  0.90517032  0.25642381  1  0.087354  0  0.117268  0.115532  0  0.973358  0
H  H15  1  0.09483008  0.32629386  0.24357131  1  0.08732  0  0.117273  0.115553  0  0.973363  0
H  H16  1  0.18834805  0.12676394  0.79760195  1  0.031734  0  0.114785  0.107716  0  0.970154  0
H  H17  1  0.87323714  0.81165165  0.70239651  1  0.031818  0  0.114782  0.1077  0  0.970148  0
H  H18  1  0.81164505  0.87323266  0.20239675  1  0.031793  0  0.114761  0.107642  0  0.970279  0
H  H19  1  0.12676592  0.18835055  0.29760098  1  0.031818  0  0.114791  0.107713  0  0.970253  0
H  H20  1  0.80225442  0.05535019  0.79340333  1  0.068552  0  0.120897  0.115394  0  0.957184  0
H  H21  1  0.94465326  0.19774752  0.70659766  1  0.06853  0  0.120905  0.115368  0  0.957174  0
H  H22  1  0.19774666  0.94465338  0.20659750  1  0.068533  0  0.120863  0.115285  0  0.957107  0
H  H23  1  0.05534878  0.80224963  0.29340179  1  0.068546  0  0.120877  0.115285  0  0.957146  0
H  H24  1  0.63513307  0.03788166  0.75667790  1  0.092081  0  0.11692  0.115751  0  0.98926  0
H  H25  1  0.96212094  0.36487053  0.74332380  1  0.092015  0  0.116906  0.115732  0  0.989293  0
H  H26  1  0.36486801  0.96212096  0.24332560  1  0.091993  0  0.116943  0.115793  0  0.989387  0
H  H27  1  0.03788111  0.63512853  0.25667432  1  0.091996  0  0.116922  0.115715  0  0.989267  0
H  H28  1  0.54716544  0.46708703  0.05116521  1  0.642449  0  0.328966  0.4148  0  0.889261  0
H  H29  1  0.53291234  0.45283321  0.44883653  1  0.642511  0  0.328977  0.414777  0  0.889236  0
H  H30  1  0.45283663  0.53291586  0.94883695  1  0.642452  0  0.328995  0.4148  0  0.889201  0
H  H31  1  0.46708574  0.54716571  0.55116491  1  0.642437  0  0.328995  0.414832  0  0.889192  0
H  H32  1  0.68286079  0.47472566  0.00453432  1  0.637637  0  0.347751  0.436221  0  0.832406  0
H  H33  1  0.52527403  0.31713478  0.49546602  1  0.637587  0  0.347758  0.43621  0  0.832397  0
H  H34  1  0.31713728  0.52527135  0.99546644  1  0.63758  0  0.347769  0.436227  0  0.832401  0
H  H35  1  0.47473000  0.68286387  0.50453345  1  0.637584  0  0.347772  0.43622  0  0.832402  0
H  H36  1  0.79470183  0.37058107  0.17995538  1  0.656994  0  0.295689  0.408447  0  0.921454  0
H  H37  1  0.62941693  0.20529738  0.32004291  1  0.65699  0  0.29566  0.408361  0  0.921578  0
H  H38  1  0.20529624  0.62941785  0.82004405  1  0.657023  0  0.295659  0.408309  0  0.921623  0
H  H39  1  0.37058414  0.79470427  0.67995590  1  0.657028  0  0.295663  0.408334  0  0.921612  0
H  H40  1  0.84994491  0.27457780  0.11819984  1  0.614021  0  0.331716  0.418657  0  0.866155  0
H  H41  1  0.72541737  0.15005230  0.38180172  1  0.61402  0  0.331652  0.418591  0  0.866236  0
H  H42  1  0.15005017  0.72541648  0.88180154  1  0.614005  0  0.331692  0.418602  0  0.866213  0
H  H43  1  0.27458272  0.84995195  0.61820044  1  0.614001  0  0.331678  0.418577  0  0.86624  0
C  C44  1  0.24288204  0.44695210  0.71291940  1  1.56791  0  0.193504  0.594819  0  4.218534  0
C  C45  1  0.55304492  0.75712202  0.78707913  1  1.567814  0  0.193526  0.594671  0  4.218481  0
C  C46  1  0.75711699  0.55303752  0.28707863  1  1.56791  0  0.19343  0.59462  0  4.218757  0
C  C47  1  0.44695716  0.24288373  0.21291770  1  1.56793  0  0.193524  0.594733  0  4.218566  0
C  C48  1  0.27171744  0.38137743  0.79826222  1  0.339067  0  -0.050482  -0.189014  0  3.947724  0
C  C49  1  0.61862440  0.72828540  0.70173765  1  0.338952  0  -0.050412  -0.188814  0  3.947573  0
C  C50  1  0.72828063  0.61861958  0.20173853  1  0.339137  0  -0.050421  -0.188883  0  3.947687  0
C  C51  1  0.38137767  0.27171749  0.29826117  1  0.339144  0  -0.050437  -0.188856  0  3.947508  0
C  C52  1  0.33984725  0.09428455  0.88582868  1  1.621328  0  0.230815  0.679817  0  4.126479  0
C  C53  1  0.90572297  0.66015151  0.61417513  1  1.622031  0  0.230755  0.679625  0  4.126654  0
C  C54  1  0.66015187  0.90572421  0.11417418  1  1.621726  0  0.23085  0.679673  0  4.126355  0
C  C55  1  0.09428008  0.33984878  0.38582167  1  1.621657  0  0.230836  0.679826  0  4.126364  0
C  C56  1  0.29738621  0.15004313  0.79916117  1  0.354003  0  -0.051288  -0.198144  0  3.915732  0
C  C57  1  0.84995858  0.70261394  0.70083794  1  0.353713  0  -0.051281  -0.198086  0  3.915815  0
C  C58  1  0.70261186  0.84995484  0.20083959  1  0.353893  0  -0.051312  -0.198095  0  3.915941  0
C  C59  1  0.15004445  0.29738443  0.29915617  1  0.354067  0  -0.051323  -0.198257  0  3.916059  0
C  C60  1  0.48379493  0.34204506  0.76802869  1  1.557792  0  0.347193  0.496163  0  4.11039  0
C  C61  1  0.65795770  0.51620922  0.73197448  1  1.557898  0  0.347186  0.496181  0  4.110407  0
C  C62  1  0.51620913  0.65795647  0.23197616  1  1.557811  0  0.347178  0.496131  0  4.110341  0
C  C63  1  0.34204137  0.48378998  0.26802831  1  1.55811  0  0.347181  0.496196  0  4.110378  0
C  C64  1  0.68716070  0.31284671  0.75000225  1  1.580218  0  0.348097  0.495936  0  4.128104  0
C  C65  1  0.31284138  0.68715809  0.24999993  1  1.580195  0  0.34811  0.496148  0  4.12816  0
C  C66  1  0.72170924  0.10388887  0.79211035  1  0.331598  0  -0.04477  -0.190434  0  3.905224  0
C  C67  1  0.89611411  0.27829436  0.70789001  1  0.331621  0  -0.044778  -0.190417  0  3.905236  0
C  C68  1  0.27829681  0.89611416  0.20789118  1  0.331618  0  -0.044798  -0.190344  0  3.905313  0
C  C69  1  0.10388695  0.72170538  0.29210878  1  0.331626  0  -0.044766  -0.190231  0  3.905015  0
C  C70  1  0.68074017  0.12030305  0.88866553  1  1.579944  0  0.21956  0.65904  0  4.137804  0
C  C71  1  0.87970186  0.31926900  0.61133758  1  1.579913  0  0.219666  0.659246  0  4.137449  0
C  C72  1  0.31927187  0.87970736  0.11133810  1  1.580053  0  0.219698  0.659297  0  4.137461  0
C  C73  1  0.12030022  0.68073580  0.38866126  1  1.580326  0  0.2196  0.659152  0  4.137543  0
N  N74  1  0.35239469  0.29154213  0.78728751  1  -1.220408  0  -0.277085  -0.07966  0  3.667364  0
N  N75  1  0.70846085  0.64760861  0.71271166  1  -1.220668  0  -0.277065  -0.079696  0  3.667367  0
N  N76  1  0.64760638  0.70845953  0.21271331  1  -1.220445  0  -0.277074  -0.079616  0  3.667413  0
N  N77  1  0.29153923  0.35239372  0.28728714  1  -1.220712  0  -0.277065  -0.079603  0  3.667333  0
N  N78  1  0.52692968  0.47307376  0.75000026  1  -1.234317  0  -0.354116  -0.545546  0  3.260924  0
N  N79  1  0.47307040  0.52692763  0.25000389  1  -1.23447  0  -0.354076  -0.545503  0  3.260935  0
N  N80  1  0.55860257  0.25649416  0.76846673  1  -1.218048  0  -0.344423  -0.523728  0  3.260125  0
N  N81  1  0.74350860  0.44140198  0.73153975  1  -1.218217  0  -0.344399  -0.523639  0  3.260164  0
N  N82  1  0.44139650  0.74350504  0.23153539  1  -1.218098  0  -0.344451  -0.52382  0  3.260175  0
N  N83  1  0.25649448  0.55860310  0.26846445  1  -1.218162  0  -0.344457  -0.523837  0  3.260226  0
N  N84  1  0.76865495  0.23134958  0.75000154  1  -1.158201  0  -0.280474  -0.089075  0  3.671739  0
N  N85  1  0.23134612  0.76865208  0.24999793  1  -1.15822  0  -0.280445  -0.089219  0  3.671877  0
O  O86  1  0.59235612  0.41872074  0.01203816  1  -1.236392  0  -0.590116  -0.7955  0  2.026773  0
O  O87  1  0.58127930  0.40764010  0.48796354  1  -1.23644  0  -0.590153  -0.795492  0  2.026678  0
O  O88  1  0.40764197  0.58127915  0.98796597  1  -1.236443  0  -0.590177  -0.795531  0  2.026656  0
O  O89  1  0.41872473  0.59235759  0.51203258  1  -1.236451  0  -0.590177  -0.795559  0  2.026688  0
O  O90  1  0.78753697  0.32813758  0.11856746  1  -1.261885  0  -0.628129  -0.855102  0  2.0015  0
O  O91  1  0.67185335  0.21245781  0.38143476  1  -1.261838  0  -0.628053  -0.854974  0  2.001611  0
O  O92  1  0.21245312  0.67185246  0.88143587  1  -1.261808  0  -0.628105  -0.854932  0  2.001606  0
O  O93  1  0.32814675  0.78754739  0.61856540  1  -1.261833  0  -0.62809  -0.854938  0  2.001636  0
O  O94  1  0.30660736  0.96750560  0.88934003  1  -1.212243  0  -0.414634  -0.697819  0  2.228301  0
O  O95  1  0.03248335  0.69338703  0.61065984  1  -1.212482  0  -0.414593  -0.697682  0  2.228865  0
O  O96  1  0.69337772  0.03247733  0.11066120  1  -1.212481  0  -0.41453  -0.697618  0  2.229033  0
O  O97  1  0.96751275  0.30661612  0.38933359  1  -1.212454  0  -0.414591  -0.697751  0  2.228598  0
O  O98  1  0.59022542  0.02490642  0.92245687  1  -1.226828  0  -0.451238  -0.764367  0  2.477406  0
O  O99  1  0.97509290  0.40977489  0.57754480  1  -1.226887  0  -0.451277  -0.764411  0  2.477398  0
O  O100  1  0.40977167  0.97509415  0.07754591  1  -1.226935  0  -0.45123  -0.764378  0  2.477632  0
O  O101  1  0.02491014  0.59022444  0.42245200  1  -1.227249  0  -0.451244  -0.764378  0  2.477477  0
O  O102  1  0.19645547  0.54787550  0.72249785  1  -1.202337  0  -0.369376  -0.644538  0  2.249742  0
O  O103  1  0.45212152  0.80354360  0.77750269  1  -1.202396  0  -0.369374  -0.644508  0  2.249841  0
O  O104  1  0.80354158  0.45211741  0.27750086  1  -1.202405  0  -0.369346  -0.644475  0  2.249968  0
O  O105  1  0.54787955  0.19645806  0.22249611  1  -1.202403  0  -0.369386  -0.64453  0  2.249774  0
O  O106  1  0.26104547  0.40276076  0.63654451  1  -1.184739  0  -0.375764  -0.61107  0  2.175467  0
O  O107  1  0.59723414  0.73896064  0.86346070  1  -1.18468  0  -0.375853  -0.611066  0  2.175336  0
O  O108  1  0.73895456  0.59723010  0.36345889  1  -1.184819  0  -0.375767  -0.610954  0  2.175288  0
O  O109  1  0.40276499  0.26105003  0.13654217  1  -1.18473  0  -0.375794  -0.611013  0  2.175359  0
O  O110  1  0.73368288  0.22534686  0.93316658  1  -1.180894  0  -0.373338  -0.610501  0  2.139079  0
O  O111  1  0.77465353  0.26631937  0.56683378  1  -1.180741  0  -0.373397  -0.610641  0  2.1388  0
O  O112  1  0.26631915  0.77464933  0.06683286  1  -1.180863  0  -0.373465  -0.610749  0  2.138692  0
O  O113  1  0.22534654  0.73368201  0.43316502  1  -1.18076  0  -0.37337  -0.610607  0  2.138871  0
O  O114  1  0.40335813  0.17536916  0.94467982  1  -1.19796  0  -0.388824  -0.645223  0  2.272024  0
O  O115  1  0.82462066  0.59663515  0.55531780  1  -1.197931  0  -0.38883  -0.645222  0  2.271508  0
O  O116  1  0.59662294  0.82460693  0.05531397  1  -1.197997  0  -0.388958  -0.645268  0  2.27103  0
O  O117  1  0.17538040  0.40336745  0.44467432  1  -1.197877  0  -0.388904  -0.645294  0  2.271468  0
