# generated using pymatgen
data_Zr3H28(C15O8)2
_symmetry_space_group_name_H-M   'P 1'
_cell_length_a   14.80379329
_cell_length_b   14.76654350
_cell_length_c   14.77593625
_cell_angle_alpha   59.52745584
_cell_angle_beta   59.89877907
_cell_angle_gamma   59.98269961
_symmetry_Int_Tables_number   1
_chemical_formula_structural   Zr3H28(C15O8)2
_chemical_formula_sum   'Zr6 H56 C60 O32'
_cell_volume   2273.68112523
_cell_formula_units_Z   2
loop_
 _symmetry_equiv_pos_site_id
 _symmetry_equiv_pos_as_xyz
  1  'x, y, z'
loop_
 _atom_site_type_symbol
 _atom_site_label
 _atom_site_symmetry_multiplicity
 _atom_site_fract_x
 _atom_site_fract_y
 _atom_site_fract_z
 _atom_site_occupancy
 _atom_site_pbe_bader_charge
 _atom_site_pbe_bader_spin_density
 _atom_site_pbe_cm5_charge
 _atom_site_pbe_ddec_charge
 _atom_site_pbe_ddec_spin_density
 _atom_site_pbe_ddec_sum_bond_order
 _atom_site_pbe_magmom
Zr  Zr0  1  0.88135578  0.88028758  0.61670414  1  2.636309  0  1.632372  2.367327  0  2.77411  0
Zr  Zr1  1  0.12251119  0.11808218  0.37905114  1  2.631326  0  1.630106  2.367729  0  2.765805  0
Zr  Zr2  1  0.12024404  0.87652183  0.62034279  1  2.636183  0  1.625419  2.373488  0  2.742532  0
Zr  Zr3  1  0.88385200  0.12085790  0.37590161  1  2.63729  0  1.627845  2.373143  0  2.751394  0
Zr  Zr4  1  0.12130736  0.87996808  0.37895422  1  2.637779  0  1.633136  2.367443  0  2.779701  0
Zr  Zr5  1  0.88313810  0.11793886  0.61705667  1  2.632409  0  1.631441  2.367484  0  2.77205  0
H  H6  1  0.09435765  0.71532445  0.59396795  1  0.599969  0  0.331161  0.422846  0  0.859946  0
H  H7  1  0.09766204  0.09497984  0.21444060  1  0.593825  0  0.330739  0.421977  0  0.860615  0
H  H8  1  0.09601645  0.09047015  0.59421175  1  0.61295  0  0.331653  0.423332  0  0.857948  0
H  H9  1  0.72050498  0.09515702  0.58924560  1  0.606407  0  0.332408  0.424644  0  0.856299  0
H  H10  1  0.13648057  0.59647666  0.35460483  1  0.065148  0  0.10255  0.106629  0  1.033501  0
H  H11  1  0.85229450  0.41803272  0.62491492  1  0.088241  0  0.102319  0.106376  0  1.034602  0
H  H12  1  0.60459598  0.12723937  0.91549634  1  0.058818  0  0.102162  0.105991  0  1.034569  0
H  H13  1  0.41225508  0.85681359  0.09446743  1  0.079481  0  0.102448  0.105984  0  1.032647  0
H  H14  1  0.84999664  0.12272249  0.10321670  1  0.079772  0  0.102948  0.108591  0  1.02771  0
H  H15  1  0.13043192  0.84796755  0.91814239  1  0.094364  0  0.104348  0.111369  0  1.018174  0
H  H16  1  0.60484469  0.41906462  0.34734881  1  0.108902  0  0.104302  0.111414  0  1.019668  0
H  H17  1  0.42402934  0.60292946  0.62339196  1  0.072516  0  0.10297  0.10827  0  1.028112  0
H  H18  1  0.07746752  0.32289879  0.98637273  1  0.012921  0  0.091385  0.085525  0  0.980192  0
H  H19  1  0.16521199  0.35625100  0.00500107  1  0.021529  0  0.092294  0.090043  0  0.986561  0
H  H20  1  0.15958379  0.50807106  0.83968850  1  0.044873  0  0.093188  0.092063  0  0.984814  0
H  H21  1  0.05934485  0.48276841  0.83123038  1  0.024738  0  0.090923  0.08658  0  0.97895  0
H  H22  1  0.09949670  0.61521001  0.96001745  1  0.027794  0  0.092054  0.092633  0  0.986404  0
H  H23  1  0.95844567  0.68549571  0.01775489  1  0.014984  0  0.092251  0.089732  0  0.976931  0
H  H24  1  0.08504277  0.46680291  0.12986765  1  0.038536  0  0.090519  0.087377  0  1.011149  0
H  H25  1  0.94038851  0.53070444  0.17962899  1  0.021781  0  0.092298  0.089069  0  0.972492  0
H  H26  1  0.86996325  0.41059844  0.06295303  1  0.0363  0  0.090156  0.088885  0  0.985822  0
H  H27  1  0.81252064  0.48483072  0.15268006  1  0.029752  0  0.091567  0.090841  0  0.982391  0
H  H28  1  0.81385729  0.65234055  0.00274190  1  0.017  0  0.091166  0.089229  0  0.979825  0
H  H29  1  0.85416186  0.58054079  0.91597305  1  0.014198  0  0.089232  0.086164  0  1.002993  0
H  H30  1  0.60600242  0.84857850  0.62549202  1  0.108813  0  0.102148  0.105561  0  1.035446  0
H  H31  1  0.42051330  0.12658874  0.34775606  1  0.06415  0  0.102096  0.105558  0  1.034925  0
H  H32  1  0.22658092  0.47898457  0.25985090  1  0.018032  0  0.086959  0.118411  0  1.006597  0
H  H33  1  0.23868742  0.33800685  0.34900056  1  0.066618  0  0.095697  0.138334  0  0.992241  0
H  H34  1  0.15594719  0.40662209  0.26497261  1  0.057867  0  0.095405  0.137655  0  1.023774  0
H  H35  1  0.75141382  0.54721772  0.70769002  1  0.014266  0  0.086705  0.117829  0  1.009289  0
H  H36  1  0.83012437  0.59733026  0.72123922  1  0.047192  0  0.095349  0.136872  0  1.002315  0
H  H37  1  0.75772638  0.68509921  0.62626262  1  0.086414  0  0.095566  0.139118  0  1.010424  0
H  H38  1  0.49331761  0.21045062  0.04436286  1  0.025567  0  0.086822  0.117748  0  1.009786  0
H  H39  1  0.35103157  0.22375345  0.09436832  1  0.044794  0  0.094937  0.13615  0  1.002037  0
H  H40  1  0.43042099  0.12933134  0.18242386  1  0.084546  0  0.095421  0.139065  0  1.010312  0
H  H41  1  0.53226239  0.76400964  0.97502237  1  -0.00799  0  0.087051  0.118681  0  1.00718  0
H  H42  1  0.57438099  0.85279363  0.83433197  1  0.057668  0  0.095529  0.138656  0  0.992602  0
H  H43  1  0.67095734  0.76665915  0.90483300  1  0.074499  0  0.096569  0.14034  0  1.017573  0
H  H44  1  0.74362822  0.19672352  0.99816367  1  0.028087  0  0.087138  0.118505  0  1.009183  0
H  H45  1  0.82787575  0.22470466  0.85496762  1  0.050184  0  0.095778  0.137903  0  0.991029  0
H  H46  1  0.76160848  0.12629736  0.91820713  1  0.076944  0  0.0945  0.138376  0  1.019315  0
H  H47  1  0.21656883  0.75063294  0.04509802  1  0.029912  0  0.086998  0.117473  0  1.006576  0
H  H48  1  0.23354824  0.83888304  0.08043559  1  0.054676  0  0.094706  0.136223  0  0.995882  0
H  H49  1  0.14552892  0.76024561  0.18144733  1  0.094347  0  0.095229  0.139038  0  1.014709  0
H  H50  1  0.48776161  0.54351141  0.25170284  1  0.023421  0  0.087123  0.118152  0  1.006204  0
H  H51  1  0.34695834  0.58688539  0.33678011  1  0.045595  0  0.095251  0.137558  0  0.997732  0
H  H52  1  0.41993007  0.68173770  0.25614696  1  0.066884  0  0.095368  0.138783  0  1.011885  0
H  H53  1  0.55847726  0.49570629  0.70063073  1  0.040859  0  0.086318  0.116404  0  1.009368  0
H  H54  1  0.59373694  0.35264929  0.72448577  1  0.07426  0  0.095397  0.1369  0  0.992617  0
H  H55  1  0.69247153  0.41975662  0.62820615  1  0.038609  0  0.094423  0.136845  0  1.018746  0
H  H56  1  0.49561867  0.74509025  0.70914000  1  0.026493  0  0.086809  0.117808  0  1.008538  0
H  H57  1  0.35386598  0.83017322  0.72838881  1  0.087591  0  0.095755  0.137874  0  0.993349  0
H  H58  1  0.42156114  0.75684102  0.63613139  1  0.060456  0  0.095487  0.138794  0  1.0158  0
H  H59  1  0.54990173  0.21073502  0.24472612  1  0.014953  0  0.086514  0.116942  0  1.009378  0
H  H60  1  0.58969283  0.22864414  0.32894746  1  0.054416  0  0.095971  0.13808  0  0.99393  0
H  H61  1  0.68583717  0.13679812  0.25481377  1  0.084107  0  0.095277  0.137998  0  1.016486  0
C  C62  1  0.99308297  0.70079821  0.49539502  1  1.543744  0  0.236515  0.643253  0  4.089655  0
C  C63  1  0.31154452  0.99687192  0.19949210  1  1.552085  0  0.236411  0.642553  0  4.088535  0
C  C64  1  0.00209203  0.30674685  0.49128177  1  1.549935  0  0.236132  0.642753  0  4.090262  0
C  C65  1  0.70024184  0.99286549  0.80505863  1  1.539852  0  0.235904  0.641065  0  4.090606  0
C  C66  1  0.99382329  0.69817003  0.81082102  1  1.554705  0  0.242598  0.637308  0  4.025859  0
C  C67  1  0.70375776  0.99809289  0.48665313  1  1.537247  0  0.237203  0.64462  0  4.08224  0
C  C68  1  0.99697060  0.31176299  0.19688003  1  1.531067  0  0.242612  0.637147  0  4.027781  0
C  C69  1  0.31207916  0.98782506  0.49726069  1  1.538598  0  0.236614  0.644176  0  4.080122  0
C  C70  1  0.31079763  0.69872720  0.49076119  1  1.535408  0  0.236795  0.643567  0  4.087452  0
C  C71  1  0.99172510  0.99315323  0.81021776  1  1.555951  0  0.237005  0.643497  0  4.08691  0
C  C72  1  0.70577560  0.31083007  0.49286046  1  1.550113  0  0.236065  0.642164  0  4.090006  0
C  C73  1  0.00110945  0.99151878  0.19783110  1  1.551111  0  0.236116  0.642892  0  4.087908  0
C  C74  1  0.00148874  0.41093003  0.48565684  1  -0.052439  0  -0.01483  -0.093844  0  3.928224  0
C  C75  1  0.98820028  0.60251468  0.49480974  1  -0.072656  0  -0.015738  -0.09327  0  3.928891  0
C  C76  1  0.08421861  0.46080439  0.40548913  1  0.02801  0  0.001793  0.165432  0  3.932538  0
C  C77  1  0.90385964  0.55440997  0.57309475  1  0.023897  0  0.001943  0.165326  0  3.933028  0
C  C78  1  0.07412530  0.55583337  0.41358134  1  0.014461  0  -0.08725  -0.161176  0  3.960064  0
C  C79  1  0.91435068  0.45894553  0.56553304  1  -0.040617  0  -0.087976  -0.161344  0  3.958904  0
C  C80  1  0.41462627  0.99686317  0.10052558  1  0.013016  0  -0.015474  -0.093639  0  3.930889  0
C  C81  1  0.60172260  0.98783412  0.90871578  1  0.028756  0  -0.015021  -0.093001  0  3.927487  0
C  C82  1  0.46852356  0.07545288  0.05204856  1  -0.033842  0  0.001756  0.164266  0  3.934348  0
C  C83  1  0.54900854  0.90793142  0.95839477  1  -0.00945  0  0.001331  0.16321  0  3.937014  0
C  C84  1  0.56101103  0.06782330  0.95657650  1  -0.050624  0  -0.087539  -0.160308  0  3.95733  0
C  C85  1  0.45626077  0.91583598  0.05368269  1  -0.053031  0  -0.087981  -0.160442  0  3.959645  0
C  C86  1  0.98506871  0.99100623  0.91561909  1  -0.027128  0  -0.015128  -0.093849  0  3.928877  0
C  C87  1  0.99829892  0.98291480  0.10274950  1  -0.080383  0  -0.015282  -0.093215  0  3.924759  0
C  C88  1  0.90095950  0.06952169  0.96872373  1  -0.029034  0  0.001923  0.164157  0  3.934568  0
C  C89  1  0.07896392  0.90050947  0.05339673  1  0.032337  0  0.00213  0.164158  0  3.929194  0
C  C90  1  0.91145230  0.06262917  0.06099156  1  0.004085  0  -0.087784  -0.160305  0  3.957029  0
C  C91  1  0.06925382  0.90823312  0.96026364  1  -0.031285  0  -0.087361  -0.160314  0  3.956925  0
C  C92  1  0.41709095  0.60342844  0.48246281  1  -0.024314  0  -0.014859  -0.09343  0  3.922367  0
C  C93  1  0.60901048  0.41603427  0.49102333  1  -0.078167  0  -0.015234  -0.093675  0  3.929483  0
C  C94  1  0.46850086  0.55431524  0.39978617  1  0.052663  0  0.001951  0.165275  0  3.928515  0
C  C95  1  0.56089013  0.46857760  0.57016251  1  0.026032  0  0.002042  0.16421  0  3.932765  0
C  C96  1  0.56344106  0.46107699  0.40775699  1  -0.064671  0  -0.088468  -0.163347  0  3.960236  0
C  C97  1  0.46526569  0.56102990  0.56294976  1  -0.053351  0  -0.087934  -0.159964  0  3.957156  0
C  C98  1  0.08550820  0.38933403  0.99293787  1  -0.010607  0  -0.154986  -0.167519  0  3.851252  0
C  C99  1  0.07959909  0.49363348  0.88655534  1  -0.042814  0  -0.155111  -0.169216  0  3.852071  0
C  C100  1  0.98986202  0.59758047  0.91808955  1  0.039936  0  -0.015915  0.017402  0  3.802967  0
C  C101  1  0.01661841  0.60803088  0.00013601  1  -0.016222  0  -0.158887  -0.173289  0  3.859689  0
C  C102  1  0.00930944  0.50579511  0.10901817  1  -0.028169  0  -0.158539  -0.170261  0  3.855749  0
C  C103  1  0.99139580  0.41904928  0.09637033  1  0.04789  0  -0.016383  0.016685  0  3.802297  0
C  C104  1  0.88036161  0.47069418  0.07678720  1  -0.028992  0  -0.163385  -0.174081  0  3.879135  0
C  C105  1  0.87675246  0.58062348  0.97621803  1  1.2e-05  0  -0.163846  -0.180665  0  3.886169  0
C  C106  1  0.41747792  0.98198250  0.49419607  1  -0.042309  0  -0.014942  -0.093473  0  3.921703  0
C  C107  1  0.60721909  0.99504227  0.48088502  1  -0.03874  0  -0.015037  -0.093918  0  3.923655  0
C  C108  1  0.47066267  0.89898775  0.57383426  1  0.021381  0  0.001946  0.165765  0  3.933147  0
C  C109  1  0.55728215  0.07476392  0.39798181  1  -0.011472  0  0.001982  0.165739  0  3.931506  0
C  C110  1  0.56403745  0.90935184  0.56442135  1  -0.017808  0  -0.087579  -0.161343  0  3.957802  0
C  C111  1  0.46284546  0.06547658  0.40846174  1  -0.021831  0  -0.087847  -0.161414  0  3.956262  0
C  C112  1  0.18147865  0.41911103  0.31466491  1  -0.054976  0  -0.239711  -0.410059  0  3.97194  0
C  C113  1  0.80540987  0.59813617  0.66201652  1  -0.067863  0  -0.239895  -0.409845  0  3.970786  0
C  C114  1  0.43413472  0.16470401  0.09542586  1  -0.061757  0  -0.239785  -0.409256  0  3.971548  0
C  C115  1  0.58370050  0.81770907  0.91612662  1  -0.027984  0  -0.240526  -0.412746  0  3.97145  0
C  C116  1  0.80295120  0.15900997  0.93336272  1  -0.066592  0  -0.240407  -0.411051  0  3.972474  0
C  C117  1  0.17368625  0.80729618  0.09230759  1  -0.095111  0  -0.240031  -0.409274  0  3.973527  0
C  C118  1  0.42878057  0.59371883  0.30588590  1  -0.048618  0  -0.240225  -0.410159  0  3.973107  0
C  C119  1  0.60380238  0.43246070  0.66066199  1  -0.062159  0  -0.23911  -0.405817  0  3.969422  0
C  C120  1  0.43374696  0.80227990  0.66690812  1  -0.092576  0  -0.240083  -0.410815  0  3.972815  0
C  C121  1  0.59779152  0.16781022  0.30113638  1  -0.065677  0  -0.239532  -0.408925  0  3.972158  0
O  O122  1  0.91969152  0.73920117  0.57393018  1  -1.185169  0  -0.354967  -0.610016  0  2.33234  0
O  O123  1  0.26823375  0.07513356  0.23821401  1  -1.186315  0  -0.355115  -0.609803  0  2.330558  0
O  O124  1  0.08063546  0.26270436  0.41826078  1  -1.179397  0  -0.355272  -0.610394  0  2.332041  0
O  O125  1  0.73863117  0.91990348  0.76101522  1  -1.177833  0  -0.354648  -0.608526  0  2.332144  0
O  O126  1  0.07471396  0.73357081  0.76816289  1  -1.190329  0  -0.360609  -0.628955  0  2.28288  0
O  O127  1  0.74174689  0.07804950  0.41368389  1  -1.174692  0  -0.352749  -0.611231  0  2.313119  0
O  O128  1  0.92420254  0.26732776  0.23440602  1  -1.186245  0  -0.361536  -0.624745  0  2.307647  0
O  O129  1  0.26721980  0.91472267  0.57709267  1  -1.182768  0  -0.352381  -0.610554  0  2.312262  0
O  O130  1  0.26570192  0.73720775  0.41827930  1  -1.177804  0  -0.35607  -0.610542  0  2.332673  0
O  O131  1  0.91989817  0.07318794  0.76452441  1  -1.17942  0  -0.356035  -0.610848  0  2.329811  0
O  O132  1  0.74360882  0.26533728  0.57263358  1  -1.180581  0  -0.35637  -0.611107  0  2.330862  0
O  O133  1  0.08058316  0.91958702  0.23588793  1  -1.184194  0  -0.356183  -0.610474  0  2.332394  0
O  O134  1  0.07021813  0.91700888  0.77059036  1  -1.190107  0  -0.353476  -0.621516  0  2.280775  0
O  O135  1  0.74286253  0.27126759  0.41672247  1  -1.182652  0  -0.352255  -0.619895  0  2.280872  0
O  O136  1  0.92568900  0.07110519  0.23381827  1  -1.183691  0  -0.352096  -0.62247  0  2.277288  0
O  O137  1  0.27031397  0.73448515  0.57062018  1  -1.181985  0  -0.352202  -0.623236  0  2.277618  0
O  O138  1  0.91930760  0.73787366  0.76835536  1  -1.191631  0  -0.351739  -0.619971  0  2.2944  0
O  O139  1  0.27197836  0.06745034  0.42088757  1  -1.188007  0  -0.353883  -0.62253  0  2.288698  0
O  O140  1  0.07554649  0.27102888  0.23438885  1  -1.185331  0  -0.350754  -0.624927  0  2.27093  0
O  O141  1  0.74083939  0.92160035  0.56608628  1  -1.184201  0  -0.353756  -0.623035  0  2.288435  0
O  O142  1  0.73932148  0.07038341  0.76602527  1  -1.181664  0  -0.352889  -0.622073  0  2.286816  0
O  O143  1  0.07167121  0.73874233  0.41908157  1  -1.180609  0  -0.35344  -0.622709  0  2.291868  0
O  O144  1  0.27163138  0.92024931  0.23778981  1  -1.18892  0  -0.353252  -0.620694  0  2.293616  0
O  O145  1  0.92519852  0.26709984  0.56947778  1  -1.188569  0  -0.352578  -0.621616  0  2.286706  0
O  O146  1  0.80066304  0.06776864  0.56303641  1  -1.234221  0  -0.697506  -1.07306  0  2.374936  0
O  O147  1  0.06954300  0.06411572  0.56685343  1  -1.239022  0  -0.695858  -1.070689  0  2.372847  0
O  O148  1  0.07055803  0.06775523  0.29512106  1  -1.223321  0  -0.696085  -1.070465  0  2.372909  0
O  O149  1  0.06793753  0.79598814  0.56679222  1  -1.229581  0  -0.696314  -1.071196  0  2.371911  0
O  O150  1  0.15079720  0.94823700  0.44996008  1  -1.196852  0  -0.792394  -1.148414  0  2.137838  0
O  O151  1  0.95246074  0.95071372  0.44703735  1  -1.20346  0  -0.793542  -1.148845  0  2.139701  0
O  O152  1  0.95349356  0.14895253  0.44715103  1  -1.200568  0  -0.792377  -1.147895  0  2.133777  0
O  O153  1  0.95156414  0.94809655  0.64797404  1  -1.200207  0  -0.79247  -1.147752  0  2.133554  0
