# generated using pymatgen
data_CuH3C4N2Cl
_symmetry_space_group_name_H-M   'P 1'
_cell_length_a   4.88565635
_cell_length_b   6.73451869
_cell_length_c   15.24877611
_cell_angle_alpha   90.00044082
_cell_angle_beta   89.99945450
_cell_angle_gamma   99.81246760
_symmetry_Int_Tables_number   1
_chemical_formula_structural   CuH3C4N2Cl
_chemical_formula_sum   'Cu4 H12 C16 N8 Cl4'
_cell_volume   494.38373226
_cell_formula_units_Z   4
loop_
 _symmetry_equiv_pos_site_id
 _symmetry_equiv_pos_as_xyz
  1  'x, y, z'
loop_
 _atom_site_type_symbol
 _atom_site_label
 _atom_site_symmetry_multiplicity
 _atom_site_fract_x
 _atom_site_fract_y
 _atom_site_fract_z
 _atom_site_occupancy
 _atom_site_hle17_bader_spin_density
 _atom_site_hle17_ddec_charge
 _atom_site_hle17_ddec_spin_density
 _atom_site_hle17_ddec_sum_bond_order
 _atom_site_hle17_magmom
 _atom_site_hse06_10hf_bader_spin_density
 _atom_site_hse06_10hf_ddec_charge
 _atom_site_hse06_10hf_ddec_spin_density
 _atom_site_hse06_10hf_ddec_sum_bond_order
 _atom_site_hse06_10hf_magmom
 _atom_site_hse06_bader_spin_density
 _atom_site_hse06_ddec_charge
 _atom_site_hse06_ddec_spin_density
 _atom_site_hse06_ddec_sum_bond_order
 _atom_site_hse06_magmom
 _atom_site_pbe_bader_spin_density
 _atom_site_pbe_cm5_charge
 _atom_site_pbe_ddec_charge
 _atom_site_pbe_ddec_spin_density
 _atom_site_pbe_ddec_sum_bond_order
 _atom_site_pbe_magmom
Cu  Cu0  1  0.90925380  0.80274452  0.24686932  1  0  0.467977  0  2.0104  0  0  0.358134  0  2.513271  0  0  0.340312  0  2.479128  0  0  0.488384  0.372882  0  2.533441  0
Cu  Cu1  1  0.09074205  0.69724617  0.74687128  1  0  0.467928  0  2.010536  0  0  0.358082  0  2.513412  0  0  0.340225  0  2.47925  0  0  0.488401  0.372849  0  2.533577  0
Cu  Cu2  1  0.09077222  0.19726167  0.75312993  1  0  0.467764  0  2.01042  0  0  0.357884  0  2.513312  0  0  0.340101  0  2.479171  0  0  0.488278  0.372626  0  2.533451  0
Cu  Cu3  1  0.90921935  0.30273940  0.25312994  1  0  0.467852  0  2.010543  0  0  0.357987  0  2.513457  0  0  0.340175  0  2.47932  0  0  0.488332  0.372733  0  2.533597  0
H  H4  1  0.34021374  0.27502073  0.38202723  1  0  0.093146  0  0.973561  0  0  0.099893  0  1.044981  0  0  0.104571  0  1.040056  0  0  0.110255  0.096302  0  1.048916  0
H  H5  1  0.65974864  0.22495375  0.88202580  1  0  0.093135  0  0.973587  0  0  0.09985  0  1.045045  0  0  0.10452  0  1.040128  0  0  0.11029  0.096261  0  1.048977  0
H  H6  1  0.65976675  0.72496061  0.61797989  1  0  0.093045  0  0.973656  0  0  0.099783  0  1.045045  0  0  0.104468  0  1.040119  0  0  0.110234  0.096192  0  1.048983  0
H  H7  1  0.34025025  0.77505715  0.11797805  1  0  0.093124  0  0.973682  0  0  0.099823  0  1.045121  0  0  0.104495  0  1.040206  0  0  0.110286  0.096236  0  1.049055  0
H  H8  1  0.36335111  0.81522055  0.54024242  1  0  0.109164  0  1.001812  0  0  0.119098  0  1.065202  0  0  0.122719  0  1.06287  0  0  0.094343  0.116373  0  1.067052  0
H  H9  1  0.63667105  0.68478483  0.04024468  1  0  0.109194  0  1.001774  0  0  0.119103  0  1.065188  0  0  0.122748  0  1.06282  0  0  0.094329  0.11638  0  1.06704  0
H  H10  1  0.63668411  0.18480043  0.45975355  1  0  0.109293  0  1.001933  0  0  0.11922  0  1.065284  0  0  0.122843  0  1.06295  0  0  0.094399  0.116495  0  1.067139  0
H  H11  1  0.36332214  0.31520955  0.95975260  1  0  0.109195  0  1.001839  0  0  0.119104  0  1.065235  0  0  0.122729  0  1.062897  0  0  0.094321  0.11638  0  1.067087  0
H  H12  1  0.05875514  0.92272049  0.42417181  1  0  0.08557  0  0.944664  0  0  0.095265  0  1.00817  0  0  0.098415  0  1.00561  0  0  0.112305  0.092804  0  1.010432  0
H  H13  1  0.94126770  0.57729053  0.92416708  1  0  0.085572  0  0.944717  0  0  0.095261  0  1.008215  0  0  0.098413  0  1.005653  0  0  0.112283  0.09281  0  1.010464  0
H  H14  1  0.94124168  0.07728440  0.57583203  1  0  0.085653  0  0.944805  0  0  0.095352  0  1.008283  0  0  0.098501  0  1.005727  0  0  0.112332  0.092894  0  1.010535  0
H  H15  1  0.05874619  0.42271027  0.07583348  1  0  0.085503  0  0.944754  0  0  0.0952  0  1.008256  0  0  0.09835  0  1.005697  0  0  0.112252  0.092762  0  1.010495  0
C  C16  1  0.28878366  0.42256581  0.39733155  1  0  0.061554  0  3.607984  0  0  0.019072  0  3.871382  0  0  0.023832  0  3.879405  0  0  0.050141  0.015495  0  3.866976  0
C  C17  1  0.71120313  0.07742558  0.89732720  1  0  0.061605  0  3.60808  0  0  0.019077  0  3.871507  0  0  0.023853  0  3.879544  0  0  0.050101  0.015499  0  3.867098  0
C  C18  1  0.71119890  0.57742155  0.60266245  1  0  0.061568  0  3.608361  0  0  0.019271  0  3.871568  0  0  0.024028  0  3.879608  0  0  0.050181  0.015693  0  3.867173  0
C  C19  1  0.28880472  0.92257558  0.10267008  1  0  0.061535  0  3.608677  0  0  0.01914  0  3.871985  0  0  0.023904  0  3.880014  0  0  0.050095  0.015563  0  3.867589  0
C  C20  1  0.40049535  0.53596928  0.47049822  1  0  0.051528  0  3.735812  0  0  0.063943  0  3.972873  0  0  0.065198  0  3.991594  0  0  0.007249  0.062809  0  3.960691  0
C  C21  1  0.59949102  0.96403006  0.97049598  1  0  0.05153  0  3.735799  0  0  0.06397  0  3.97274  0  0  0.065219  0  3.99146  0  0  0.00726  0.062835  0  3.960558  0
C  C22  1  0.59950257  0.46404474  0.52950038  1  0  0.051633  0  3.73604  0  0  0.063816  0  3.973274  0  0  0.065059  0  3.991995  0  0  0.007215  0.062684  0  3.961096  0
C  C23  1  0.40049562  0.03596318  0.02950917  1  0  0.051679  0  3.73583  0  0  0.064003  0  3.972822  0  0  0.06526  0  3.991533  0  0  0.007341  0.062868  0  3.960644  0
C  C24  1  0.30581804  0.71881014  0.48338073  1  0  -0.107983  0  3.665135  0  0  -0.134067  0  3.912589  0  0  -0.132129  0  3.926537  0  0  -0.077989  -0.135562  0  3.903765  0
C  C25  1  0.69418549  0.78119300  0.98338078  1  0  -0.108073  0  3.665199  0  0  -0.134166  0  3.912638  0  0  -0.132238  0  3.926572  0  0  -0.07802  -0.135666  0  3.903821  0
C  C26  1  0.69418124  0.28119001  0.51661393  1  0  -0.108105  0  3.664832  0  0  -0.134165  0  3.912391  0  0  -0.132206  0  3.926316  0  0  -0.078031  -0.135672  0  3.903578  0
C  C27  1  0.30582294  0.21881579  0.01661978  1  0  -0.108149  0  3.665137  0  0  -0.134208  0  3.912598  0  0  -0.132257  0  3.926524  0  0  -0.078048  -0.135712  0  3.903788  0
C  C28  1  0.13358146  0.77946670  0.42027662  1  0  0.104129  0  3.708642  0  0  0.075166  0  3.963401  0  0  0.078255  0  3.975585  0  0  0.040007  0.072822  0  3.956029  0
C  C29  1  0.86642632  0.72053949  0.92027936  1  0  0.104086  0  3.708689  0  0  0.075145  0  3.963429  0  0  0.078236  0  3.975607  0  0  0.040019  0.072795  0  3.956056  0
C  C30  1  0.86643393  0.22053247  0.57972591  1  0  0.103819  0  3.708948  0  0  0.074857  0  3.963715  0  0  0.077938  0  3.975908  0  0  0.039862  0.072522  0  3.956335  0
C  C31  1  0.13359061  0.27946419  0.07972842  1  0  0.104216  0  3.709198  0  0  0.075214  0  3.963949  0  0  0.078316  0  3.976143  0  0  0.040035  0.072853  0  3.956561  0
N  N32  1  0.04743654  0.67111473  0.34862646  1  0  -0.155139  0  3.295936  0  0  -0.101777  0  3.600012  0  0  -0.095966  0  3.59661  0  0  -0.260978  -0.106664  0  3.603127  0
N  N33  1  0.95256336  0.82888998  0.84862490  1  0  -0.15509  0  3.296039  0  0  -0.101758  0  3.600087  0  0  -0.095927  0  3.596678  0  0  -0.261036  -0.106649  0  3.603209  0
N  N34  1  0.95256257  0.32886703  0.65136951  1  0  -0.154918  0  3.295782  0  0  -0.10154  0  3.59983  0  0  -0.095737  0  3.596453  0  0  -0.260921  -0.106423  0  3.602925  0
N  N35  1  0.04742514  0.17113842  0.15137436  1  0  -0.155146  0  3.295395  0  0  -0.101732  0  3.599412  0  0  -0.095962  0  3.596068  0  0  -0.260934  -0.106612  0  3.602515  0
N  N36  1  0.11344953  0.48496249  0.33984502  1  0  -0.140446  0  3.310481  0  0  -0.083385  0  3.619183  0  0  -0.079061  0  3.615612  0  0  -0.252837  -0.086978  0  3.622188  0
N  N37  1  0.88654536  0.01503268  0.83984254  1  0  -0.140478  0  3.310575  0  0  -0.08331  0  3.619145  0  0  -0.079036  0  3.615635  0  0  -0.252828  -0.086905  0  3.62215  0
N  N38  1  0.88653211  0.51503412  0.66015948  1  0  -0.140474  0  3.30996  0  0  -0.083434  0  3.618609  0  0  -0.079115  0  3.61504  0  0  -0.252895  -0.087039  0  3.621638  0
N  N39  1  0.11346576  0.98494222  0.16015605  1  0  -0.140482  0  3.309906  0  0  -0.083422  0  3.618547  0  0  -0.079095  0  3.614999  0  0  -0.252948  -0.087024  0  3.621571  0
Cl  Cl40  1  0.63891210  0.02549022  0.31704223  1  0  -0.569356  0  1.275773  0  0  -0.511168  0  1.65409  0  0  -0.525977  0  1.627146  0  0  -0.310755  -0.500106  0  1.671082  0
Cl  Cl41  1  0.36108657  0.47451624  0.81704233  1  0  -0.569347  0  1.275809  0  0  -0.511139  0  1.654105  0  0  -0.525951  0  1.627169  0  0  -0.310759  -0.500081  0  1.671099  0
Cl  Cl42  1  0.36107701  0.97449828  0.68295374  1  0  -0.569417  0  1.275752  0  0  -0.51125  0  1.654102  0  0  -0.526032  0  1.627104  0  0  -0.310778  -0.500192  0  1.671096  0
Cl  Cl43  1  0.63891180  0.52549316  0.18295168  1  0  -0.569392  0  1.275687  0  0  -0.511191  0  1.653982  0  0  -0.525993  0  1.627018  0  0  -0.310773  -0.500133  0  1.670981  0
