# generated using pymatgen
data_Lu3H44C50N10Cl9
_symmetry_space_group_name_H-M   'P 1'
_cell_length_a   11.87110501
_cell_length_b   12.01221426
_cell_length_c   20.47175157
_cell_angle_alpha   95.10937290
_cell_angle_beta   90.00005205
_cell_angle_gamma   90.00006952
_symmetry_Int_Tables_number   1
_chemical_formula_structural   Lu3H44C50N10Cl9
_chemical_formula_sum   'Lu6 H88 C100 N20 Cl18'
_cell_volume   2907.63653368
_cell_formula_units_Z   2
loop_
 _symmetry_equiv_pos_site_id
 _symmetry_equiv_pos_as_xyz
  1  'x, y, z'
loop_
 _atom_site_type_symbol
 _atom_site_label
 _atom_site_symmetry_multiplicity
 _atom_site_fract_x
 _atom_site_fract_y
 _atom_site_fract_z
 _atom_site_occupancy
 _atom_site_pbe_bader_charge
 _atom_site_pbe_bader_spin_density
 _atom_site_pbe_cm5_charge
 _atom_site_pbe_ddec_charge
 _atom_site_pbe_ddec_spin_density
 _atom_site_pbe_ddec_sum_bond_order
 _atom_site_pbe_magmom
Lu  Lu0  1  0.98357423  0.25309896  0.12172132  1  2.035987  0  1.049724  1.224256  0  3.129666  0
Lu  Lu1  1  0.98357443  0.24689965  0.37827890  1  2.03594  0  1.04974  1.224252  0  3.129739  0
Lu  Lu2  1  0.01642675  0.74690139  0.87827899  1  2.036038  0  1.049737  1.224266  0  3.129709  0
Lu  Lu3  1  0.01642739  0.75309987  0.62172186  1  2.036091  0  1.049762  1.224358  0  3.129521  0
Lu  Lu4  1  0.51944009  0.75000039  0.25000037  1  2.014488  0  0.930657  1.262896  0  3.234532  0
Lu  Lu5  1  0.48055668  0.24999996  0.74999896  1  2.014668  0  0.930645  1.262823  0  3.234645  0
H  H6  1  0.20119731  0.43079531  0.13061704  1  0.0871  0  0.109901  0.080195  0  1.027975  0
H  H7  1  0.20119643  0.06920480  0.36938284  1  0.087092  0  0.109899  0.080182  0  1.02798  0
H  H8  1  0.79880536  0.56920420  0.86938225  1  0.087049  0  0.109893  0.08019  0  1.02795  0
H  H9  1  0.79880455  0.93079555  0.63061698  1  0.087055  0  0.109899  0.080193  0  1.027927  0
H  H10  1  0.78377833  0.40709172  0.19974595  1  0.097553  0  0.114133  0.082657  0  1.014839  0
H  H11  1  0.78377737  0.09290747  0.30025420  1  0.097545  0  0.114127  0.082633  0  1.014856  0
H  H12  1  0.21622349  0.59290780  0.80025432  1  0.09756  0  0.114147  0.082655  0  1.014834  0
H  H13  1  0.21622529  0.90709121  0.69974554  1  0.097599  0  0.11414  0.082659  0  1.014869  0
H  H14  1  0.92527190  0.10612502  0.98489663  1  0.111765  0  0.105026  0.073384  0  1.060519  0
H  H15  1  0.92527171  0.39387380  0.51510196  1  0.111359  0  0.105035  0.073387  0  1.060525  0
H  H16  1  0.07472655  0.89387449  0.01510266  1  0.111354  0  0.105038  0.073377  0  1.060499  0
H  H17  1  0.07472758  0.60612405  0.48489969  1  0.111747  0  0.105006  0.073379  0  1.060488  0
H  H18  1  0.55411200  0.08700235  0.11466546  1  0.126831  0  0.100258  0.120194  0  1.025805  0
H  H19  1  0.55411325  0.41299822  0.38533414  1  0.126807  0  0.100252  0.120176  0  1.025861  0
H  H20  1  0.44588982  0.91299717  0.88533432  1  0.126778  0  0.100241  0.120135  0  1.02587  0
H  H21  1  0.44588941  0.58700129  0.61466515  1  0.126787  0  0.100256  0.120198  0  1.025805  0
H  H22  1  0.57523921  0.42301305  0.20969645  1  0.133521  0  0.099263  0.113456  0  1.051311  0
H  H23  1  0.57523822  0.07698670  0.29030362  1  0.133512  0  0.099252  0.113444  0  1.051314  0
H  H24  1  0.42476346  0.57698730  0.79030338  1  0.133511  0  0.099258  0.113463  0  1.051274  0
H  H25  1  0.42476361  0.92301197  0.70969612  1  0.133513  0  0.099251  0.113442  0  1.051315  0
H  H26  1  0.39506536  0.09106285  0.18736265  1  0.119278  0  0.095588  0.116934  0  1.051727  0
H  H27  1  0.39506397  0.40893835  0.31263788  1  0.119273  0  0.095579  0.116918  0  1.051772  0
H  H28  1  0.60493646  0.90893666  0.81263762  1  0.119295  0  0.095596  0.116951  0  1.051744  0
H  H29  1  0.60493701  0.59106284  0.68736296  1  0.119274  0  0.095589  0.116945  0  1.051786  0
H  H30  1  0.41133024  0.43400486  0.13834686  1  0.135025  0  0.096515  0.119885  0  1.055973  0
H  H31  1  0.41132935  0.06599552  0.36165364  1  0.135018  0  0.0965  0.119843  0  1.056004  0
H  H32  1  0.58867074  0.56599632  0.86165447  1  0.135037  0  0.096503  0.119844  0  1.056012  0
H  H33  1  0.58867163  0.93400316  0.63834610  1  0.135046  0  0.096509  0.119855  0  1.05601  0
H  H34  1  0.05740680  0.38784097  0.99489666  1  0.105093  0  0.109898  0.075385  0  1.033055  0
H  H35  1  0.05740877  0.11215841  0.50510394  1  0.105128  0  0.10989  0.075382  0  1.033074  0
H  H36  1  0.94259081  0.61215938  0.00510365  1  0.105136  0  0.109871  0.075358  0  1.033114  0
H  H37  1  0.94259305  0.88784111  0.49489681  1  0.1051  0  0.109875  0.075349  0  1.033057  0
H  H38  1  0.32318301  0.07371916  0.96386437  1  0.067018  0  0.106528  0.112565  0  0.993496  0
H  H39  1  0.32318458  0.42628306  0.53613505  1  0.066971  0  0.106502  0.112532  0  0.993514  0
H  H40  1  0.67681628  0.92628285  0.03613505  1  0.066979  0  0.106508  0.112543  0  0.993511  0
H  H41  1  0.67681808  0.57371812  0.46386481  1  0.067005  0  0.106524  0.112537  0  0.993513  0
H  H42  1  0.76368894  0.08592681  0.10918903  1  0.106157  0  0.108193  0.074376  0  1.042349  0
H  H43  1  0.76369021  0.41407235  0.39081061  1  0.106165  0  0.108195  0.074394  0  1.042326  0
H  H44  1  0.23631288  0.91407186  0.89081022  1  0.106193  0  0.108196  0.074389  0  1.042275  0
H  H45  1  0.23631330  0.58592633  0.60918961  1  0.106509  0  0.108213  0.074415  0  1.042289  0
H  H46  1  0.18547494  0.10604149  0.18210812  1  0.117601  0  0.112194  0.079821  0  1.0174  0
H  H47  1  0.18547354  0.39395776  0.31789171  1  0.117621  0  0.112192  0.079819  0  1.017399  0
H  H48  1  0.81452688  0.89395802  0.81789215  1  0.117598  0  0.112193  0.079824  0  1.01738  0
H  H49  1  0.81452828  0.60604175  0.68210856  1  0.11758  0  0.11219  0.079825  0  1.017351  0
H  H50  1  0.16748576  0.08074962  0.04675523  1  0.102704  0  0.105196  0.066125  0  1.061694  0
H  H51  1  0.16748713  0.41924961  0.45324410  1  0.102687  0  0.105196  0.066134  0  1.06166  0
H  H52  1  0.83251354  0.91924989  0.95324406  1  0.102672  0  0.105192  0.066101  0  1.061668  0
H  H53  1  0.83251469  0.58074991  0.54675617  1  0.102683  0  0.105181  0.066083  0  1.061727  0
H  H54  1  0.79405106  0.41355494  0.05457161  1  0.104983  0  0.108659  0.074307  0  1.042014  0
H  H55  1  0.79404948  0.08644342  0.44542751  1  0.104948  0  0.108642  0.074282  0  1.041999  0
H  H56  1  0.20595160  0.58644624  0.94542776  1  0.104971  0  0.108634  0.07428  0  1.042059  0
H  H57  1  0.20595234  0.91355359  0.55457409  1  0.104953  0  0.108662  0.07432  0  1.041949  0
H  H58  1  0.34612701  0.23543349  0.89510938  1  0.121184  0  0.09242  0.092703  0  1.07355  0
H  H59  1  0.34612764  0.26456960  0.60489059  1  0.121147  0  0.092427  0.092697  0  1.073476  0
H  H60  1  0.65387144  0.76456936  0.10489057  1  0.121153  0  0.092421  0.092692  0  1.073496  0
H  H61  1  0.65387334  0.73543242  0.39510981  1  0.1212  0  0.092399  0.092682  0  1.073545  0
H  H62  1  0.63740654  0.23385564  0.88668699  1  0.125772  0  0.093551  0.091173  0  1.073682  0
H  H63  1  0.63740466  0.26614616  0.61331111  1  0.125762  0  0.093559  0.091133  0  1.073693  0
H  H64  1  0.36259191  0.76614555  0.11331434  1  0.125773  0  0.093547  0.091162  0  1.073696  0
H  H65  1  0.36259126  0.73385419  0.38668822  1  0.125825  0  0.093566  0.091149  0  1.073684  0
H  H66  1  0.78466570  0.08396540  0.89445687  1  0.050333  0  0.100039  0.104788  0  1.02154  0
H  H67  1  0.78466400  0.41603491  0.60554123  1  0.050379  0  0.100046  0.104797  0  1.021512  0
H  H68  1  0.21533275  0.91603412  0.10554389  1  0.050336  0  0.100027  0.104788  0  1.021555  0
H  H69  1  0.21533277  0.58396544  0.39445859  1  0.050338  0  0.100054  0.104796  0  1.021582  0
H  H70  1  0.20590596  0.39262724  0.90880252  1  0.100176  0  0.100253  0.1105  0  1.02464  0
H  H71  1  0.20590891  0.10737317  0.59119822  1  0.100234  0  0.100251  0.110474  0  1.024646  0
H  H72  1  0.79409080  0.60737311  0.09119780  1  0.100239  0  0.100255  0.110488  0  1.024636  0
H  H73  1  0.79409291  0.89262635  0.40880303  1  0.10019  0  0.100241  0.110467  0  1.024617  0
H  H74  1  0.64568311  0.40375811  0.96661932  1  0.096737  0  0.106619  0.119076  0  0.994857  0
H  H75  1  0.64568005  0.09624202  0.53337919  1  0.096417  0  0.106624  0.119079  0  0.99489  0
H  H76  1  0.35431872  0.59624391  0.03338059  1  0.096727  0  0.10663  0.119087  0  0.99493  0
H  H77  1  0.35431840  0.90375582  0.46662099  1  0.096458  0  0.106619  0.119065  0  0.994861  0
H  H78  1  0.09919264  0.57084937  0.22600729  1  0.132641  0  0.103648  0.119984  0  1.036783  0
H  H79  1  0.09919206  0.92915505  0.27399342  1  0.132665  0  0.103703  0.120106  0  1.036804  0
H  H80  1  0.90080497  0.42915181  0.77399111  1  0.132677  0  0.103664  0.119995  0  1.036805  0
H  H81  1  0.90080471  0.07084697  0.72600746  1  0.132659  0  0.103674  0.120019  0  1.036768  0
H  H82  1  0.93825528  0.58320978  0.28308247  1  0.137528  0  0.102355  0.118166  0  1.036548  0
H  H83  1  0.93825543  0.91679153  0.21691658  1  0.137519  0  0.102364  0.118169  0  1.036545  0
H  H84  1  0.06174065  0.41679057  0.71691638  1  0.137733  0  0.102351  0.118146  0  1.036585  0
H  H85  1  0.06174134  0.08320965  0.78308231  1  0.137509  0  0.102337  0.118156  0  1.036581  0
H  H86  1  0.30955723  0.57829523  0.22944551  1  0.107977  0  0.113694  0.076757  0  1.027961  0
H  H87  1  0.30955579  0.92170779  0.27055818  1  0.107912  0  0.113692  0.076772  0  1.027907  0
H  H88  1  0.69044038  0.42170679  0.77055391  1  0.107939  0  0.113672  0.07672  0  1.027922  0
H  H89  1  0.69044014  0.07829424  0.72944564  1  0.107937  0  0.113675  0.076733  0  1.027922  0
H  H90  1  0.72930759  0.59005014  0.28029111  1  0.105842  0  0.114013  0.082955  0  1.015905  0
H  H91  1  0.72930774  0.90995090  0.21970830  1  0.105736  0  0.113999  0.082922  0  1.015913  0
H  H92  1  0.27068834  0.40995021  0.71970823  1  0.105558  0  0.114041  0.082957  0  1.015874  0
H  H93  1  0.27068819  0.09005028  0.78029108  1  0.105584  0  0.114026  0.082961  0  1.015892  0
C  C94  1  0.24779024  0.35798475  0.14416965  1  0.452765  0  0.046486  0.096106  0  3.942144  0
C  C95  1  0.24779027  0.14201458  0.35583022  1  0.452764  0  0.046498  0.096126  0  3.942093  0
C  C96  1  0.75221074  0.64201393  0.85583058  1  0.45277  0  0.046491  0.096077  0  3.941955  0
C  C97  1  0.75220986  0.85798492  0.64416809  1  0.452777  0  0.046522  0.096122  0  3.942007  0
C  C98  1  0.72938485  0.33802454  0.18159110  1  0.471119  0  0.048915  0.09832  0  3.93701  0
C  C99  1  0.72938485  0.16197458  0.31840852  1  0.471262  0  0.048951  0.098393  0  3.937081  0
C  C100  1  0.27061697  0.66197414  0.81840961  1  0.471237  0  0.048948  0.098393  0  3.937058  0
C  C101  1  0.27061866  0.83802410  0.68159122  1  0.471155  0  0.048976  0.098443  0  3.937072  0
C  C102  1  0.86175300  0.17015844  0.97943333  1  0.431964  0  0.042519  0.087113  0  3.940772  0
C  C103  1  0.86175274  0.32984030  0.52056571  1  0.432419  0  0.042501  0.087098  0  3.94076  0
C  C104  1  0.13824629  0.82984024  0.02056543  1  0.432371  0  0.042509  0.087152  0  3.940708  0
C  C105  1  0.13824655  0.67015921  0.47943456  1  0.431982  0  0.042566  0.087118  0  3.940726  0
C  C106  1  0.60143116  0.16027829  0.13396942  1  -0.023804  0  -0.082297  -0.165499  0  3.934305  0
C  C107  1  0.60143313  0.33972150  0.36602968  1  -0.023726  0  -0.08226  -0.165403  0  3.934326  0
C  C108  1  0.39856982  0.83972123  0.86602987  1  -0.022903  0  -0.082323  -0.165464  0  3.934424  0
C  C109  1  0.39857121  0.66027718  0.63397006  1  -0.023819  0  -0.082381  -0.165569  0  3.934421  0
C  C110  1  0.61276977  0.34638355  0.18680789  1  -0.034328  0  -0.079258  -0.160546  0  3.915339  0
C  C111  1  0.61276891  0.15361708  0.31319175  1  -0.03462  0  -0.079276  -0.160572  0  3.915398  0
C  C112  1  0.38723289  0.65361596  0.81319189  1  -0.034293  0  -0.079325  -0.160617  0  3.915395  0
C  C113  1  0.38723376  0.84638243  0.68680852  1  -0.034651  0  -0.079305  -0.160606  0  3.915442  0
C  C114  1  0.35582474  0.16869754  0.17507778  1  -0.035088  0  -0.083992  -0.172733  0  3.921598  0
C  C115  1  0.35582496  0.33130193  0.32492166  1  -0.03558  0  -0.083974  -0.172727  0  3.921604  0
C  C116  1  0.64417624  0.83130197  0.82492200  1  -0.035075  0  -0.08397  -0.172751  0  3.921632  0
C  C117  1  0.64417686  0.66869674  0.67507906  1  -0.035576  0  -0.084005  -0.172785  0  3.921708  0
C  C118  1  0.42146484  0.26143690  0.16208732  1  -0.11328  0  0.015683  0.114909  0  3.951269  0
C  C119  1  0.42146581  0.23856349  0.33791318  1  -0.113277  0  0.015708  0.114996  0  3.951311  0
C  C120  1  0.57853698  0.73856261  0.83791344  1  -0.113307  0  0.015692  0.114959  0  3.95139  0
C  C121  1  0.57853685  0.76143602  0.66208709  1  -0.113302  0  0.015734  0.115048  0  3.951276  0
C  C122  1  0.36469764  0.35886870  0.14801944  1  -0.006469  0  -0.08135  -0.167086  0  3.909571  0
C  C123  1  0.36469767  0.14113162  0.35198054  1  -0.006467  0  -0.081387  -0.167136  0  3.909662  0
C  C124  1  0.63530418  0.64113165  0.85198185  1  -0.006404  0  -0.081358  -0.167057  0  3.909739  0
C  C125  1  0.63530331  0.85886789  0.64801827  1  -0.006405  0  -0.081369  -0.1671  0  3.909585  0
C  C126  1  0.54595367  0.25628268  0.16150799  1  0.022369  0  0.013738  0.10841  0  3.951553  0
C  C127  1  0.54595380  0.24371704  0.33849157  1  0.022244  0  0.013743  0.108367  0  3.951624  0
C  C128  1  0.45404815  0.74371600  0.83849175  1  0.021386  0  0.013798  0.108409  0  3.951782  0
C  C129  1  0.45404886  0.75628164  0.66150817  1  0.022214  0  0.013766  0.108353  0  3.951864  0
C  C130  1  0.11796640  0.31981413  0.98642818  1  0.442208  0  0.046032  0.092377  0  3.928823  0
C  C131  1  0.11796931  0.18018700  0.51357254  1  0.442176  0  0.045995  0.092309  0  3.928763  0
C  C132  1  0.88203205  0.68018789  0.01357173  1  0.442185  0  0.045965  0.092322  0  3.928756  0
C  C133  1  0.88203335  0.81981251  0.48642871  1  0.442232  0  0.04605  0.092424  0  3.928809  0
C  C134  1  0.26603253  0.14494114  0.96917417  1  -0.043242  0  -0.085556  -0.125289  0  3.968182  0
C  C135  1  0.26603316  0.35506101  0.53082619  1  -0.04327  0  -0.085496  -0.125214  0  3.968121  0
C  C136  1  0.73396677  0.85506088  0.03082623  1  -0.04327  0  -0.085501  -0.125271  0  3.968168  0
C  C137  1  0.73396866  0.64493850  0.46917456  1  -0.043261  0  -0.085539  -0.125232  0  3.968208  0
C  C138  1  0.71818692  0.15901754  0.13082569  1  0.451992  0  0.044458  0.093985  0  3.95201  0
C  C139  1  0.71818806  0.34098156  0.36917393  1  0.451984  0  0.044465  0.093968  0  3.952009  0
C  C140  1  0.28181490  0.84098114  0.86917454  1  0.452026  0  0.044485  0.094004  0  3.951905  0
C  C141  1  0.28181544  0.65901628  0.63082625  1  0.451694  0  0.044489  0.09402  0  3.952  0
C  C142  1  0.23912457  0.17628771  0.17197675  1  0.472071  0  0.045073  0.091562  0  3.958326  0
C  C143  1  0.23912478  0.32371245  0.32802315  1  0.472046  0  0.045065  0.091542  0  3.958319  0
C  C144  1  0.76087641  0.82371264  0.82802356  1  0.472008  0  0.045099  0.091599  0  3.95831  0
C  C145  1  0.76087704  0.67628790  0.67197667  1  0.471992  0  0.045082  0.091567  0  3.958363  0
C  C146  1  0.18019731  0.14835617  0.01542481  1  0.443367  0  0.041744  0.088483  0  3.96153  0
C  C147  1  0.18020033  0.35164391  0.48457506  1  0.443368  0  0.041714  0.088448  0  3.961388  0
C  C148  1  0.81980114  0.85164501  0.98457506  1  0.443435  0  0.041795  0.088646  0  3.961443  0
C  C149  1  0.81980317  0.64835560  0.51542569  1  0.443279  0  0.041757  0.088537  0  3.961628  0
C  C150  1  0.78811894  0.34204856  0.01804560  1  0.408303  0  0.044605  0.092771  0  3.944554  0
C  C151  1  0.78811666  0.15795063  0.48195308  1  0.40829  0  0.044633  0.09276  0  3.944572  0
C  C152  1  0.21188288  0.65795095  0.98195369  1  0.408272  0  0.044631  0.092776  0  3.944606  0
C  C153  1  0.21188263  0.84204889  0.51804719  1  0.408301  0  0.04464  0.092727  0  3.944665  0
C  C154  1  0.27795478  0.23413235  0.93061339  1  -0.036714  0  -0.065176  -0.01415  0  3.947017  0
C  C155  1  0.27795789  0.26587066  0.56938751  1  -0.036836  0  -0.065249  -0.01423  0  3.946986  0
C  C156  1  0.72204283  0.76587051  0.06938705  1  -0.036813  0  -0.065266  -0.014249  0  3.946976  0
C  C157  1  0.72204478  0.73412969  0.43061378  1  -0.036695  0  -0.06521  -0.01425  0  3.947006  0
C  C158  1  0.70248392  0.24187425  0.92430808  1  -0.060874  0  -0.066281  -0.015726  0  3.945737  0
C  C159  1  0.70248029  0.25812595  0.57568948  1  -0.06087  0  -0.066293  -0.015675  0  3.945681  0
C  C160  1  0.29751622  0.75812610  0.07569223  1  -0.060793  0  -0.066285  -0.015719  0  3.945736  0
C  C161  1  0.29751732  0.74187273  0.42431025  1  -0.06083  0  -0.066273  -0.015686  0  3.945632  0
C  C162  1  0.78261205  0.15817603  0.92913347  1  0.009322  0  -0.087356  -0.124902  0  3.960246  0
C  C163  1  0.78260935  0.34182428  0.57086415  1  0.009315  0  -0.087368  -0.124927  0  3.960131  0
C  C164  1  0.21738640  0.84182265  0.07086627  1  0.009294  0  -0.087347  -0.124939  0  3.960204  0
C  C165  1  0.21738657  0.65817523  0.42913612  1  0.009337  0  -0.087372  -0.124914  0  3.960249  0
C  C166  1  0.20144722  0.32235854  0.93886266  1  0.030749  0  -0.084193  -0.1213  0  3.951973  0
C  C167  1  0.20144936  0.17764521  0.56113971  1  0.030873  0  -0.084135  -0.121214  0  3.95186  0
C  C168  1  0.79855123  0.67764431  0.06113876  1  0.030845  0  -0.084103  -0.121197  0  3.951805  0
C  C169  1  0.79855330  0.82235598  0.43886162  1  0.030795  0  -0.084149  -0.121213  0  3.951832  0
C  C170  1  0.70641288  0.33628000  0.96922603  1  0.044141  0  -0.084224  -0.124022  0  3.952508  0
C  C171  1  0.70641075  0.16372022  0.53077252  1  0.04444  0  -0.084214  -0.123986  0  3.952563  0
C  C172  1  0.29358810  0.66371952  0.03077376  1  0.044136  0  -0.084231  -0.124029  0  3.952569  0
C  C173  1  0.29358939  0.83627763  0.46922815  1  0.044408  0  -0.084254  -0.124004  0  3.952585  0
C  C174  1  0.14233359  0.65014365  0.23789376  1  0.046428  0  -0.075714  -0.162736  0  3.908442  0
C  C175  1  0.14233036  0.84986082  0.26210698  1  0.046443  0  -0.075735  -0.162833  0  3.908521  0
C  C176  1  0.85766402  0.34985920  0.76210473  1  0.04634  0  -0.075766  -0.162791  0  3.908624  0
C  C177  1  0.85766556  0.15014036  0.73789288  1  0.046324  0  -0.075722  -0.162735  0  3.908533  0
C  C178  1  0.08132333  0.75000178  0.24999935  1  -0.039764  0  0.023192  0.126862  0  3.931191  0
C  C179  1  0.91867175  0.25000024  0.74999860  1  -0.039555  0  0.023224  0.126854  0  3.931282  0
C  C180  1  0.89628870  0.65693450  0.26731184  1  0.064  0  -0.073516  -0.152721  0  3.909833  0
C  C181  1  0.89628879  0.84306676  0.23268669  1  0.063924  0  -0.073504  -0.152706  0  3.909822  0
C  C182  1  0.10370722  0.34306501  0.73268550  1  0.063701  0  -0.073562  -0.152752  0  3.910012  0
C  C183  1  0.10370798  0.15693526  0.76731224  1  0.06396  0  -0.073515  -0.152743  0  3.910067  0
C  C184  1  0.25912137  0.65391096  0.23856102  1  0.379754  0  0.050816  0.100638  0  3.950434  0
C  C185  1  0.25912067  0.84609032  0.26144060  1  0.37983  0  0.050772  0.100564  0  3.950322  0
C  C186  1  0.74087455  0.34608938  0.76143734  1  0.379295  0  0.050873  0.100719  0  3.950427  0
C  C187  1  0.74087526  0.15391003  0.73855923  1  0.379328  0  0.050817  0.100666  0  3.950167  0
C  C188  1  0.77953799  0.66033898  0.26653986  1  0.395631  0  0.051274  0.10054  0  3.939226  0
C  C189  1  0.77953807  0.83966212  0.23345859  1  0.395693  0  0.051349  0.10064  0  3.939176  0
C  C190  1  0.22045878  0.33966136  0.73345752  1  0.396114  0  0.051346  0.100644  0  3.939289  0
C  C191  1  0.22045869  0.16033906  0.76654030  1  0.396018  0  0.051334  0.100607  0  3.939388  0
C  C192  1  0.95727464  0.75000150  0.24999908  1  -0.059858  0  0.020602  0.116855  0  3.9341  0
C  C193  1  0.04272128  0.24999968  0.74999883  1  -0.05989  0  0.020637  0.116919  0  3.934068  0
N  N194  1  0.18485587  0.26797964  0.15491169  1  -1.249551  0  -0.373105  -0.263125  0  3.510408  0
N  N195  1  0.18485515  0.23202045  0.34508770  1  -1.249504  0  -0.373094  -0.263088  0  3.510342  0
N  N196  1  0.81514595  0.73202070  0.84508814  1  -1.249628  0  -0.373166  -0.263178  0  3.510332  0
N  N197  1  0.81514499  0.76797990  0.65491164  1  -1.249605  0  -0.373133  -0.263155  0  3.510351  0
N  N198  1  0.78225601  0.24714690  0.15283337  1  -1.258914  0  -0.374993  -0.263534  0  3.50991  0
N  N199  1  0.78225617  0.25285228  0.34716579  1  -1.259076  0  -0.375038  -0.263596  0  3.510046  0
N  N200  1  0.21774665  0.75285094  0.84716730  1  -1.259009  0  -0.375009  -0.263569  0  3.509967  0
N  N201  1  0.21774650  0.74714556  0.65283439  1  -1.258894  0  -0.375025  -0.263641  0  3.510043  0
N  N202  1  0.10790419  0.23490922  0.02509052  1  -1.286992  0  -0.382066  -0.276106  0  3.518898  0
N  N203  1  0.10790456  0.26508994  0.47490926  1  -1.286925  0  -0.38201  -0.27602  0  3.5187  0
N  N204  1  0.89209511  0.76509197  0.97490935  1  -1.287006  0  -0.382055  -0.276158  0  3.5189  0
N  N205  1  0.89209642  0.73490874  0.52509096  1  -1.286973  0  -0.382049  -0.276127  0  3.519002  0
N  N206  1  0.86406633  0.25986897  0.02402428  1  -1.278547  0  -0.382002  -0.27688  0  3.528307  0
N  N207  1  0.86406414  0.24013032  0.47597444  1  -1.278555  0  -0.382022  -0.276875  0  3.528337  0
N  N208  1  0.13593633  0.74012887  0.97597541  1  -1.278516  0  -0.382011  -0.276874  0  3.528352  0
N  N209  1  0.13593515  0.75987003  0.52402685  1  -1.278586  0  -0.382084  -0.276898  0  3.528367  0
N  N210  1  0.72098493  0.75000051  0.24999946  1  -1.299833  0  -0.39807  -0.276165  0  3.507482  0
N  N211  1  0.27900931  0.24999983  0.74999890  1  -1.300031  0  -0.398104  -0.276208  0  3.507615  0
N  N212  1  0.31746226  0.75000026  0.25000129  1  -1.243631  0  -0.39854  -0.278663  0  3.529999  0
N  N213  1  0.68253282  0.25000260  0.74999866  1  -1.242946  0  -0.398592  -0.278732  0  3.529921  0
Cl  Cl214  1  0.98012060  0.46475130  0.12694666  1  -0.719875  0  -0.326089  -0.521634  0  1.128615  0
Cl  Cl215  1  0.98012137  0.03524730  0.37305502  1  -0.719897  0  -0.326102  -0.521644  0  1.128639  0
Cl  Cl216  1  0.01988038  0.53525323  0.87305435  1  -0.719869  0  -0.326092  -0.521616  0  1.128652  0
Cl  Cl217  1  0.01987792  0.96475138  0.62694667  1  -0.719871  0  -0.326093  -0.521644  0  1.128603  0
Cl  Cl218  1  0.98380322  0.04051525  0.11379609  1  -0.719046  0  -0.323641  -0.513959  0  1.132  0
Cl  Cl219  1  0.98380117  0.45948085  0.38620498  1  -0.71904  0  -0.323638  -0.513958  0  1.132048  0
Cl  Cl220  1  0.01619776  0.95948260  0.88620556  1  -0.719041  0  -0.323634  -0.513965  0  1.132044  0
Cl  Cl221  1  0.01619813  0.54051532  0.61379463  1  -0.71905  0  -0.32364  -0.513969  0  1.131961  0
Cl  Cl222  1  0.98345892  0.24999722  0.25000073  1  -0.711217  0  -0.304201  -0.532664  0  1.48791  0
Cl  Cl223  1  0.01654542  0.75000230  0.75000100  1  -0.7112  0  -0.304202  -0.532642  0  1.487851  0
Cl  Cl224  1  0.52319105  0.61163613  0.14812068  1  -0.728899  0  -0.338314  -0.543902  0  1.135548  0
Cl  Cl225  1  0.52319643  0.88836298  0.35187998  1  -0.728887  0  -0.338327  -0.543917  0  1.135539  0
Cl  Cl226  1  0.47680488  0.38836422  0.85187963  1  -0.728891  0  -0.338319  -0.543916  0  1.135536  0
Cl  Cl227  1  0.47680623  0.11163570  0.64812073  1  -0.728895  0  -0.338322  -0.543895  0  1.135569  0
Cl  Cl228  1  0.50992038  0.91166251  0.17782676  1  -0.728971  0  -0.326737  -0.538555  0  1.164016  0
Cl  Cl229  1  0.50991945  0.58833324  0.32217324  1  -0.728994  0  -0.326738  -0.538572  0  1.16398  0
Cl  Cl230  1  0.49008060  0.08833784  0.82217160  1  -0.728964  0  -0.326724  -0.538533  0  1.164031  0
Cl  Cl231  1  0.49007900  0.41166628  0.67782752  1  -0.728984  0  -0.326744  -0.538553  0  1.164003  0
