# generated using pymatgen
data_NaH8C8SNO7
_symmetry_space_group_name_H-M   'P 1'
_cell_length_a   7.28702363
_cell_length_b   8.03022926
_cell_length_c   10.65739257
_cell_angle_alpha   86.89784428
_cell_angle_beta   80.38885455
_cell_angle_gamma   65.44953422
_symmetry_Int_Tables_number   1
_chemical_formula_structural   NaH8C8SNO7
_chemical_formula_sum   'Na2 H16 C16 S2 N2 O14'
_cell_volume   559.21073477
_cell_formula_units_Z   2
loop_
 _symmetry_equiv_pos_site_id
 _symmetry_equiv_pos_as_xyz
  1  'x, y, z'
loop_
 _atom_site_type_symbol
 _atom_site_label
 _atom_site_symmetry_multiplicity
 _atom_site_fract_x
 _atom_site_fract_y
 _atom_site_fract_z
 _atom_site_occupancy
 _atom_site_hle17_bader_spin_density
 _atom_site_hle17_ddec_charge
 _atom_site_hle17_ddec_spin_density
 _atom_site_hle17_ddec_sum_bond_order
 _atom_site_hle17_magmom
 _atom_site_hse06_10hf_bader_spin_density
 _atom_site_hse06_10hf_ddec_charge
 _atom_site_hse06_10hf_ddec_spin_density
 _atom_site_hse06_10hf_ddec_sum_bond_order
 _atom_site_hse06_10hf_magmom
 _atom_site_hse06_bader_spin_density
 _atom_site_hse06_ddec_charge
 _atom_site_hse06_ddec_spin_density
 _atom_site_hse06_ddec_sum_bond_order
 _atom_site_hse06_magmom
 _atom_site_pbe_bader_spin_density
 _atom_site_pbe_cm5_charge
 _atom_site_pbe_ddec_charge
 _atom_site_pbe_ddec_spin_density
 _atom_site_pbe_ddec_sum_bond_order
 _atom_site_pbe_magmom
Na  Na0  1  0.62138702  0.56890078  0.10722165  1  0  0.895525  0  0.386315  0  0  0.848317  0  0.544407  0  0  0.859327  0  0.520736  0  0  0.676878  0.840661  0  0.560598  0
Na  Na1  1  0.37862121  0.43109795  0.89277903  1  0  0.89554  0  0.386295  0  0  0.84829  0  0.544448  0  0  0.8593  0  0.520784  0  0  0.676851  0.84063  0  0.560646  0
H  H2  1  0.20641340  0.88228394  0.16900216  1  0  0.428589  0  0.866503  0  0  0.402894  0  0.920814  0  0  0.412498  0  0.906571  0  0  0.293754  0.396075  0  0.930942  0
H  H3  1  0.79358878  0.11771889  0.83099622  1  0  0.42864  0  0.866436  0  0  0.402929  0  0.920783  0  0  0.412536  0  0.906533  0  0  0.293755  0.39611  0  0.930912  0
H  H4  1  0.39152927  0.92717533  0.19242018  1  0  0.420097  0  0.880363  0  0  0.391542  0  0.940692  0  0  0.401807  0  0.925403  0  0  0.288266  0.384192  0  0.95164  0
H  H5  1  0.60847214  0.07282614  0.80757741  1  0  0.42011  0  0.880321  0  0  0.391565  0  0.940637  0  0  0.40183  0  0.925348  0  0  0.288266  0.384216  0  0.951584  0
H  H6  1  0.00692994  0.28606496  0.00809937  1  0  0.427101  0  0.872891  0  0  0.397297  0  0.934759  0  0  0.407454  0  0.919816  0  0  0.297453  0.389985  0  0.945504  0
H  H7  1  0.99306822  0.71392834  0.99189992  1  0  0.42703  0  0.872978  0  0  0.397222  0  0.934856  0  0  0.407376  0  0.919917  0  0  0.29741  0.389909  0  0.945602  0
H  H8  1  0.90943362  0.18783166  0.11492173  1  0  0.433527  0  0.862964  0  0  0.402771  0  0.925707  0  0  0.412663  0  0.911101  0  0  0.297966  0.395808  0  0.935993  0
H  H9  1  0.09057076  0.81216024  0.88507784  1  0  0.433521  0  0.862936  0  0  0.402754  0  0.925703  0  0  0.412646  0  0.911096  0  0  0.29796  0.395791  0  0.935989  0
H  H10  1  0.94655805  0.65538955  0.80368517  1  0  0.338543  0  0.910734  0  0  0.317786  0  0.969902  0  0  0.328109  0  0.961532  0  0  0.311666  0.310411  0  0.976107  0
H  H11  1  0.05344692  0.34461326  0.19631194  1  0  0.338494  0  0.910689  0  0  0.317794  0  0.969765  0  0  0.328072  0  0.961479  0  0  0.31166  0.310427  0  0.975967  0
H  H12  1  0.53925406  0.75888928  0.39855138  1  0  0.121051  0  0.925489  0  0  0.130476  0  0.986158  0  0  0.134059  0  0.982931  0  0  0.121401  0.127937  0  0.98839  0
H  H13  1  0.46072654  0.24112739  0.60145355  1  0  0.121052  0  0.925538  0  0  0.130465  0  0.98621  0  0  0.134053  0  0.982982  0  0  0.121394  0.127925  0  0.988447  0
H  H14  1  0.08552992  0.85888993  0.36332437  1  0  0.1048  0  0.978559  0  0  0.111301  0  1.045597  0  0  0.114652  0  1.043268  0  0  0.107464  0.108844  0  1.047249  0
H  H15  1  0.91446840  0.14110607  0.63667196  1  0  0.104837  0  0.978591  0  0  0.111342  0  1.045605  0  0  0.114693  0  1.043277  0  0  0.107471  0.108885  0  1.047258  0
H  H16  1  0.13192364  0.75577828  0.58489414  1  0  0.130263  0  0.953698  0  0  0.137495  0  1.013565  0  0  0.141818  0  1.011249  0  0  0.111131  0.134431  0  1.015474  0
H  H17  1  0.86807839  0.24422180  0.41510157  1  0  0.130216  0  0.953711  0  0  0.137473  0  1.013547  0  0  0.141798  0  1.011228  0  0  0.111129  0.13441  0  1.015458  0
C  C18  1  0.68906972  0.60533087  0.77951790  1  0  0.512755  0  3.780654  0  0  0.468894  0  4.067827  0  0  0.496826  0  4.063873  0  0  0.255768  0.450164  0  4.070479  0
C  C19  1  0.31093573  0.39466788  0.22048310  1  0  0.512734  0  3.780971  0  0  0.468916  0  4.068031  0  0  0.496836  0  4.0641  0  0  0.255817  0.450191  0  4.070692  0
C  C20  1  0.57930435  0.63214200  0.66078624  1  0  0.325329  0  3.724476  0  0  0.303893  0  3.992881  0  0  0.3232  0  3.993736  0  0  0.173721  0.290221  0  3.99301  0
C  C21  1  0.42070837  0.36786223  0.33921835  1  0  0.325487  0  3.724692  0  0  0.304037  0  3.993076  0  0  0.323344  0  3.993936  0  0  0.173793  0.290366  0  3.993208  0
C  C22  1  0.69415762  0.70200660  0.56247707  1  0  -0.135168  0  3.801214  0  0  -0.122621  0  4.047345  0  0  -0.13519  0  4.072725  0  0  -0.025766  -0.114246  0  4.03009  0
C  C23  1  0.30584504  0.29799215  0.43752332  1  0  -0.135138  0  3.801204  0  0  -0.122612  0  4.047292  0  0  -0.13518  0  4.072674  0  0  -0.025738  -0.11424  0  4.030041  0
C  C24  1  0.66709497  0.75952536  0.43889964  1  0  -0.002427  0  3.662727  0  0  -0.042499  0  3.918145  0  0  -0.035705  0  3.934146  0  0  -0.05379  -0.046684  0  3.907062  0
C  C25  1  0.33289961  0.24047893  0.56110331  1  0  -0.002369  0  3.662656  0  0  -0.042423  0  3.918062  0  0  -0.035632  0  3.934068  0  0  -0.053783  -0.046621  0  3.906969  0
C  C26  1  0.80925114  0.81870186  0.36890613  1  0  -0.159616  0  3.73454  0  0  -0.136442  0  3.998242  0  0  -0.147485  0  4.021756  0  0  -0.026267  -0.129534  0  3.982598  0
C  C27  1  0.19074314  0.18129691  0.63109242  1  0  -0.159659  0  3.734539  0  0  -0.136533  0  3.998325  0  0  -0.14758  0  4.021844  0  0  -0.026242  -0.129583  0  3.982619  0
C  C28  1  0.97451527  0.81661927  0.42101673  1  0  -0.015164  0  3.708197  0  0  -0.046098  0  3.963595  0  0  -0.042419  0  3.98399  0  0  -0.070081  -0.047932  0  3.94944  0
C  C29  1  0.02548678  0.18336853  0.57898142  1  0  -0.015208  0  3.708183  0  0  -0.046135  0  3.963622  0  0  -0.042455  0  3.984015  0  0  -0.070107  -0.047979  0  3.949455  0
C  C30  1  0.00132876  0.75977616  0.54572871  1  0  -0.159554  0  3.684036  0  0  -0.175368  0  3.940673  0  0  -0.184197  0  3.960676  0  0  -0.087987  -0.16969  0  3.927112  0
C  C31  1  0.99867249  0.24022256  0.45426809  1  0  -0.159398  0  3.684003  0  0  -0.175258  0  3.940597  0  0  -0.184087  0  3.960601  0  0  -0.087946  -0.169584  0  3.927039  0
C  C32  1  0.85823086  0.70510257  0.61583668  1  0  0.259945  0  3.772602  0  0  0.240374  0  4.027125  0  0  0.252423  0  4.048055  0  0  0.116114  0.23258  0  4.012638  0
C  C33  1  0.14176838  0.29489761  0.38416685  1  0  0.259801  0  3.772666  0  0  0.240317  0  4.027065  0  0  0.252363  0  4.04799  0  0  0.116103  0.232533  0  4.012571  0
S  S34  1  0.78023626  0.89372688  0.21030773  1  0  1.323879  0  5.621993  0  0  1.219971  0  6.144251  0  0  1.26834  0  6.1214  0  0  0.52775  1.186526  0  6.158807  0
S  S35  1  0.21976034  0.10627598  0.78969130  1  0  1.323875  0  5.622185  0  0  1.219989  0  6.144438  0  0  1.268353  0  6.121597  0  0  0.527708  1.186528  0  6.15899  0
N  N36  1  0.85193297  0.64692322  0.74216703  1  0  -0.431848  0  3.284484  0  0  -0.373028  0  3.515735  0  0  -0.396535  0  3.522623  0  0  -0.379431  -0.357377  0  3.511275  0
N  N37  1  0.14806705  0.35307833  0.25783728  1  0  -0.431913  0  3.284278  0  0  -0.373157  0  3.515456  0  0  -0.396638  0  3.5224  0  0  -0.379568  -0.357513  0  3.510987  0
O  O38  1  0.63279575  0.55631159  0.88523630  1  0  -0.574844  0  1.972272  0  0  -0.539214  0  2.205911  0  0  -0.557098  0  2.19443  0  0  -0.362783  -0.527289  0  2.213531  0
O  O39  1  0.36720551  0.44368729  0.11477457  1  0  -0.57476  0  1.972684  0  0  -0.539148  0  2.206295  0  0  -0.557025  0  2.194821  0  0  -0.362728  -0.527223  0  2.213916  0
O  O40  1  0.43300892  0.59421626  0.65983949  1  0  -0.415041  0  1.966532  0  0  -0.374557  0  2.170559  0  0  -0.389169  0  2.166357  0  0  -0.236392  -0.364976  0  2.173889  0
O  O41  1  0.56699204  0.40577706  0.34016229  1  0  -0.415116  0  1.966948  0  0  -0.374648  0  2.170975  0  0  -0.389269  0  2.166785  0  0  -0.236457  -0.36507  0  2.174308  0
O  O42  1  0.92933769  0.97376142  0.16976782  1  0  -0.685606  0  2.019628  0  0  -0.621037  0  2.255982  0  0  -0.642866  0  2.239879  0  0  -0.325521  -0.605561  0  2.266599  0
O  O43  1  0.07065953  0.02624008  0.83023119  1  0  -0.685634  0  2.019659  0  0  -0.621041  0  2.255999  0  0  -0.642872  0  2.239899  0  0  -0.325511  -0.605566  0  2.26662  0
O  O44  1  0.56767453  0.02703848  0.21440853  1  0  -0.668286  0  2.009244  0  0  -0.610603  0  2.252672  0  0  -0.635003  0  2.241134  0  0  -0.31796  -0.593099  0  2.260003  0
O  O45  1  0.43232144  0.97296577  0.78559144  1  0  -0.668272  0  2.009323  0  0  -0.610601  0  2.252734  0  0  -0.635  0  2.241198  0  0  -0.317961  -0.593097  0  2.260068  0
O  O46  1  0.82748001  0.72797705  0.13433590  1  0  -0.713105  0  1.964701  0  0  -0.658808  0  2.213963  0  0  -0.680471  0  2.198269  0  0  -0.38233  -0.642891  0  2.223694  0
O  O47  1  0.17252000  0.27202443  0.86566279  1  0  -0.713121  0  1.964758  0  0  -0.658824  0  2.214008  0  0  -0.680487  0  2.198321  0  0  -0.382319  -0.642906  0  2.223742  0
O  O48  1  0.34448937  0.82882803  0.19140531  1  0  -0.895885  0  1.762803  0  0  -0.854297  0  1.920763  0  0  -0.870968  0  1.889651  0  0  -0.671004  -0.842321  0  1.942492  0
O  O49  1  0.65551142  0.17117482  0.80859322  1  0  -0.895977  0  1.762744  0  0  -0.854378  0  1.920683  0  0  -0.871051  0  1.88957  0  0  -0.67102  -0.842402  0  1.942416  0
O  O50  1  0.92192077  0.30453328  0.09346575  1  0  -0.864851  0  1.822572  0  0  -0.818444  0  1.989289  0  0  -0.836041  0  1.95796  0  0  -0.640006  -0.806242  0  2.011504  0
O  O51  1  0.07808361  0.69545862  0.90653288  1  0  -0.864778  0  1.822593  0  0  -0.818328  0  1.98931  0  0  -0.835952  0  1.957982  0  0  -0.639954  -0.806125  0  2.011526  0
