# generated using pymatgen
data_ZnH17C18(NO)4
_symmetry_space_group_name_H-M   'P 1'
_cell_length_a   10.96146705
_cell_length_b   13.01276584
_cell_length_c   14.44144884
_cell_angle_alpha   89.99957513
_cell_angle_beta   101.87164636
_cell_angle_gamma   89.99976182
_symmetry_Int_Tables_number   1
_chemical_formula_structural   ZnH17C18(NO)4
_chemical_formula_sum   'Zn4 H68 C72 N16 O16'
_cell_volume   2015.85419305
_cell_formula_units_Z   4
loop_
 _symmetry_equiv_pos_site_id
 _symmetry_equiv_pos_as_xyz
  1  'x, y, z'
loop_
 _atom_site_type_symbol
 _atom_site_label
 _atom_site_symmetry_multiplicity
 _atom_site_fract_x
 _atom_site_fract_y
 _atom_site_fract_z
 _atom_site_occupancy
 _atom_site_pbe_bader_charge
 _atom_site_pbe_bader_spin_density
 _atom_site_pbe_cm5_charge
 _atom_site_pbe_ddec_charge
 _atom_site_pbe_ddec_spin_density
 _atom_site_pbe_ddec_sum_bond_order
 _atom_site_pbe_magmom
Zn  Zn0  1  0.11296403  0.77166307  0.68299258  1  1.251906  0  0.68054  0.767584  0  2.40601  0
Zn  Zn1  1  0.88704169  0.27166218  0.81700865  1  1.251919  0  0.680557  0.767599  0  2.405985  0
Zn  Zn2  1  0.88704131  0.22833909  0.31700717  1  1.251892  0  0.680512  0.767518  0  2.406169  0
Zn  Zn3  1  0.11295899  0.72833768  0.18299174  1  1.251867  0  0.680546  0.767545  0  2.406035  0
H  H4  1  0.61790988  0.15095863  0.50172519  1  0.054725  0  0.096646  0.093011  0  1.051578  0
H  H5  1  0.38209394  0.65095061  0.99826962  1  0.05564  0  0.096649  0.093125  0  1.051448  0
H  H6  1  0.38208614  0.84904430  0.49827377  1  0.054613  0  0.096652  0.093047  0  1.051553  0
H  H7  1  0.61790582  0.34904233  0.00172647  1  0.054786  0  0.096656  0.093055  0  1.051548  0
H  H8  1  0.60445218  0.12317894  0.33131367  1  0.086869  0  0.093724  0.087259  0  1.063875  0
H  H9  1  0.39555075  0.62317821  0.16868219  1  0.086578  0  0.09371  0.087239  0  1.063781  0
H  H10  1  0.39554477  0.87682553  0.66868543  1  0.086866  0  0.093707  0.087217  0  1.063912  0
H  H11  1  0.60444155  0.37682472  0.83131341  1  0.086858  0  0.093717  0.08729  0  1.063819  0
H  H12  1  0.39681842  0.09663888  0.22374690  1  0.027412  0  0.09492  0.088571  0  1.026957  0
H  H13  1  0.60318469  0.59664116  0.27625055  1  0.027493  0  0.094899  0.088588  0  1.026952  0
H  H14  1  0.60317947  0.90336482  0.77625027  1  0.027478  0  0.094938  0.088606  0  1.026911  0
H  H15  1  0.39680480  0.40336254  0.72374875  1  0.027527  0  0.094867  0.088498  0  1.026951  0
H  H16  1  0.20567934  0.09779241  0.29128913  1  0.092857  0  0.103734  0.106715  0  1.046274  0
H  H17  1  0.79432376  0.59779382  0.20870901  1  0.092785  0  0.103762  0.106765  0  1.046193  0
H  H18  1  0.79431856  0.90221052  0.70870666  1  0.092842  0  0.103807  0.106833  0  1.046185  0
H  H19  1  0.20566757  0.40220603  0.79129543  1  0.09274  0  0.103786  0.106874  0  1.046034  0
H  H20  1  0.17988695  0.15661140  0.53166964  1  0.08004  0  0.119839  0.108761  0  0.977349  0
H  H21  1  0.82011866  0.65661135  0.96833235  1  0.080013  0  0.119895  0.108868  0  0.977452  0
H  H22  1  0.82010721  0.84338615  0.46832764  1  0.080004  0  0.119849  0.108795  0  0.977482  0
H  H23  1  0.17988384  0.34338620  0.03167595  1  0.079872  0  0.119866  0.108829  0  0.977519  0
H  H24  1  0.10575438  0.13742009  0.41348323  1  0.121937  0  0.11632  0.108537  0  1.027387  0
H  H25  1  0.89425030  0.63741217  0.08651490  1  0.121872  0  0.116284  0.108523  0  1.027203  0
H  H26  1  0.89424258  0.86258130  0.58651380  1  0.12194  0  0.116337  0.108533  0  1.027298  0
H  H27  1  0.10575033  0.36258154  0.91349310  1  0.121977  0  0.116305  0.10855  0  1.027296  0
H  H28  1  0.34619938  0.18934478  0.61469075  1  0.072242  0  0.119768  0.106469  0  0.967287  0
H  H29  1  0.65380879  0.68934829  0.88531142  1  0.072116  0  0.119729  0.106397  0  0.967274  0
H  H30  1  0.65380314  0.81065277  0.38531201  1  0.072214  0  0.119765  0.106477  0  0.967199  0
H  H31  1  0.34619653  0.31065003  0.11469247  1  0.072265  0  0.119744  0.106351  0  0.967289  0
H  H32  1  0.44566936  0.08107852  0.63887494  1  0.106992  0  0.116131  0.103454  0  0.993246  0
H  H33  1  0.55433871  0.58108103  0.86111755  1  0.107418  0  0.116137  0.103461  0  0.993138  0
H  H34  1  0.55433134  0.91891980  0.36112129  1  0.106991  0  0.116133  0.103483  0  0.993155  0
H  H35  1  0.44566571  0.41891729  0.13888067  1  0.107056  0  0.116121  0.103453  0  0.993219  0
H  H36  1  0.16152591  0.01120453  0.64287195  1  0.192069  0  0.141524  0.123279  0  1.000798  0
H  H37  1  0.83847145  0.51120149  0.85712345  1  0.193282  0  0.141498  0.123225  0  1.000862  0
H  H38  1  0.83847294  0.98879686  0.35712053  1  0.193248  0  0.141492  0.123254  0  1.000803  0
H  H39  1  0.16153947  0.48879914  0.14288203  1  0.19325  0  0.141518  0.123314  0  1.00069  0
H  H40  1  0.09774333  0.75898495  0.45557585  1  0.10875  0  0.122262  0.123954  0  1.016694  0
H  H41  1  0.90224926  0.25898164  0.04442578  1  0.108706  0  0.122234  0.123935  0  1.016705  0
H  H42  1  0.90226202  0.24101260  0.54442183  1  0.10878  0  0.12221  0.123821  0  1.016695  0
H  H43  1  0.09774489  0.74101438  0.95557288  1  0.108808  0  0.1222  0.123793  0  1.016748  0
H  H44  1  0.12649457  0.93351086  0.35268105  1  0.160822  0  0.129593  0.139945  0  1.004631  0
H  H45  1  0.87348936  0.43351065  0.14731319  1  0.160818  0  0.129544  0.139902  0  1.004675  0
H  H46  1  0.87349402  0.06648669  0.64731188  1  0.160938  0  0.129577  0.139902  0  1.004718  0
H  H47  1  0.12649452  0.56648152  0.85268868  1  0.160732  0  0.129568  0.139898  0  1.004761  0
H  H48  1  0.65118297  0.12077568  0.74040405  1  0.15701  0  0.139744  0.111216  0  1.000255  0
H  H49  1  0.34882851  0.62078205  0.75959565  1  0.157104  0  0.139734  0.111243  0  1.000337  0
H  H50  1  0.34882240  0.87922571  0.25959224  1  0.157011  0  0.139705  0.111167  0  1.000234  0
H  H51  1  0.65117775  0.37921934  0.24040702  1  0.157061  0  0.139721  0.111172  0  1.000334  0
H  H52  1  0.71364707  0.42530685  0.66226070  1  0.190176  0  0.123522  0.130185  0  1.013422  0
H  H53  1  0.28635565  0.92530895  0.83774804  1  0.190316  0  0.123518  0.130168  0  1.013387  0
H  H54  1  0.28635174  0.57469684  0.33773870  1  0.190133  0  0.123541  0.130208  0  1.013462  0
H  H55  1  0.71365060  0.07469091  0.16225670  1  0.190243  0  0.123508  0.130212  0  1.013366  0
H  H56  1  0.48371141  0.35735980  0.55578109  1  0.103728  0  0.132482  0.135527  0  0.977932  0
H  H57  1  0.51629648  0.85736022  0.94422407  1  0.103644  0  0.132451  0.135483  0  0.977907  0
H  H58  1  0.51628647  0.64264160  0.44421954  1  0.103742  0  0.132511  0.135523  0  0.977957  0
H  H59  1  0.48370883  0.14263887  0.05578121  1  0.103694  0  0.132476  0.135551  0  0.977892  0
H  H60  1  0.85792880  0.94449213  0.85590995  1  0.076284  0  0.098107  0.119986  0  1.001177  0
H  H61  1  0.14206913  0.44448447  0.64409583  1  0.076361  0  0.098079  0.11996  0  1.001147  0
H  H62  1  0.14207654  0.05550696  0.14408980  1  0.076237  0  0.098129  0.120003  0  1.001096  0
H  H63  1  0.85793155  0.55551539  0.35590318  1  0.076373  0  0.098088  0.11996  0  1.001131  0
H  H64  1  0.94437646  0.84620514  0.92225775  1  0.077102  0  0.094319  0.115014  0  1.035997  0
H  H65  1  0.05562784  0.34620217  0.57773584  1  0.076982  0  0.09426  0.114941  0  1.036045  0
H  H66  1  0.05562887  0.15379702  0.07774407  1  0.077113  0  0.094329  0.115015  0  1.036011  0
H  H67  1  0.94436818  0.65379845  0.42226381  1  0.076974  0  0.094257  0.114934  0  1.036034  0
H  H68  1  0.12170233  0.98874103  0.96455015  1  0.050312  0  0.098426  0.08618  0  0.966922  0
H  H69  1  0.87830089  0.48874326  0.53545340  1  0.050379  0  0.098416  0.086139  0  0.966953  0
H  H70  1  0.87830114  0.01126190  0.03545137  1  0.050376  0  0.098396  0.086122  0  0.966908  0
H  H71  1  0.12169977  0.51125967  0.46454907  1  0.050373  0  0.098393  0.086119  0  0.966911  0
C  C72  1  0.30306278  0.11875261  0.43468389  1  0.038127  0  -0.006971  0.054824  0  3.918445  0
C  C73  1  0.69693736  0.61875246  0.06531572  1  0.037892  0  -0.007059  0.054682  0  3.918715  0
C  C74  1  0.69693231  0.88125109  0.56531284  1  0.037957  0  -0.006973  0.05483  0  3.918459  0
C  C75  1  0.30306051  0.38124278  0.93468631  1  0.037853  0  -0.00699  0.054811  0  3.918773  0
C  C76  1  0.41963841  0.13608053  0.49468311  1  -0.06016  0  -0.010034  0.040913  0  3.931563  0
C  C77  1  0.58036910  0.63607820  0.00531132  1  -0.060083  0  -0.009983  0.040926  0  3.931688  0
C  C78  1  0.58035575  0.86392317  0.50531278  1  -0.060113  0  -0.01001  0.040977  0  3.931414  0
C  C79  1  0.41963344  0.36391704  0.99469006  1  -0.060092  0  -0.009942  0.040994  0  3.931431  0
C  C80  1  0.52704475  0.13700575  0.45610231  1  0.001401  0  -0.09811  -0.136919  0  3.992654  0
C  C81  1  0.47295528  0.63699886  0.04389370  1  0.000468  0  -0.098189  -0.137119  0  3.992678  0
C  C82  1  0.47295127  0.86299949  0.54389734  1  0.001586  0  -0.098122  -0.137015  0  3.992666  0
C  C83  1  0.52704168  0.36299484  0.95610264  1  0.001304  0  -0.098227  -0.137013  0  3.992637  0
C  C84  1  0.51980870  0.12161819  0.35960256  1  -0.069421  0  -0.100098  -0.088363  0  4.037957  0
C  C85  1  0.48019892  0.62161510  0.14039198  1  -0.069338  0  -0.099974  -0.088224  0  4.03802  0
C  C86  1  0.48019106  0.87838474  0.64039491  1  -0.06998  0  -0.100054  -0.088238  0  4.037996  0
C  C87  1  0.51979525  0.37838168  0.85960529  1  -0.069727  0  -0.100051  -0.088438  0  4.03779  0
C  C88  1  0.40384123  0.10668023  0.29963223  1  -0.030887  0  -0.100352  -0.096477  0  4.048438  0
C  C89  1  0.59615902  0.60668239  0.20036470  1  -0.030535  0  -0.100268  -0.096417  0  4.048396  0
C  C90  1  0.59615666  0.89332347  0.70036564  1  -0.03058  0  -0.100368  -0.096511  0  4.048393  0
C  C91  1  0.40383046  0.39332054  0.79963599  1  -0.030227  0  -0.100163  -0.096151  0  4.04825  0
C  C92  1  0.29694255  0.10602321  0.33749955  1  -0.110231  0  -0.0878  -0.12036  0  3.970808  0
C  C93  1  0.70306051  0.60602147  0.16249575  1  -0.110179  0  -0.087868  -0.120418  0  3.970921  0
C  C94  1  0.70305629  0.89398356  0.66249570  1  -0.110131  0  -0.087866  -0.120514  0  3.970877  0
C  C95  1  0.29693456  0.39397608  0.83750651  1  -0.110246  0  -0.087951  -0.120705  0  3.9713  0
C  C96  1  0.18231240  0.10999358  0.46893479  1  0.270785  0  -0.046952  -0.111884  0  3.875099  0
C  C97  1  0.81768877  0.60999253  0.03105950  1  0.270915  0  -0.046936  -0.111853  0  3.875052  0
C  C98  1  0.81768085  0.89000627  0.53105957  1  0.271034  0  -0.047038  -0.111867  0  3.875243  0
C  C99  1  0.18231281  0.39000425  0.96894588  1  0.270858  0  -0.046962  -0.111927  0  3.875368  0
C  C100  1  0.43120889  0.15410468  0.59977755  1  0.299036  0  -0.040078  -0.105353  0  3.896156  0
C  C101  1  0.56879676  0.65410683  0.90022099  1  0.298571  0  -0.040115  -0.105279  0  3.896115  0
C  C102  1  0.56878994  0.84589594  0.40022047  1  0.298887  0  -0.040101  -0.105412  0  3.895926  0
C  C103  1  0.43120764  0.34589072  0.09977999  1  0.298702  0  -0.040057  -0.105212  0  3.89609  0
C  C104  1  0.15349678  0.96556763  0.57897523  1  0.95808  0  0.141914  0.078845  0  3.910622  0
C  C105  1  0.84650107  0.46556525  0.92101654  1  0.956726  0  0.141936  0.078903  0  3.91044  0
C  C106  1  0.84650485  0.03443222  0.42102047  1  0.957066  0  0.141933  0.078887  0  3.910836  0
C  C107  1  0.15350426  0.53443614  0.07898459  1  0.956723  0  0.141889  0.078789  0  3.910802  0
C  C108  1  0.11852165  0.83691213  0.47987398  1  0.403456  0  0.001705  -0.026279  0  3.97509  0
C  C109  1  0.88147133  0.33691063  0.02012442  1  0.403441  0  0.001751  -0.026437  0  3.975304  0
C  C110  1  0.88147625  0.16308619  0.52012112  1  0.403377  0  0.001656  -0.026249  0  3.975173  0
C  C111  1  0.11852467  0.66308307  0.97987661  1  0.403371  0  0.001686  -0.026244  0  3.975186  0
C  C112  1  0.13388882  0.92258281  0.42803765  1  0.317356  0  0.004433  -0.10717  0  3.904699  0
C  C113  1  0.86610356  0.42258017  0.07195870  1  0.317483  0  0.004483  -0.10699  0  3.904702  0
C  C114  1  0.86610629  0.07741628  0.57195632  1  0.317582  0  0.004442  -0.10712  0  3.904787  0
C  C115  1  0.13388779  0.57741431  0.92804021  1  0.317698  0  0.004433  -0.107103  0  3.904794  0
C  C116  1  0.63768006  0.19520507  0.70595097  1  0.981225  0  0.148293  0.090999  0  3.909065  0
C  C117  1  0.36232995  0.69520957  0.79404938  1  0.981281  0  0.148376  0.091012  0  3.909002  0
C  C118  1  0.36232250  0.80479632  0.29404695  1  0.980947  0  0.148334  0.091058  0  3.908961  0
C  C119  1  0.63767632  0.30479029  0.20595120  1  0.981371  0  0.148411  0.091133  0  3.909037  0
C  C120  1  0.66494388  0.35274358  0.66263399  1  0.359925  0  0.002206  -0.035795  0  3.989848  0
C  C121  1  0.33506309  0.85274474  0.83737383  1  0.360175  0  0.002196  -0.035739  0  3.989997  0
C  C122  1  0.33505214  0.64725628  0.33736427  1  0.359981  0  0.002184  -0.035878  0  3.989743  0
C  C123  1  0.66494502  0.14725435  0.16263120  1  0.359707  0  0.002204  -0.035908  0  3.989987  0
C  C124  1  0.55224947  0.32044032  0.61050028  1  0.30222  0  0.003744  -0.110737  0  3.936813  0
C  C125  1  0.44775498  0.82044220  0.88950043  1  0.30265  0  0.003737  -0.110715  0  3.937009  0
C  C126  1  0.44775121  0.67956184  0.38950011  1  0.302285  0  0.003737  -0.11071  0  3.936805  0
C  C127  1  0.55225035  0.17955612  0.11050208  1  0.302226  0  0.003712  -0.110786  0  3.93696  0
C  C128  1  0.01694894  0.89587154  0.80276650  1  1.540692  0  0.190972  0.607953  0  4.186828  0
C  C129  1  0.98305312  0.39584594  0.69723055  1  1.540297  0  0.19105  0.607853  0  4.186714  0
C  C130  1  0.98306013  0.10412909  0.19723522  1  1.540694  0  0.190804  0.607896  0  4.187041  0
C  C131  1  0.01694849  0.60415391  0.30276998  1  1.539835  0  0.191097  0.607954  0  4.186551  0
C  C132  1  0.95372290  0.91800093  0.88470176  1  -0.094277  0  -0.17619  -0.331644  0  3.941165  0
C  C133  1  0.04627898  0.41799461  0.61529789  1  -0.094327  0  -0.176194  -0.331648  0  3.941103  0
C  C134  1  0.04627871  0.08200046  0.11529877  1  -0.094442  0  -0.176204  -0.331701  0  3.941339  0
C  C135  1  0.95372169  0.58200678  0.38470319  1  -0.093748  0  -0.176214  -0.331646  0  3.941004  0
C  C136  1  0.02023966  0.00087441  0.95132645  1  0.024852  0  -0.085061  -0.096046  0  3.837845  0
C  C137  1  0.97976333  0.50087420  0.54867684  1  0.024886  0  -0.085027  -0.095914  0  3.837755  0
C  C138  1  0.97976473  0.99912621  0.04867661  1  0.003079  0  -0.084987  -0.095877  0  3.837791  0
C  C139  1  0.02023548  0.49912797  0.45132463  1  0.002545  0  -0.08498  -0.095911  0  3.837772  0
C  C140  1  0.99652054  0.10803845  0.90764235  1  1.562648  0  0.197101  0.596245  0  4.141629  0
C  C141  1  0.00348725  0.60803278  0.59236653  1  1.563049  0  0.197273  0.596474  0  4.141161  0
C  C142  1  0.00348105  0.89196448  0.09236095  1  1.562468  0  0.197178  0.596464  0  4.141506  0
C  C143  1  0.99651528  0.39196862  0.40763623  1  1.563013  0  0.197131  0.596331  0  4.141311  0
N  N144  1  0.13070692  0.86463681  0.57383248  1  -1.270733  0  -0.357977  -0.292464  0  3.619074  0
N  N145  1  0.86929162  0.36463431  0.92616630  1  -1.270818  0  -0.357967  -0.292302  0  3.618949  0
N  N146  1  0.86929472  0.13536151  0.42616183  1  -1.271171  0  -0.357854  -0.29223  0  3.619106  0
N  N147  1  0.13071185  0.63536324  0.07383522  1  -1.270797  0  -0.357884  -0.292255  0  3.619184  0
N  N148  1  0.15661921  0.00309774  0.49195630  1  -1.211013  0  -0.238331  0.047969  0  3.762195  0
N  N149  1  0.84337244  0.50309602  0.00804134  1  -1.210787  0  -0.238323  0.047833  0  3.762216  0
N  N150  1  0.84337403  0.99690135  0.50803806  1  -1.211012  0  -0.238268  0.047821  0  3.762514  0
N  N151  1  0.15662634  0.49689923  0.99196359  1  -1.210803  0  -0.238236  0.047885  0  3.762327  0
N  N152  1  0.71700069  0.27377771  0.72199914  1  -1.239179  0  -0.350097  -0.28139  0  3.578617  0
N  N153  1  0.28300314  0.77378031  0.77800525  1  -1.239381  0  -0.350055  -0.281247  0  3.578495  0
N  N154  1  0.28300000  0.72622522  0.27799849  1  -1.238977  0  -0.35006  -0.281308  0  3.578452  0
N  N155  1  0.71700313  0.22622032  0.22199742  1  -1.239123  0  -0.350099  -0.281305  0  3.578434  0
N  N156  1  0.53623340  0.22071124  0.63893086  1  -1.232415  0  -0.242214  0.043156  0  3.795703  0
N  N157  1  0.46377736  0.72071714  0.86106806  1  -1.233088  0  -0.24224  0.042946  0  3.79577  0
N  N158  1  0.46376449  0.77928708  0.36106632  1  -1.232339  0  -0.242279  0.043093  0  3.795807  0
N  N159  1  0.53623076  0.27928271  0.13893490  1  -1.2324  0  -0.242279  0.043052  0  3.795838  0
O  O160  1  0.99905036  0.80342692  0.76836639  1  -1.171825  0  -0.349016  -0.564262  0  2.281934  0
O  O161  1  0.00094127  0.30340135  0.73161092  1  -1.171628  0  -0.349045  -0.564106  0  2.281851  0
O  O162  1  0.00095591  0.19657293  0.23163489  1  -1.171893  0  -0.348931  -0.564236  0  2.282016  0
O  O163  1  0.99906126  0.69660081  0.26839115  1  -1.171185  0  -0.349086  -0.564149  0  2.281777  0
O  O164  1  0.08142818  0.96278046  0.77268253  1  -1.194528  0  -0.332407  -0.567862  0  2.119065  0
O  O165  1  0.91858263  0.46275715  0.72733140  1  -1.194244  0  -0.332451  -0.567892  0  2.118993  0
O  O166  1  0.91858179  0.03721786  0.22732418  1  -1.194361  0  -0.332348  -0.567844  0  2.119096  0
O  O167  1  0.08141710  0.53724501  0.27266953  1  -1.194304  0  -0.332458  -0.567951  0  2.119121  0
O  O168  1  0.88541048  0.12498912  0.85685117  1  -1.185488  0  -0.354972  -0.576117  0  2.24496  0
O  O169  1  0.11459252  0.62498419  0.64315823  1  -1.185627  0  -0.354944  -0.576092  0  2.244969  0
O  O170  1  0.11459205  0.87501227  0.14315090  1  -1.185486  0  -0.35499  -0.576198  0  2.244957  0
O  O171  1  0.88541003  0.37501643  0.35684108  1  -1.18556  0  -0.354958  -0.576094  0  2.244935  0
O  O172  1  0.07845656  0.17628294  0.92516636  1  -1.189955  0  -0.335317  -0.567476  0  2.136242  0
O  O173  1  0.92154609  0.67628194  0.57484056  1  -1.190327  0  -0.335489  -0.567696  0  2.1358  0
O  O174  1  0.92154316  0.82371615  0.07483803  1  -1.18983  0  -0.335383  -0.567625  0  2.136173  0
O  O175  1  0.07845363  0.32372022  0.42516453  1  -1.190323  0  -0.335411  -0.567619  0  2.135931  0
