# generated using pymatgen
data_CuH4C3BrN
_symmetry_space_group_name_H-M   'P 1'
_cell_length_a   6.41960020
_cell_length_b   8.66869384
_cell_length_c   16.69309121
_cell_angle_alpha   89.99977014
_cell_angle_beta   90.00005282
_cell_angle_gamma   96.92280869
_symmetry_Int_Tables_number   1
_chemical_formula_structural   CuH4C3BrN
_chemical_formula_sum   'Cu8 H32 C24 Br8 N8'
_cell_volume   922.19033017
_cell_formula_units_Z   8
loop_
 _symmetry_equiv_pos_site_id
 _symmetry_equiv_pos_as_xyz
  1  'x, y, z'
loop_
 _atom_site_type_symbol
 _atom_site_label
 _atom_site_symmetry_multiplicity
 _atom_site_fract_x
 _atom_site_fract_y
 _atom_site_fract_z
 _atom_site_occupancy
 _atom_site_hle17_bader_spin_density
 _atom_site_hle17_ddec_charge
 _atom_site_hle17_ddec_spin_density
 _atom_site_hle17_ddec_sum_bond_order
 _atom_site_hle17_magmom
 _atom_site_hse06_10hf_bader_spin_density
 _atom_site_hse06_10hf_ddec_charge
 _atom_site_hse06_10hf_ddec_spin_density
 _atom_site_hse06_10hf_ddec_sum_bond_order
 _atom_site_hse06_10hf_magmom
 _atom_site_hse06_bader_spin_density
 _atom_site_hse06_ddec_charge
 _atom_site_hse06_ddec_spin_density
 _atom_site_hse06_ddec_sum_bond_order
 _atom_site_hse06_magmom
 _atom_site_pbe_bader_spin_density
 _atom_site_pbe_cm5_charge
 _atom_site_pbe_ddec_charge
 _atom_site_pbe_ddec_spin_density
 _atom_site_pbe_ddec_sum_bond_order
 _atom_site_pbe_magmom
Cu  Cu0  1  0.22017650  0.79102941  0.63426693  1  0  0.456189  0  2.021747  0  0  0.398953  0  2.471671  0  0  0.406355  0  2.4286  0  0  0.448638  0.393743  0  2.50085  0
Cu  Cu1  1  0.77983158  0.70896597  0.13426264  1  0  0.456267  0  2.021707  0  0  0.39902  0  2.47165  0  0  0.406401  0  2.428599  0  0  0.448674  0.393808  0  2.500841  0
Cu  Cu2  1  0.77981941  0.20897682  0.36573321  1  0  0.456325  0  2.021746  0  0  0.399142  0  2.47159  0  0  0.406531  0  2.428523  0  0  0.448694  0.393934  0  2.500762  0
Cu  Cu3  1  0.22017202  0.29103090  0.86573630  1  0  0.456271  0  2.021691  0  0  0.399029  0  2.471644  0  0  0.406432  0  2.428561  0  0  0.448638  0.393817  0  2.50083  0
Cu  Cu4  1  0.24188036  0.98171445  0.50808098  1  0  0.311714  0  2.078344  0  0  0.232783  0  2.568706  0  0  0.249725  0  2.508858  0  0  0.196186  0.222451  0  2.60914  0
Cu  Cu5  1  0.75812625  0.51827484  0.00807531  1  0  0.311694  0  2.078339  0  0  0.232768  0  2.568713  0  0  0.24973  0  2.508843  0  0  0.196176  0.222421  0  2.609162  0
Cu  Cu6  1  0.75812075  0.01828592  0.49191916  1  0  0.311723  0  2.078333  0  0  0.232804  0  2.568691  0  0  0.249754  0  2.508854  0  0  0.19619  0.22246  0  2.609117  0
Cu  Cu7  1  0.24187539  0.48171972  0.99192182  1  0  0.311708  0  2.078376  0  0  0.232786  0  2.568734  0  0  0.249727  0  2.508894  0  0  0.196173  0.222457  0  2.609142  0
H  H8  1  0.57296640  0.57875893  0.84673475  1  0  0.091536  0  0.974835  0  0  0.093253  0  1.053916  0  0  0.096957  0  1.048749  0  0  0.116734  0.09027  0  1.058014  0
H  H9  1  0.42701084  0.92124336  0.34673947  1  0  0.091617  0  0.974676  0  0  0.093292  0  1.053791  0  0  0.09704  0  1.048585  0  0  0.116725  0.090309  0  1.057891  0
H  H10  1  0.42702893  0.42122637  0.15326239  1  0  0.091611  0  0.974684  0  0  0.093237  0  1.05385  0  0  0.09699  0  1.048637  0  0  0.116686  0.090258  0  1.057938  0
H  H11  1  0.57298589  0.07876752  0.65326425  1  0  0.091587  0  0.974692  0  0  0.093286  0  1.053801  0  0  0.097006  0  1.048619  0  0  0.116733  0.090302  0  1.057898  0
H  H12  1  0.57988479  0.47427747  0.59872568  1  0  0.117469  0  0.974354  0  0  0.127649  0  1.034146  0  0  0.129603  0  1.034628  0  0  0.109316  0.126124  0  1.03412  0
H  H13  1  0.42012992  0.02571680  0.09872470  1  0  0.117505  0  0.974339  0  0  0.127626  0  1.034179  0  0  0.129581  0  1.034659  0  0  0.109334  0.126097  0  1.034148  0
H  H14  1  0.42010416  0.52573348  0.40127146  1  0  0.117625  0  0.974186  0  0  0.127747  0  1.034037  0  0  0.129699  0  1.034526  0  0  0.109375  0.126223  0  1.034009  0
H  H15  1  0.57988563  0.97426834  0.90127423  1  0  0.117468  0  0.974391  0  0  0.12764  0  1.034182  0  0  0.129593  0  1.034667  0  0  0.109308  0.12611  0  1.034161  0
H  H16  1  0.27056516  0.27422419  0.67324831  1  0  0.100864  0  1.005949  0  0  0.108994  0  1.070298  0  0  0.111455  0  1.069908  0  0  0.096287  0.107142  0  1.070741  0
H  H17  1  0.72944016  0.22576847  0.17325116  1  0  0.100803  0  1.005993  0  0  0.108971  0  1.070315  0  0  0.111429  0  1.069927  0  0  0.096262  0.107116  0  1.070758  0
H  H18  1  0.72943357  0.72577156  0.32674284  1  0  0.100806  0  1.005948  0  0  0.108993  0  1.070245  0  0  0.111438  0  1.069871  0  0  0.096272  0.107142  0  1.070693  0
H  H19  1  0.27057393  0.77422599  0.82674838  1  0  0.100791  0  1.006164  0  0  0.108963  0  1.070449  0  0  0.111411  0  1.070073  0  0  0.096305  0.10711  0  1.070895  0
H  H20  1  0.73973086  0.77566510  0.66579443  1  0  0.08259  0  0.964399  0  0  0.091398  0  1.037171  0  0  0.092019  0  1.037685  0  0  0.095754  0.090825  0  1.037011  0
H  H21  1  0.26027040  0.72434408  0.16579775  1  0  0.082571  0  0.964335  0  0  0.091381  0  1.037183  0  0  0.092003  0  1.037692  0  0  0.095828  0.090809  0  1.037028  0
H  H22  1  0.26026681  0.22434229  0.33420631  1  0  0.08259  0  0.964322  0  0  0.091373  0  1.037183  0  0  0.091995  0  1.037693  0  0  0.095778  0.090801  0  1.03702  0
H  H23  1  0.73972583  0.27565517  0.83420897  1  0  0.082673  0  0.964403  0  0  0.091414  0  1.037273  0  0  0.092042  0  1.037782  0  0  0.095792  0.090836  0  1.037118  0
H  H24  1  0.83187785  0.74407834  0.76480909  1  0  0.091134  0  0.924418  0  0  0.105449  0  0.98494  0  0  0.106466  0  0.98495  0  0  0.106399  0.104624  0  0.985098  0
H  H25  1  0.16810846  0.75593260  0.26480393  1  0  0.091033  0  0.924507  0  0  0.105405  0  0.985039  0  0  0.106425  0  0.985047  0  0  0.106406  0.104579  0  0.985207  0
H  H26  1  0.16812244  0.25591739  0.23519344  1  0  0.0911  0  0.924396  0  0  0.105443  0  0.984943  0  0  0.106461  0  0.984953  0  0  0.106424  0.104619  0  0.985109  0
H  H27  1  0.83189233  0.24407477  0.73520099  1  0  0.091064  0  0.924565  0  0  0.105408  0  0.985055  0  0  0.106432  0  0.985061  0  0  0.106409  0.104577  0  0.985217  0
H  H28  1  0.06055008  0.54856963  0.71020578  1  0  0.099038  0  0.959876  0  0  0.10683  0  1.027118  0  0  0.108998  0  1.02653  0  0  0.092052  0.105193  0  1.027727  0
H  H29  1  0.93944836  0.95144043  0.21019380  1  0  0.0991  0  0.959682  0  0  0.106905  0  1.026904  0  0  0.109074  0  1.02631  0  0  0.092076  0.105266  0  1.027514  0
H  H30  1  0.93945164  0.45143423  0.28979316  1  0  0.099118  0  0.959885  0  0  0.106865  0  1.027147  0  0  0.109034  0  1.026557  0  0  0.092061  0.105231  0  1.027763  0
H  H31  1  0.06054943  0.04855881  0.78980993  1  0  0.099106  0  0.959805  0  0  0.106884  0  1.027029  0  0  0.109053  0  1.026437  0  0  0.092089  0.105251  0  1.027635  0
H  H32  1  0.91154246  0.67211067  0.54724432  1  0  0.136339  0  0.966068  0  0  0.14496  0  1.033356  0  0  0.14829  0  1.030761  0  0  0.086424  0.142378  0  1.035612  0
H  H33  1  0.08847106  0.82788178  0.04723838  1  0  0.136293  0  0.966047  0  0  0.144963  0  1.033289  0  0  0.148293  0  1.030693  0  0  0.086408  0.14238  0  1.035546  0
H  H34  1  0.08845636  0.32789438  0.45275461  1  0  0.13631  0  0.96616  0  0  0.144989  0  1.033373  0  0  0.14832  0  1.030775  0  0  0.086404  0.142403  0  1.035625  0
H  H35  1  0.91153014  0.17212790  0.95276594  1  0  0.136182  0  0.966129  0  0  0.144846  0  1.033402  0  0  0.148179  0  1.030801  0  0  0.086359  0.142259  0  1.035658  0
H  H36  1  0.11383620  0.53856480  0.56291313  1  0  0.137978  0  0.956299  0  0  0.152025  0  1.01186  0  0  0.154117  0  1.011664  0  0  0.092418  0.150512  0  1.012088  0
H  H37  1  0.88616613  0.96143462  0.06290051  1  0  0.137912  0  0.95635  0  0  0.151963  0  1.011926  0  0  0.154061  0  1.011723  0  0  0.092407  0.150453  0  1.012156  0
H  H38  1  0.88616094  0.46144841  0.43708461  1  0  0.138025  0  0.956265  0  0  0.152093  0  1.011791  0  0  0.154166  0  1.011618  0  0  0.092394  0.150581  0  1.012022  0
H  H39  1  0.11383985  0.03856689  0.93710562  1  0  0.137908  0  0.95634  0  0  0.151984  0  1.011879  0  0  0.154079  0  1.011683  0  0  0.092396  0.150473  0  1.01211  0
C  C40  1  0.52964818  0.52268779  0.79009880  1  0  0.159177  0  3.653411  0  0  0.10233  0  3.921322  0  0  0.115752  0  3.932749  0  0  0.133215  0.093593  0  3.913723  0
C  C41  1  0.47034181  0.97731712  0.29009982  1  0  0.159012  0  3.65333  0  0  0.102221  0  3.921245  0  0  0.115609  0  3.932634  0  0  0.13317  0.093479  0  3.913649  0
C  C42  1  0.47035014  0.47730562  0.20989894  1  0  0.159135  0  3.653365  0  0  0.10235  0  3.921293  0  0  0.115734  0  3.932678  0  0  0.133233  0.093595  0  3.913706  0
C  C43  1  0.52966053  0.02269023  0.70990331  1  0  0.159104  0  3.653011  0  0  0.102258  0  3.920969  0  0  0.115667  0  3.932379  0  0  0.133135  0.093522  0  3.913359  0
C  C44  1  0.53032194  0.46639315  0.66069204  1  0  -0.065634  0  3.674409  0  0  -0.102587  0  3.925656  0  0  -0.101685  0  3.94597  0  0  -0.007497  -0.103263  0  3.912393  0
C  C45  1  0.46968438  0.03360541  0.16069105  1  0  -0.065658  0  3.674166  0  0  -0.102534  0  3.925408  0  0  -0.10163  0  3.945714  0  0  -0.007485  -0.103198  0  3.912128  0
C  C46  1  0.46967843  0.53361189  0.33930450  1  0  -0.065713  0  3.674344  0  0  -0.102612  0  3.92564  0  0  -0.101711  0  3.945949  0  0  -0.007525  -0.103284  0  3.912377  0
C  C47  1  0.53032037  0.96638913  0.83931148  1  0  -0.065696  0  3.674516  0  0  -0.102637  0  3.925759  0  0  -0.101737  0  3.94607  0  0  -0.007508  -0.10331  0  3.912504  0
C  C48  1  0.37893836  0.36720987  0.69858145  1  0  -0.010969  0  3.744491  0  0  -0.038286  0  4.006851  0  0  -0.038228  0  4.027031  0  0  -0.014635  -0.038355  0  3.993466  0
C  C49  1  0.62106979  0.13278958  0.19858388  1  0  -0.010909  0  3.744305  0  0  -0.038264  0  4.006664  0  0  -0.038204  0  4.026842  0  0  -0.014621  -0.038331  0  3.993267  0
C  C50  1  0.62106328  0.63278469  0.30141209  1  0  -0.010888  0  3.744381  0  0  -0.038284  0  4.006767  0  0  -0.038213  0  4.026954  0  0  -0.014603  -0.038357  0  3.993391  0
C  C51  1  0.37893713  0.86720843  0.80141805  1  0  -0.010947  0  3.744589  0  0  -0.038289  0  4.006933  0  0  -0.03822  0  4.027118  0  0  -0.014678  -0.038362  0  3.993556  0
C  C52  1  0.79591004  0.68986348  0.70628973  1  0  -0.008186  0  3.643401  0  0  -0.066769  0  3.890164  0  0  -0.063141  0  3.900982  0  0  -0.06274  -0.069189  0  3.883023  0
C  C53  1  0.20405867  0.81012822  0.20628745  1  0  -0.007866  0  3.643231  0  0  -0.066669  0  3.890329  0  0  -0.063046  0  3.901146  0  0  -0.062829  -0.069086  0  3.883204  0
C  C54  1  0.20406589  0.31012662  0.29371101  1  0  -0.007896  0  3.643177  0  0  -0.066621  0  3.890157  0  0  -0.062994  0  3.900969  0  0  -0.062819  -0.069042  0  3.883024  0
C  C55  1  0.79593290  0.18987107  0.79371568  1  0  -0.008051  0  3.643493  0  0  -0.066661  0  3.890378  0  0  -0.06305  0  3.901212  0  0  -0.0628  -0.06905  0  3.883204  0
C  C56  1  0.98266877  0.62460297  0.67071223  1  0  -0.076738  0  3.709415  0  0  -0.095571  0  4.008085  0  0  -0.091144  0  4.015405  0  0  -0.157036  -0.098485  0  4.002957  0
C  C57  1  0.01734569  0.87540143  0.17071036  1  0  -0.076819  0  3.709307  0  0  -0.09559  0  4.008019  0  0  -0.091156  0  4.015332  0  0  -0.157022  -0.098499  0  4.002887  0
C  C58  1  0.01733607  0.37540087  0.32928191  1  0  -0.076977  0  3.709675  0  0  -0.095684  0  4.008318  0  0  -0.091253  0  4.01563  0  0  -0.157063  -0.098607  0  4.003202  0
C  C59  1  0.98265407  0.12460013  0.82929037  1  0  -0.076888  0  3.709307  0  0  -0.09568  0  4.007978  0  0  -0.091246  0  4.015296  0  0  -0.157053  -0.098608  0  4.002855  0
C  C60  1  0.01465439  0.61943005  0.58852661  1  0  -0.305475  0  3.675597  0  0  -0.354334  0  3.956489  0  0  -0.352929  0  3.958979  0  0  -0.246674  -0.355151  0  3.954948  0
C  C61  1  0.98535184  0.88056450  0.08852379  1  0  -0.305469  0  3.675543  0  0  -0.354366  0  3.956433  0  0  -0.352975  0  3.958936  0  0  -0.246692  -0.355184  0  3.954896  0
C  C62  1  0.98534287  0.38057501  0.41146813  1  0  -0.305523  0  3.675779  0  0  -0.35446  0  3.956622  0  0  -0.353033  0  3.959119  0  0  -0.246603  -0.355268  0  3.955076  0
C  C63  1  0.01465185  0.11944167  0.91147934  1  0  -0.305325  0  3.675445  0  0  -0.354259  0  3.956332  0  0  -0.352863  0  3.958836  0  0  -0.24664  -0.355068  0  3.954788  0
Br  Br64  1  0.48362357  0.78630631  0.52099496  1  0  -0.434222  0  1.530883  0  0  -0.357887  0  1.935047  0  0  -0.375489  0  1.894746  0  0  -0.211  -0.345869  0  1.96292  0
Br  Br65  1  0.51637942  0.71368874  0.02099478  1  0  -0.434203  0  1.530856  0  0  -0.357881  0  1.935038  0  0  -0.375481  0  1.894729  0  0  -0.210992  -0.34586  0  1.962912  0
Br  Br66  1  0.51637422  0.21369294  0.47900638  1  0  -0.434246  0  1.530922  0  0  -0.357934  0  1.935107  0  0  -0.375531  0  1.894796  0  0  -0.210996  -0.345915  0  1.962975  0
Br  Br67  1  0.48362926  0.28631042  0.97900356  1  0  -0.43422  0  1.53093  0  0  -0.357879  0  1.935101  0  0  -0.375484  0  1.894793  0  0  -0.210992  -0.345862  0  1.962971  0
Br  Br68  1  0.00386803  0.06638685  0.60653768  1  0  -0.468811  0  1.494579  0  0  -0.397326  0  1.891355  0  0  -0.415494  0  1.852845  0  0  -0.23058  -0.384446  0  1.917603  0
Br  Br69  1  0.99613975  0.43361206  0.10653713  1  0  -0.468828  0  1.494718  0  0  -0.397351  0  1.891525  0  0  -0.415508  0  1.852991  0  0  -0.230576  -0.384464  0  1.917766  0
Br  Br70  1  0.99612739  0.93360775  0.39346425  1  0  -0.46881  0  1.494584  0  0  -0.397369  0  1.891416  0  0  -0.415534  0  1.852902  0  0  -0.230595  -0.384488  0  1.917662  0
Br  Br71  1  0.00386489  0.56639061  0.89346061  1  0  -0.468778  0  1.49464  0  0  -0.397318  0  1.891481  0  0  -0.415475  0  1.852939  0  0  -0.230558  -0.384434  0  1.917726  0
N  N72  1  0.62378664  0.56407920  0.71934135  1  0  -0.055053  0  3.538918  0  0  0.042974  0  3.74601  0  0  0.027753  0  3.772933  0  0  -0.24191  0.053  0  3.727881  0
N  N73  1  0.37620084  0.93592157  0.21934124  1  0  -0.055114  0  3.538616  0  0  0.042985  0  3.745711  0  0  0.027764  0  3.772643  0  0  -0.241843  0.053003  0  3.727599  0
N  N74  1  0.37620804  0.43592007  0.28065758  1  0  -0.055235  0  3.538982  0  0  0.042857  0  3.746088  0  0  0.027634  0  3.773022  0  0  -0.241858  0.052891  0  3.727954  0
N  N75  1  0.62379830  0.06407649  0.78066309  1  0  -0.055011  0  3.538553  0  0  0.043054  0  3.745627  0  0  0.027836  0  3.772556  0  0  -0.241814  0.053073  0  3.727487  0
N  N76  1  0.38029084  0.40292999  0.77959517  1  0  -0.358983  0  3.393813  0  0  -0.29487  0  3.706902  0  0  -0.309426  0  3.715116  0  0  -0.401349  -0.285129  0  3.70121  0
N  N77  1  0.61970760  0.09707478  0.27959708  1  0  -0.358961  0  3.393893  0  0  -0.294883  0  3.707028  0  0  -0.309436  0  3.715251  0  0  -0.401424  -0.285137  0  3.701321  0
N  N78  1  0.61971547  0.59706453  0.22039778  1  0  -0.359053  0  3.393835  0  0  -0.294887  0  3.706896  0  0  -0.309441  0  3.715113  0  0  -0.401414  -0.28514  0  3.701208  0
N  N79  1  0.38029568  0.90292907  0.72040485  1  0  -0.358908  0  3.393726  0  0  -0.294802  0  3.70683  0  0  -0.309356  0  3.715047  0  0  -0.401316  -0.285059  0  3.701126  0
