# generated using pymatgen
data_AlH5C10SNClO5
_symmetry_space_group_name_H-M   'P 1'
_cell_length_a   6.60319270
_cell_length_b   11.20424028
_cell_length_c   12.26631423
_cell_angle_alpha   77.28524621
_cell_angle_beta   80.40730856
_cell_angle_gamma   70.97772157
_symmetry_Int_Tables_number   1
_chemical_formula_structural   AlH5C10SNClO5
_chemical_formula_sum   'Al2 H10 C20 S2 N2 Cl2 O10'
_cell_volume   832.46846967
_cell_formula_units_Z   2
loop_
 _symmetry_equiv_pos_site_id
 _symmetry_equiv_pos_as_xyz
  1  'x, y, z'
loop_
 _atom_site_type_symbol
 _atom_site_label
 _atom_site_symmetry_multiplicity
 _atom_site_fract_x
 _atom_site_fract_y
 _atom_site_fract_z
 _atom_site_occupancy
 _atom_site_pbe_bader_charge
 _atom_site_pbe_bader_spin_density
 _atom_site_pbe_cm5_charge
 _atom_site_pbe_ddec_charge
 _atom_site_pbe_ddec_spin_density
 _atom_site_pbe_ddec_sum_bond_order
 _atom_site_pbe_magmom
Al  Al0  1  0.50428627  0.49827638  0.50286269  1  2.500378  0  0.379095  1.630507  0  2.601015  0
Al  Al1  1  0.00562711  0.49593079  0.50338202  1  2.49974  0  0.391495  1.62304  0  2.561481  0
H  H2  1  0.32692778  0.33324255  0.56444519  1  0.600156  0  0.332104  0.407064  0  0.90602  0
H  H3  1  0.68966325  0.66110046  0.44944059  1  0.650066  0  0.343839  0.4165  0  0.881137  0
H  H4  1  0.20178085  0.24966011  0.34605830  1  0.134205  0  0.102234  0.108969  0  1.043094  0
H  H5  1  0.51223787  0.14534335  0.22313698  1  0.08693  0  0.101802  0.099011  0  0.998876  0
H  H6  1  0.39982512  0.78010198  0.34924977  1  0.069163  0  0.106067  0.108036  0  1.043676  0
H  H7  1  0.61012220  0.90955762  0.22357339  1  0.075036  0  0.105169  0.10438  0  0.985879  0
H  H8  1  0.16253754  0.42188829  0.87636927  1  0.463722  0  0.282113  0.269592  0  1.031864  0
H  H9  1  0.32528585  0.42285131  0.74948809  1  0.515519  0  0.309675  0.32503  0  0.958318  0
H  H10  1  0.84582007  0.57533887  0.12860409  1  0.462627  0  0.282621  0.268479  0  1.032255  0
H  H11  1  0.68428197  0.57366506  0.25576570  1  0.513219  0  0.310555  0.323444  0  0.958063  0
C  C12  1  0.86826806  0.27408391  0.49187186  1  1.600006  0  0.2725  0.664423  0  4.08447  0
C  C13  1  0.70774118  0.47961984  0.70232401  1  1.514362  0  0.241468  0.644996  0  4.163923  0
C  C14  1  0.13751442  0.72119365  0.51202911  1  1.608931  0  0.27189  0.665914  0  4.087316  0
C  C15  1  0.30227914  0.51530881  0.30315203  1  1.507142  0  0.240936  0.640614  0  4.163901  0
C  C16  1  0.44625956  0.45893390  0.87663854  1  0.580884  0  0.113575  0.293608  0  4.091342  0
C  C17  1  0.56233210  0.53813215  0.12851848  1  0.549434  0  0.114051  0.293865  0  4.090824  0
C  C18  1  0.63250403  0.48794019  0.81824910  1  -0.116771  0  -0.047689  -0.268013  0  3.931013  0
C  C19  1  0.37686336  0.50828809  0.18714175  1  -0.113858  0  -0.048256  -0.273742  0  3.94418  0
C  C20  1  0.58474250  0.51979010  0.01487271  1  -0.136118  0  -0.027098  -0.105098  0  4.069316  0
C  C21  1  0.42403401  0.47730368  0.99026759  1  -0.181789  0  -0.026122  -0.102597  0  4.067232  0
C  C22  1  0.93909675  0.13179655  0.49579498  1  0.079208  0  -0.008825  -0.126851  0  3.921237  0
C  C23  1  0.12315568  0.07391235  0.42463277  1  -0.004203  0  0.000109  0.069222  0  3.958308  0
C  C24  1  0.82332700  0.05758720  0.56807011  1  0.02705  0  0.015443  0.066155  0  4.030343  0
C  C25  1  0.24564152  0.14659983  0.34912109  1  -0.119923  0  -0.090958  -0.132494  0  3.9598  0
C  C26  1  0.41978461  0.08794575  0.27995297  1  -0.03938  0  -0.089312  -0.076159  0  4.027993  0
C  C27  1  0.06443062  0.86400100  0.50468368  1  0.01996  0  -0.009994  -0.12874  0  3.923754  0
C  C28  1  0.88721849  0.92237115  0.57331322  1  0.169942  0  0.012817  0.066017  0  4.047709  0
C  C29  1  0.18413122  0.93810566  0.42776376  1  0.039154  0  0.001233  0.071587  0  3.961471  0
C  C30  1  0.35967569  0.88172538  0.35225119  1  -0.056099  0  -0.092479  -0.137553  0  3.963994  0
C  C31  1  0.47594162  0.95483216  0.28067782  1  -0.023353  0  -0.08848  -0.071972  0  4.021347  0
S  S32  1  0.76864516  0.54024045  0.90032660  1  0.201735  0  0.064766  0.102269  0  2.894094  0
S  S33  1  0.24065803  0.45608623  0.10491354  1  0.202478  0  0.069759  0.102744  0  2.882982  0
N  N34  1  0.31040144  0.41697381  0.83438983  1  -1.275592  0  -0.575583  -0.56536  0  3.34856  0
N  N35  1  0.69798938  0.58039578  0.17079064  1  -1.288389  0  -0.574134  -0.564531  0  3.347505  0
Cl  Cl36  1  0.74872867  0.83221613  0.66914275  1  -0.166652  0  0.009877  -0.048455  0  1.616702  0
Cl  Cl37  1  0.60788000  0.12540916  0.65879795  1  -0.181129  0  0.025094  -0.033607  0  1.606566  0
O  O38  1  0.68063789  0.33614553  0.46378157  1  -1.256063  0  -0.233362  -0.584982  0  2.335004  0
O  O39  1  0.88413572  0.50288543  0.65809263  1  -1.263413  0  -0.252593  -0.596647  0  2.313971  0
O  O40  1  0.00935294  0.67009323  0.48748706  1  -1.255698  0  -0.228476  -0.588171  0  2.369538  0
O  O41  1  0.41814141  0.55252090  0.35601302  1  -1.281435  0  -0.251533  -0.627249  0  2.40727  0
O  O42  1  0.32707826  0.66193377  0.53900865  1  -1.256234  0  -0.230738  -0.579114  0  2.318746  0
O  O43  1  0.12966376  0.48731756  0.34804905  1  -1.2657  0  -0.251123  -0.592221  0  2.299134  0
O  O44  1  0.99987542  0.32240551  0.51720919  1  -1.252099  0  -0.225144  -0.578363  0  2.34009  0
O  O45  1  0.58792600  0.44593711  0.64922728  1  -1.275854  0  -0.251657  -0.63282  0  2.423757  0
O  O46  1  0.27851578  0.42655666  0.55351837  1  -1.406657  0  -0.448722  -0.975928  0  2.201297  0
O  O47  1  0.73230644  0.56888333  0.45181664  1  -1.454641  0  -0.448006  -0.9748  0  2.176668  0
