# generated using pymatgen
data_ZnH7C13NO4
_symmetry_space_group_name_H-M   'P 1'
_cell_length_a   13.54193888
_cell_length_b   13.54201056
_cell_length_c   23.16839229
_cell_angle_alpha   90.00028756
_cell_angle_beta   89.99989953
_cell_angle_gamma   90.00001211
_symmetry_Int_Tables_number   1
_chemical_formula_structural   ZnH7C13NO4
_chemical_formula_sum   'Zn8 H56 C104 N8 O32'
_cell_volume   4248.73745701
_cell_formula_units_Z   8
loop_
 _symmetry_equiv_pos_site_id
 _symmetry_equiv_pos_as_xyz
  1  'x, y, z'
loop_
 _atom_site_type_symbol
 _atom_site_label
 _atom_site_symmetry_multiplicity
 _atom_site_fract_x
 _atom_site_fract_y
 _atom_site_fract_z
 _atom_site_occupancy
 _atom_site_pbe_bader_charge
 _atom_site_pbe_bader_spin_density
 _atom_site_pbe_cm5_charge
 _atom_site_pbe_ddec_charge
 _atom_site_pbe_ddec_spin_density
 _atom_site_pbe_ddec_sum_bond_order
 _atom_site_pbe_magmom
Zn  Zn0  1  0.86000314  0.79879679  0.05722956  1  1.294858  0  0.671983  0.8335  0  2.385325  0
Zn  Zn1  1  0.13999760  0.20120814  0.55722749  1  1.294892  0  0.671922  0.83345  0  2.385542  0
Zn  Zn2  1  0.70120270  0.36000254  0.80722579  1  1.294067  0  0.671861  0.83338  0  2.385626  0
Zn  Zn3  1  0.29880099  0.63999495  0.30722797  1  1.294951  0  0.67188  0.833384  0  2.385574  0
Zn  Zn4  1  0.63999597  0.29879842  0.69277110  1  1.294893  0  0.671959  0.833468  0  2.385286  0
Zn  Zn5  1  0.36000215  0.70120399  0.19277382  1  1.29418  0  0.671918  0.833473  0  2.385526  0
Zn  Zn6  1  0.79879640  0.86000201  0.94277407  1  1.294083  0  0.671867  0.833383  0  2.385633  0
Zn  Zn7  1  0.20119801  0.13999665  0.44277187  1  1.294133  0  0.671862  0.833428  0  2.385589  0
H  H8  1  0.99357745  0.66381562  0.28656847  1  0.098558  0  0.115071  0.12216  0  0.995677  0
H  H9  1  0.00641965  0.33618095  0.78656737  1  0.098603  0  0.1151  0.122227  0  0.995573  0
H  H10  1  0.83618380  0.49357393  0.03656692  1  0.098606  0  0.115079  0.122163  0  0.995725  0
H  H11  1  0.16381700  0.50642713  0.53656702  1  0.098595  0  0.115061  0.122155  0  0.995665  0
H  H12  1  0.50642459  0.16381672  0.46343136  1  0.098614  0  0.115056  0.122167  0  0.995654  0
H  H13  1  0.49358011  0.83617990  0.96343294  1  0.098606  0  0.11507  0.122205  0  0.995578  0
H  H14  1  0.66381831  0.99357201  0.71343344  1  0.098558  0  0.115085  0.122199  0  0.995644  0
H  H15  1  0.33618566  0.00642467  0.21343243  1  0.098582  0  0.115073  0.122157  0  0.995675  0
H  H16  1  0.76735302  0.75955788  0.16667823  1  0.121443  0  0.122837  0.102224  0  1.018833  0
H  H17  1  0.23264592  0.24044873  0.66667791  1  0.12142  0  0.122794  0.102157  0  1.018847  0
H  H18  1  0.74044211  0.26735208  0.91667864  1  0.121415  0  0.122834  0.102255  0  1.01882  0
H  H19  1  0.25956125  0.73264710  0.41667939  1  0.121406  0  0.122863  0.102242  0  1.018866  0
H  H20  1  0.73264535  0.25956597  0.58332188  1  0.121424  0  0.122835  0.102202  0  1.018897  0
H  H21  1  0.26735310  0.74044066  0.08332136  1  0.121415  0  0.122847  0.102252  0  1.018811  0
H  H22  1  0.75955624  0.76735133  0.83332226  1  0.121395  0  0.122828  0.102234  0  1.01883  0
H  H23  1  0.24043777  0.23264491  0.33332114  1  0.121437  0  0.122819  0.1022  0  1.018872  0
H  H24  1  0.05687360  0.74584911  0.11130097  1  0.14504  0  0.123859  0.103759  0  1.005679  0
H  H25  1  0.94312624  0.25415185  0.61129781  1  0.144969  0  0.123876  0.103772  0  1.005652  0
H  H26  1  0.75415001  0.55687532  0.86130059  1  0.145074  0  0.123863  0.103737  0  1.005686  0
H  H27  1  0.24584982  0.44312338  0.36130008  1  0.145034  0  0.123885  0.103737  0  1.005657  0
H  H28  1  0.44312468  0.24585035  0.63869788  1  0.145033  0  0.123892  0.103793  0  1.005646  0
H  H29  1  0.55686991  0.75415234  0.13870099  1  0.14502  0  0.123864  0.103792  0  1.005661  0
H  H30  1  0.74584608  0.05687435  0.88870228  1  0.145036  0  0.123864  0.103746  0  1.005633  0
H  H31  1  0.25415367  0.94312237  0.38869891  1  0.145027  0  0.123842  0.10371  0  1.005644  0
H  H32  1  0.66972659  0.68119602  0.21760574  1  0.069383  0  0.10548  0.108759  0  1.026752  0
H  H33  1  0.33026924  0.31880587  0.71760555  1  0.069371  0  0.105489  0.108738  0  1.026804  0
H  H34  1  0.81880008  0.16972574  0.96760387  1  0.069354  0  0.105487  0.108774  0  1.02667  0
H  H35  1  0.18119944  0.83027092  0.46760586  1  0.069411  0  0.105495  0.108751  0  1.026784  0
H  H36  1  0.83027250  0.18120074  0.53239543  1  0.069367  0  0.105484  0.108746  0  1.026773  0
H  H37  1  0.16972906  0.81880029  0.03239438  1  0.069382  0  0.10549  0.108743  0  1.026783  0
H  H38  1  0.68119456  0.66972527  0.78239285  1  0.06941  0  0.105503  0.108827  0  1.02674  0
H  H39  1  0.31880182  0.33026979  0.28239583  1  0.069372  0  0.105516  0.108796  0  1.026704  0
H  H40  1  0.58212661  0.67169228  0.39458438  1  0.119061  0  0.107299  0.111885  0  0.9957  0
H  H41  1  0.41787386  0.32830449  0.89458456  1  0.119068  0  0.107291  0.111829  0  0.995679  0
H  H42  1  0.82830511  0.08212589  0.14458375  1  0.119074  0  0.107267  0.111809  0  0.995693  0
H  H43  1  0.17169980  0.91787463  0.64458547  1  0.118987  0  0.10728  0.111876  0  0.995655  0
H  H44  1  0.91787396  0.17169549  0.35541546  1  0.119016  0  0.107298  0.111853  0  0.995694  0
H  H45  1  0.08212515  0.82830464  0.85541529  1  0.119061  0  0.107302  0.111879  0  0.99562  0
H  H46  1  0.67169101  0.58212747  0.60541282  1  0.118963  0  0.107333  0.111908  0  0.995606  0
H  H47  1  0.32830812  0.41787049  0.10541604  1  0.119074  0  0.107289  0.111872  0  0.995687  0
H  H48  1  0.75886123  0.69227874  0.42517859  1  0.071661  0  0.103494  0.099875  0  0.991292  0
H  H49  1  0.24114063  0.30771091  0.92517803  1  0.071662  0  0.103531  0.099945  0  0.991247  0
H  H50  1  0.80772014  0.25886048  0.17517699  1  0.071524  0  0.103482  0.099853  0  0.991228  0
H  H51  1  0.19228615  0.74114030  0.67517688  1  0.07168  0  0.103542  0.099962  0  0.991218  0
H  H52  1  0.74113860  0.19228386  0.32482261  1  0.071704  0  0.103522  0.099922  0  0.991254  0
H  H53  1  0.25886060  0.80771452  0.82482133  1  0.071656  0  0.103523  0.099912  0  0.991249  0
H  H54  1  0.69228118  0.75886328  0.57482225  1  0.071666  0  0.103498  0.099862  0  0.9913  0
H  H55  1  0.30772173  0.24113589  0.07482369  1  0.071538  0  0.103494  0.099868  0  0.991291  0
H  H56  1  0.88951102  0.71188261  0.35191753  1  0.07313  0  0.104858  0.102971  0  1.001293  0
H  H57  1  0.11048810  0.28811231  0.85191835  1  0.073049  0  0.104897  0.103049  0  1.001272  0
H  H58  1  0.78811672  0.38950989  0.10191660  1  0.073102  0  0.104825  0.102903  0  1.001329  0
H  H59  1  0.21188610  0.61048878  0.60191652  1  0.073126  0  0.104841  0.102906  0  1.001256  0
H  H60  1  0.61048881  0.21188686  0.39808286  1  0.073066  0  0.104854  0.102952  0  1.001307  0
H  H61  1  0.38951165  0.78811289  0.89808139  1  0.073064  0  0.104872  0.103  0  1.001238  0
H  H62  1  0.71188610  0.88951038  0.64808388  1  0.073088  0  0.104855  0.102966  0  1.00139  0
H  H63  1  0.28811806  0.11048796  0.14808366  1  0.073084  0  0.104858  0.102961  0  1.00136  0
C  C64  1  0.14595226  0.68918073  0.21423807  1  1.590436  0  0.216349  0.594579  0  4.190333  0
C  C65  1  0.85404579  0.31081817  0.71423257  1  1.590176  0  0.216196  0.594284  0  4.190929  0
C  C66  1  0.81081752  0.64594895  0.96424352  1  1.590093  0  0.21619  0.594402  0  4.190604  0
C  C67  1  0.18918126  0.35405137  0.46424023  1  1.590024  0  0.216326  0.594569  0  4.190454  0
C  C68  1  0.35404675  0.18918696  0.53576364  1  1.590103  0  0.216352  0.594553  0  4.190472  0
C  C69  1  0.64595480  0.81081779  0.03577027  1  1.590334  0  0.216123  0.594284  0  4.190701  0
C  C70  1  0.68917932  0.14594708  0.78575960  1  1.590226  0  0.216253  0.594431  0  4.190512  0
C  C71  1  0.31082517  0.85404875  0.28576110  1  1.590365  0  0.216311  0.594609  0  4.190503  0
C  C72  1  0.03784664  0.70422348  0.20137148  1  -0.045662  0  -0.007888  -0.065389  0  3.96465  0
C  C73  1  0.96214924  0.29578048  0.70137144  1  -0.045624  0  -0.007898  -0.065335  0  3.964667  0
C  C74  1  0.79577463  0.53784973  0.95137368  1  -0.045344  0  -0.007962  -0.065543  0  3.964973  0
C  C75  1  0.20422493  0.46214974  0.45137371  1  -0.045456  0  -0.00793  -0.065542  0  3.964904  0
C  C76  1  0.46215163  0.20422689  0.54862725  1  -0.045436  0  -0.007954  -0.065581  0  3.965019  0
C  C77  1  0.53784840  0.79578018  0.04863050  1  -0.045534  0  -0.00793  -0.065409  0  3.964753  0
C  C78  1  0.70422071  0.03784798  0.79862870  1  -0.045572  0  -0.007898  -0.065361  0  3.964758  0
C  C79  1  0.29578005  0.96214870  0.29862577  1  -0.045413  0  -0.00803  -0.065578  0  3.964899  0
C  C80  1  0.96773779  0.68998733  0.24475034  1  0.039019  0  -0.05527  -0.087803  0  3.885165  0
C  C81  1  0.03225870  0.31001258  0.74474784  1  0.039038  0  -0.055326  -0.087901  0  3.885174  0
C  C82  1  0.81001034  0.46773921  0.99474991  1  0.038914  0  -0.055225  -0.087768  0  3.885131  0
C  C83  1  0.18998983  0.53226359  0.49474973  1  0.039037  0  -0.055192  -0.087693  0  3.884943  0
C  C84  1  0.53226056  0.18999101  0.50525043  1  0.039009  0  -0.055187  -0.087706  0  3.884999  0
C  C85  1  0.46773960  0.81001126  0.00525249  1  0.039163  0  -0.055216  -0.087815  0  3.885004  0
C  C86  1  0.68998658  0.96773556  0.75525200  1  0.039124  0  -0.055316  -0.0879  0  3.885154  0
C  C87  1  0.31001062  0.03226001  0.25525023  1  0.038991  0  -0.055156  -0.087664  0  3.884987  0
C  C88  1  0.86760961  0.70891208  0.23426156  1  -0.011207  0  0.002284  0.030166  0  4.005168  0
C  C89  1  0.13238839  0.29108995  0.73426106  1  -0.011115  0  0.002339  0.030231  0  4.005136  0
C  C90  1  0.79108765  0.36760780  0.98426005  1  -0.011268  0  0.002247  0.030249  0  4.00517  0
C  C91  1  0.20891625  0.63239270  0.48426100  1  -0.011278  0  0.002242  0.030217  0  4.005088  0
C  C92  1  0.63239023  0.20891810  0.51573797  1  -0.010834  0  0.002266  0.03024  0  4.005043  0
C  C93  1  0.36760990  0.79108426  0.01573835  1  -0.010894  0  0.002289  0.030257  0  4.005103  0
C  C94  1  0.70891146  0.86760498  0.76573984  1  -0.011201  0  0.002224  0.030132  0  4.005204  0
C  C95  1  0.29108644  0.13239068  0.26573924  1  -0.010883  0  0.0023  0.030212  0  4.005081  0
C  C96  1  0.84290570  0.74098758  0.17855426  1  0.480884  0  0.059204  0.053954  0  3.861744  0
C  C97  1  0.15709394  0.25901840  0.67855278  1  0.480941  0  0.059267  0.054066  0  3.861649  0
C  C98  1  0.75901256  0.34290369  0.92855397  1  0.480897  0  0.059201  0.053869  0  3.86189  0
C  C99  1  0.24099003  0.65709707  0.42855452  1  0.480888  0  0.059167  0.0539  0  3.861825  0
C  C100  1  0.65709488  0.24098965  0.57144493  1  0.480697  0  0.059224  0.053973  0  3.861802  0
C  C101  1  0.34290508  0.75900950  0.07144654  1  0.48096  0  0.059158  0.053891  0  3.861727  0
C  C102  1  0.74098433  0.84290136  0.82144671  1  0.480818  0  0.059239  0.053952  0  3.861793  0
C  C103  1  0.25901045  0.15709478  0.32144622  1  0.48091  0  0.059219  0.054009  0  3.861864  0
C  C104  1  0.00573537  0.73456733  0.14693271  1  0.487529  0  0.060653  0.081026  0  3.875604  0
C  C105  1  0.99426141  0.26543468  0.64693169  1  0.487164  0  0.060619  0.08104  0  3.87532  0
C  C106  1  0.76543120  0.50573683  0.89693526  1  0.487214  0  0.060677  0.081113  0  3.875322  0
C  C107  1  0.23457148  0.49426291  0.39693492  1  0.48734  0  0.060604  0.081108  0  3.875409  0
C  C108  1  0.49426217  0.23457048  0.60306567  1  0.487244  0  0.060573  0.081013  0  3.875584  0
C  C109  1  0.50573474  0.76543632  0.10306886  1  0.487395  0  0.06063  0.081011  0  3.875668  0
C  C110  1  0.73456340  0.00573629  0.85306702  1  0.487373  0  0.060649  0.08109  0  3.87544  0
C  C111  1  0.26543350  0.99426233  0.35306509  1  0.487251  0  0.060688  0.081143  0  3.875287  0
C  C112  1  0.79045294  0.69752253  0.27884689  1  -0.008179  0  -0.011542  0.057585  0  4.030242  0
C  C113  1  0.20954419  0.30247841  0.77884851  1  -0.008171  0  -0.011622  0.057383  0  4.030515  0
C  C114  1  0.80247887  0.29045117  0.02884535  1  -0.008079  0  -0.011544  0.05751  0  4.030162  0
C  C115  1  0.19752713  0.70955056  0.52884643  1  -0.008192  0  -0.011571  0.057414  0  4.030484  0
C  C116  1  0.70954690  0.19752669  0.47115346  1  -0.008576  0  -0.011533  0.05753  0  4.030441  0
C  C117  1  0.29045482  0.80247517  0.97115257  1  -0.00854  0  -0.011613  0.057479  0  4.03037  0
C  C118  1  0.69752246  0.79045007  0.72115312  1  -0.008214  0  -0.011523  0.0576  0  4.030172  0
C  C119  1  0.30247484  0.20954742  0.22115361  1  -0.008573  0  -0.01155  0.057592  0  4.030265  0
C  C120  1  0.69136080  0.68533814  0.26280222  1  -0.029658  0  -0.080037  -0.138233  0  3.930014  0
C  C121  1  0.30863638  0.31465970  0.76280118  1  -0.029638  0  -0.080071  -0.138207  0  3.930093  0
C  C122  1  0.81465882  0.19135947  0.01280092  1  -0.02942  0  -0.080063  -0.138278  0  3.929973  0
C  C123  1  0.18534279  0.80863991  0.51280188  1  -0.029488  0  -0.080024  -0.138135  0  3.930046  0
C  C124  1  0.80863977  0.18534321  0.48719896  1  -0.029383  0  -0.080045  -0.138258  0  3.930058  0
C  C125  1  0.19136190  0.81465732  0.98719907  1  -0.029415  0  -0.080048  -0.13821  0  3.929977  0
C  C126  1  0.68534027  0.69135850  0.73719726  1  -0.029696  0  -0.08011  -0.138406  0  3.930163  0
C  C127  1  0.31465994  0.30863913  0.23720017  1  -0.029394  0  -0.080078  -0.13833  0  3.929984  0
C  C128  1  0.61677762  0.67721101  0.30410636  1  0.028152  0  -0.016444  -0.023911  0  3.974811  0
C  C129  1  0.38322239  0.32279015  0.80410527  1  0.028351  0  -0.016466  -0.023942  0  3.974839  0
C  C130  1  0.82278462  0.11677619  0.05410363  1  0.027737  0  -0.016486  -0.023982  0  3.974809  0
C  C131  1  0.17721835  0.88322281  0.55410611  1  0.027948  0  -0.01649  -0.024008  0  3.974755  0
C  C132  1  0.88322369  0.17721278  0.44589393  1  0.027885  0  -0.016459  -0.023909  0  3.974766  0
C  C133  1  0.11677811  0.82278591  0.94589457  1  0.028128  0  -0.016459  -0.023914  0  3.974693  0
C  C134  1  0.67720929  0.61677929  0.69589260  1  0.028231  0  -0.01646  -0.023881  0  3.974805  0
C  C135  1  0.32278957  0.38322167  0.19589573  1  0.027939  0  -0.016466  -0.023852  0  3.9748  0
C  C136  1  0.64107833  0.67868594  0.36285968  1  -0.069602  0  -0.080164  -0.087566  0  3.960207  0
C  C137  1  0.35892297  0.32131203  0.86285774  1  -0.06954  0  -0.080087  -0.087409  0  3.960081  0
C  C138  1  0.82131281  0.14107859  0.11285872  1  -0.069559  0  -0.080095  -0.087443  0  3.960119  0
C  C139  1  0.17869146  0.85892018  0.61285983  1  -0.069508  0  -0.080123  -0.087506  0  3.96012  0
C  C140  1  0.85892076  0.17868793  0.38714106  1  -0.069475  0  -0.080142  -0.087513  0  3.960091  0
C  C141  1  0.14107678  0.82131025  0.88714123  1  -0.069522  0  -0.080171  -0.087582  0  3.959979  0
C  C142  1  0.67868479  0.64108045  0.63713802  1  -0.069561  0  -0.080209  -0.087609  0  3.95998  0
C  C143  1  0.32131571  0.35891779  0.13714281  1  -0.069454  0  -0.080127  -0.087552  0  3.960286  0
C  C144  1  0.73947338  0.69008684  0.37949308  1  -0.076404  0  -0.090998  -0.08552  0  4.043819  0
C  C145  1  0.26052862  0.30990906  0.87949380  1  -0.076398  0  -0.090989  -0.08556  0  4.043599  0
C  C146  1  0.80991118  0.23947173  0.12949101  1  -0.076206  0  -0.090959  -0.085481  0  4.043636  0
C  C147  1  0.19009304  0.76052718  0.62949182  1  -0.07639  0  -0.091002  -0.085621  0  4.043739  0
C  C148  1  0.76052571  0.19009384  0.37050768  1  -0.076392  0  -0.090972  -0.085563  0  4.043596  0
C  C149  1  0.23947335  0.80990863  0.87050730  1  -0.076383  0  -0.090942  -0.085443  0  4.043595  0
C  C150  1  0.69008866  0.73947419  0.62050688  1  -0.076435  0  -0.090973  -0.085486  0  4.043698  0
C  C151  1  0.30991411  0.26052538  0.12050880  1  -0.076234  0  -0.090999  -0.085513  0  4.043802  0
C  C152  1  0.81347171  0.70023139  0.33802622  1  -0.044016  0  -0.08393  -0.119741  0  3.969305  0
C  C153  1  0.18652746  0.29976193  0.83802742  1  -0.043985  0  -0.083922  -0.119714  0  3.969337  0
C  C154  1  0.79976647  0.31347238  0.08802558  1  -0.044088  0  -0.083914  -0.119632  0  3.969094  0
C  C155  1  0.20024083  0.68652839  0.58802573  1  -0.044027  0  -0.083896  -0.119547  0  3.969243  0
C  C156  1  0.68652665  0.20023726  0.41197458  1  -0.044006  0  -0.083966  -0.119672  0  3.96926  0
C  C157  1  0.31347155  0.79976261  0.91197322  1  -0.043992  0  -0.083946  -0.119788  0  3.969255  0
C  C158  1  0.70023486  0.81347298  0.66197425  1  -0.044001  0  -0.083944  -0.119717  0  3.969295  0
C  C159  1  0.29976778  0.18652695  0.16197467  1  -0.04402  0  -0.083955  -0.119753  0  3.96932  0
C  C160  1  0.51125287  0.66980581  0.28468124  1  1.550925  0  0.215758  0.594364  0  4.172671  0
C  C161  1  0.48874423  0.33019665  0.78467660  1  1.550663  0  0.215776  0.594342  0  4.172495  0
C  C162  1  0.83019421  0.01124967  0.03468262  1  1.551094  0  0.215767  0.594417  0  4.172783  0
C  C163  1  0.16979995  0.98874842  0.53468023  1  1.550991  0  0.215796  0.594452  0  4.172618  0
C  C164  1  0.98874695  0.16980482  0.46531990  1  1.55097  0  0.215773  0.59436  0  4.172548  0
C  C165  1  0.01125478  0.83019330  0.96532369  1  1.550554  0  0.215822  0.594451  0  4.172602  0
C  C166  1  0.66980041  0.51125147  0.71531374  1  1.551056  0  0.215754  0.594372  0  4.172676  0
C  C167  1  0.33019838  0.48874745  0.21532148  1  1.550897  0  0.215816  0.594392  0  4.172638  0
N  N168  1  0.90966725  0.75184030  0.13613740  1  -1.23161  0  -0.322961  -0.201173  0  3.557566  0
N  N169  1  0.09033399  0.24816310  0.63613682  1  -1.231572  0  -0.323003  -0.201269  0  3.557567  0
N  N170  1  0.74815967  0.40966464  0.88613723  1  -1.231521  0  -0.322957  -0.201133  0  3.557247  0
N  N171  1  0.25184230  0.59033427  0.38613715  1  -1.231534  0  -0.322934  -0.201194  0  3.557369  0
N  N172  1  0.59033333  0.25184272  0.61386139  1  -1.231375  0  -0.32294  -0.201176  0  3.557465  0
N  N173  1  0.40966577  0.74816049  0.11386377  1  -1.231645  0  -0.322962  -0.201246  0  3.557582  0
N  N174  1  0.75183723  0.90966489  0.86386365  1  -1.231521  0  -0.322937  -0.201146  0  3.557323  0
N  N175  1  0.24815669  0.09033309  0.36386168  1  -1.231512  0  -0.32297  -0.201276  0  3.557485  0
O  O176  1  0.20737337  0.71702503  0.17608955  1  -1.167156  0  -0.311008  -0.544895  0  2.30597  0
O  O177  1  0.79262997  0.28298979  0.67608749  1  -1.167111  0  -0.310848  -0.544607  0  2.30651  0
O  O178  1  0.78297372  0.70736802  0.92608776  1  -1.166923  0  -0.31096  -0.544843  0  2.305592  0
O  O179  1  0.21702444  0.29262975  0.42608987  1  -1.167021  0  -0.311047  -0.544934  0  2.305766  0
O  O180  1  0.29262639  0.21702715  0.57390749  1  -1.167125  0  -0.310938  -0.544729  0  2.306266  0
O  O181  1  0.70737061  0.78298457  0.07391268  1  -1.167175  0  -0.310796  -0.544576  0  2.306506  0
O  O182  1  0.71701945  0.20736944  0.82391468  1  -1.166812  0  -0.310966  -0.544836  0  2.305512  0
O  O183  1  0.28298271  0.79262967  0.32390911  1  -1.166983  0  -0.310985  -0.544862  0  2.306001  0
O  O184  1  0.16588212  0.65146793  0.26308127  1  -1.163642  0  -0.314492  -0.547154  0  2.32681  0
O  O185  1  0.83411948  0.34852622  0.76308497  1  -1.163197  0  -0.314527  -0.547194  0  2.326733  0
O  O186  1  0.84851739  0.66587985  0.01308302  1  -1.163486  0  -0.314409  -0.547021  0  2.327199  0
O  O187  1  0.15147314  0.33412175  0.51308305  1  -1.163392  0  -0.314475  -0.547123  0  2.327055  0
O  O188  1  0.33412057  0.15146931  0.48691515  1  -1.16328  0  -0.314553  -0.547243  0  2.326604  0
O  O189  1  0.66588036  0.84853343  0.98691832  1  -1.16364  0  -0.314495  -0.547188  0  2.326563  0
O  O190  1  0.65148022  0.16587744  0.73691854  1  -1.163644  0  -0.314472  -0.547134  0  2.327232  0
O  O191  1  0.34853476  0.83411945  0.23691605  1  -1.163763  0  -0.314495  -0.547191  0  2.326933  0
O  O192  1  0.49514226  0.67804955  0.23067363  1  -1.157274  0  -0.317725  -0.552536  0  2.337336  0
O  O193  1  0.50485501  0.32194949  0.73067543  1  -1.157388  0  -0.31771  -0.552431  0  2.337527  0
O  O194  1  0.82194888  0.99514090  0.98066985  1  -1.157346  0  -0.317768  -0.552585  0  2.33703  0
O  O195  1  0.17804838  0.00485809  0.48067203  1  -1.157418  0  -0.317777  -0.552583  0  2.337249  0
O  O196  1  0.00485896  0.17805557  0.51932416  1  -1.157399  0  -0.317691  -0.552466  0  2.337446  0
O  O197  1  0.99514190  0.82195125  0.01932400  1  -1.157285  0  -0.317722  -0.552521  0  2.337731  0
O  O198  1  0.67805099  0.49513962  0.76932566  1  -1.157261  0  -0.317703  -0.552484  0  2.337009  0
O  O199  1  0.32195133  0.50485607  0.26932785  1  -1.157508  0  -0.317787  -0.552561  0  2.337348  0
O  O200  1  0.44620674  0.65744223  0.32359375  1  -1.165391  0  -0.316541  -0.542772  0  2.323615  0
O  O201  1  0.55379690  0.34256279  0.82359556  1  -1.165167  0  -0.316606  -0.542904  0  2.323188  0
O  O202  1  0.84255142  0.94620850  0.07359086  1  -1.165383  0  -0.316528  -0.542812  0  2.324071  0
O  O203  1  0.15744115  0.05379583  0.57359180  1  -1.165332  0  -0.31653  -0.542856  0  2.323678  0
O  O204  1  0.05379743  0.15744080  0.42640441  1  -1.165296  0  -0.316577  -0.542837  0  2.323416  0
O  O205  1  0.94620442  0.84255403  0.92640339  1  -1.165144  0  -0.316647  -0.542942  0  2.323158  0
O  O206  1  0.65743665  0.44621000  0.67640547  1  -1.165555  0  -0.316536  -0.542837  0  2.323925  0
O  O207  1  0.34256078  0.55379301  0.17640735  1  -1.165273  0  -0.316538  -0.542834  0  2.323549  0
