# generated using pymatgen
data_NiH22C34(NO)4
_symmetry_space_group_name_H-M   'P 1'
_cell_length_a   8.22936660
_cell_length_b   11.53979360
_cell_length_c   34.78381670
_cell_angle_alpha   90.00035122
_cell_angle_beta   89.99995030
_cell_angle_gamma   104.80238675
_symmetry_Int_Tables_number   1
_chemical_formula_structural   NiH22C34(NO)4
_chemical_formula_sum   'Ni4 H88 C136 N16 O16'
_cell_volume   3193.62597809
_cell_formula_units_Z   4
loop_
 _symmetry_equiv_pos_site_id
 _symmetry_equiv_pos_as_xyz
  1  'x, y, z'
loop_
 _atom_site_type_symbol
 _atom_site_label
 _atom_site_symmetry_multiplicity
 _atom_site_fract_x
 _atom_site_fract_y
 _atom_site_fract_z
 _atom_site_occupancy
 _atom_site_pbe_bader_charge
 _atom_site_pbe_bader_spin_density
 _atom_site_pbe_cm5_charge
 _atom_site_pbe_ddec_charge
 _atom_site_pbe_ddec_spin_density
 _atom_site_pbe_ddec_sum_bond_order
 _atom_site_pbe_magmom
Ni  Ni0  1  0.48003356  0.50974284  0.85243769  1  1.136018  1.532954  0.656124  0.670243  1.768203  2.601869  1.516
Ni  Ni1  1  0.51996517  0.99026692  0.35243870  1  1.136101  1.532953  0.656157  0.670383  1.768206  2.601835  1.516
Ni  Ni2  1  0.51996433  0.49026034  0.14756044  1  1.135979  1.532947  0.656115  0.670279  1.768195  2.601858  1.516
Ni  Ni3  1  0.48003627  0.00973266  0.64755972  1  1.136361  1.532938  0.65608  0.670199  1.768199  2.602079  1.516
H  H4  1  0.87082460  0.77271977  0.77801193  1  0.073298  0.000692  0.100377  0.098729  0.000482  1.052818  0.0
H  H5  1  0.12917169  0.72728589  0.27801363  1  0.073322  0.000692  0.100375  0.098762  0.000482  1.052745  0.0
H  H6  1  0.12918048  0.22727980  0.22199023  1  0.073562  0.000692  0.100405  0.09876  0.000482  1.05277  0.0
H  H7  1  0.87082499  0.27271729  0.72198910  1  0.07336  0.000692  0.100361  0.098737  0.000482  1.052752  0.0
H  H8  1  0.17847385  0.86890079  0.77608908  1  0.081488  0.001291  0.106699  0.113203  0.000596  1.001962  0.001
H  H9  1  0.82153439  0.63109763  0.27608958  1  0.08148  0.001291  0.106696  0.113221  0.000596  1.001938  0.001
H  H10  1  0.82152241  0.13109791  0.22390963  1  0.081161  0.001291  0.106663  0.113213  0.000596  1.001998  0.001
H  H11  1  0.17846625  0.36890644  0.72390942  1  0.081179  0.001291  0.106708  0.113259  0.000596  1.001944  0.001
H  H12  1  0.40910614  0.89519863  0.72789425  1  0.114091  0.002421  0.119408  0.088981  0.000905  0.991532  0.001
H  H13  1  0.59090245  0.60480694  0.22789504  1  0.11424  0.002422  0.119437  0.088989  0.000905  0.991608  0.001
H  H14  1  0.59090131  0.10481080  0.27210589  1  0.114186  0.002421  0.11944  0.089005  0.000905  0.99167  0.001
H  H15  1  0.40910136  0.39520250  0.77210281  1  0.114153  0.002422  0.119367  0.088869  0.000906  0.991584  0.001
H  H16  1  0.19452202  0.10591056  0.65828265  1  0.119433  0.00225  0.123671  0.101096  0.000848  0.982079  0.001
H  H17  1  0.80547800  0.39409431  0.15828312  1  0.119318  0.00225  0.123643  0.101016  0.000848  0.982047  0.001
H  H18  1  0.80547312  0.89409173  0.34171520  1  0.119485  0.00225  0.123687  0.101027  0.000848  0.982083  0.001
H  H19  1  0.19451876  0.60591246  0.84171674  1  0.119394  0.002251  0.123666  0.101098  0.000849  0.981989  0.001
H  H20  1  0.95699696  0.09429004  0.70449514  1  0.109442  0.0011  0.107479  0.120004  0.000568  1.029317  0.0
H  H21  1  0.04300532  0.40571480  0.20449407  1  0.10966  0.0011  0.107496  0.120008  0.000568  1.029303  0.0
H  H22  1  0.04300271  0.90571134  0.29550299  1  0.109477  0.001101  0.107458  0.119976  0.000568  1.02938  0.0
H  H23  1  0.95698837  0.59429019  0.79550320  1  0.109436  0.0011  0.107511  0.120022  0.000568  1.029256  0.0
H  H24  1  0.90241258  0.15050345  0.76976809  1  0.070369  0.000126  0.104195  0.101742  5.2e-05  1.029696  0.0
H  H25  1  0.09760633  0.34950438  0.26976344  1  0.070151  0.000126  0.104193  0.101751  5.2e-05  1.029687  0.0
H  H26  1  0.09757607  0.84949437  0.23023091  1  0.070395  0.000126  0.104235  0.101766  5.2e-05  1.029647  0.0
H  H27  1  0.90241098  0.65049874  0.73023067  1  0.070472  0.000126  0.104242  0.101775  5.2e-05  1.029618  0.0
H  H28  1  0.51652227  0.91853872  0.83860724  1  0.104098  0.000593  0.104981  0.10981  0.000398  1.017019  0.0
H  H29  1  0.48347421  0.58146810  0.33860743  1  0.104099  0.000593  0.104977  0.109814  0.000398  1.017081  0.0
H  H30  1  0.48346223  0.08145104  0.16138945  1  0.104106  0.000593  0.10501  0.109889  0.000398  1.016961  0.0
H  H31  1  0.51652554  0.41853687  0.66139156  1  0.104059  0.000593  0.104973  0.109863  0.000398  1.017025  0.0
H  H32  1  0.89291842  0.27468063  0.81958161  1  0.142639  0.000947  0.109629  0.1326  0.000474  1.037904  0.001
H  H33  1  0.10708050  0.22532282  0.31957901  1  0.142537  0.000947  0.1097  0.132648  0.000474  1.037852  0.001
H  H34  1  0.10707467  0.72531269  0.18041509  1  0.142599  0.000947  0.109589  0.132588  0.000474  1.037949  0.001
H  H35  1  0.89292589  0.77468033  0.68041683  1  0.142566  0.000947  0.109659  0.132608  0.000474  1.037894  0.001
H  H36  1  0.78723974  0.44829004  0.83836065  1  0.079604  0.002392  0.117553  0.085305  0.000856  1.019576  0.002
H  H37  1  0.21276087  0.05171826  0.33836140  1  0.079511  0.002392  0.117575  0.085323  0.000856  1.019557  0.002
H  H38  1  0.21275611  0.55170417  0.16163778  1  0.079501  0.002393  0.117517  0.085244  0.000856  1.019599  0.002
H  H39  1  0.78723492  0.94828583  0.66163932  1  0.079463  0.002392  0.117568  0.085332  0.000856  1.01961  0.002
H  H40  1  0.29263721  0.24736917  0.83955415  1  0.196656  0.0019  0.117472  0.102002  0.000604  1.046769  0.002
H  H41  1  0.70736283  0.25264094  0.33955579  1  0.19663  0.0019  0.117522  0.102041  0.000604  1.046823  0.002
H  H42  1  0.70735283  0.75263582  0.16044111  1  0.196663  0.001901  0.117499  0.101994  0.000604  1.046907  0.002
H  H43  1  0.29263796  0.74735685  0.66044666  1  0.196706  0.0019  0.117519  0.102024  0.000604  1.046825  0.002
H  H44  1  0.37595622  0.06281029  0.81811266  1  0.087651  0.001069  0.10484  0.109858  0.00052  1.014559  0.0
H  H45  1  0.62404553  0.43719762  0.31811153  1  0.087469  0.001069  0.104785  0.109751  0.00052  1.014652  0.0
H  H46  1  0.62402678  0.93719204  0.18188375  1  0.087791  0.001069  0.104837  0.109872  0.00052  1.014571  0.0
H  H47  1  0.37596594  0.56280283  0.68188861  1  0.087591  0.001069  0.104824  0.109824  0.00052  1.014586  0.0
H  H48  1  0.84100122  0.24516156  0.90076302  1  0.097963  1.7e-05  0.099742  0.099995  -5e-05  1.04427  0.0
H  H49  1  0.15899912  0.25485331  0.40076564  1  0.098075  1.7e-05  0.099725  0.099974  -5e-05  1.044299  0.0
H  H50  1  0.15900493  0.75484429  0.09923713  1  0.097963  1.7e-05  0.099717  0.099927  -5e-05  1.04428  0.0
H  H51  1  0.84100451  0.74514896  0.59923825  1  0.097996  1.7e-05  0.099711  0.100009  -5e-05  1.044277  0.0
H  H52  1  0.83488971  0.25436615  0.02490716  1  0.076681  4.3e-05  0.10321  0.101103  1.6e-05  1.024611  0.0
H  H53  1  0.16511994  0.24561371  0.52490899  1  0.07659  4.3e-05  0.103178  0.101049  1.6e-05  1.024585  0.0
H  H54  1  0.16511360  0.74563522  0.97509241  1  0.076604  4.3e-05  0.103192  0.101098  1.6e-05  1.024622  0.0
H  H55  1  0.83488203  0.75437061  0.47509374  1  0.07665  4.3e-05  0.103242  0.101147  1.6e-05  1.024624  0.0
H  H56  1  0.27727002  0.43623489  0.96137306  1  0.115839  0.000342  0.101372  0.102044  0.00023  1.040373  0.0
H  H57  1  0.72273652  0.06375420  0.46137317  1  0.115849  0.000342  0.101348  0.101957  0.00023  1.040498  0.0
H  H58  1  0.72273361  0.56376738  0.03862651  1  0.115891  0.000342  0.101361  0.102068  0.00023  1.040373  0.0
H  H59  1  0.27726143  0.93623911  0.53862784  1  0.115864  0.000342  0.101342  0.102025  0.00023  1.040479  0.0
H  H60  1  0.32447391  0.55144930  0.01140238  1  0.076022  0.000802  0.105015  0.108853  0.000367  1.028759  0.0
H  H61  1  0.67552601  0.94853692  0.51140107  1  0.076011  0.000802  0.104988  0.10896  0.000367  1.028621  0.0
H  H62  1  0.67552365  0.44855298  0.98859575  1  0.076102  0.000802  0.104986  0.108756  0.000367  1.028764  0.0
H  H63  1  0.32447922  0.05145637  0.48859764  1  0.07612  0.000802  0.105015  0.108866  0.000367  1.028707  0.0
H  H64  1  0.48355522  0.60231220  0.07220138  1  0.103288  0.001864  0.118585  0.092186  0.00064  1.005244  0.001
H  H65  1  0.51643196  0.89767970  0.57219713  1  0.103996  0.001863  0.118626  0.092249  0.00064  1.005151  0.001
H  H66  1  0.51644631  0.39769097  0.92779647  1  0.103349  0.001864  0.118619  0.092254  0.000641  1.005133  0.001
H  H67  1  0.48356954  0.10231001  0.42780101  1  0.1043  0.001862  0.118629  0.092225  0.00064  1.005148  0.001
H  H68  1  0.18876968  0.30394425  0.12695071  1  0.088244  0.001672  0.114419  0.08326  0.000525  1.021794  0.001
H  H69  1  0.81122807  0.19603400  0.62695288  1  0.087687  0.001672  0.114426  0.083218  0.000525  1.021861  0.001
H  H70  1  0.81122974  0.69605982  0.87304714  1  0.088144  0.001672  0.114359  0.083188  0.000525  1.021916  0.001
H  H71  1  0.18876606  0.80395214  0.37304641  1  0.088197  0.001671  0.114412  0.083202  0.000525  1.021786  0.001
H  H72  1  0.02074610  0.23744855  0.06848640  1  0.060024  0.001059  0.111532  0.120924  0.000488  0.996899  0.0
H  H73  1  0.97927104  0.26252225  0.56849212  1  0.060024  0.001059  0.111526  0.121001  0.000488  0.996808  0.0
H  H74  1  0.97925455  0.76255552  0.93151173  1  0.059826  0.001059  0.111562  0.120921  0.000488  0.996925  0.0
H  H75  1  0.02073070  0.73746476  0.43150889  1  0.05995  0.001059  0.111552  0.12098  0.000488  0.99682  0.0
H  H76  1  0.64190659  0.08804717  0.90772646  1  0.072989  -2e-05  0.102767  0.110296  -3.4e-05  1.014786  0.0
H  H77  1  0.35811585  0.41196507  0.40772850  1  0.073201  -2e-05  0.102778  0.110235  -3.4e-05  1.014926  0.0
H  H78  1  0.35810045  0.91195777  0.09227397  1  0.073196  -2e-05  0.102785  0.110271  -3.4e-05  1.014841  0.0
H  H79  1  0.64189474  0.58803628  0.59227337  1  0.073223  -2e-05  0.102761  0.110191  -3.4e-05  1.014886  0.0
H  H80  1  0.33993479  0.98303648  0.90871206  1  0.056295  5.6e-05  0.104527  0.068913  3.4e-05  0.984542  0.0
H  H81  1  0.66009896  0.51695989  0.40871782  1  0.055888  5.6e-05  0.104459  0.068804  3.4e-05  0.984524  0.0
H  H82  1  0.66006491  0.01697836  0.09128665  1  0.056082  5.6e-05  0.104545  0.068993  3.4e-05  0.984572  0.0
H  H83  1  0.33992673  0.48302616  0.59128520  1  0.056205  5.6e-05  0.104587  0.069049  3.4e-05  0.984567  0.0
H  H84  1  0.27172253  0.12532900  0.01487340  1  0.079892  1.3e-05  0.110029  0.078341  4e-06  0.980239  0.0
H  H85  1  0.72827279  0.37466148  0.51487911  1  0.079636  1.3e-05  0.109998  0.078308  4e-06  0.980259  0.0
H  H86  1  0.72828880  0.87467773  0.98512905  1  0.079937  1.3e-05  0.110061  0.078399  4e-06  0.980256  0.0
H  H87  1  0.27171195  0.62532558  0.48512736  1  0.079878  1.3e-05  0.110078  0.07841  4e-06  0.980208  0.0
H  H88  1  0.56949418  0.23945138  0.01830410  1  0.06592  1.6e-05  0.104647  0.110286  4e-06  1.003959  0.0
H  H89  1  0.43050198  0.26054814  0.51830562  1  0.066278  1.6e-05  0.104619  0.11021  4e-06  1.003985  0.0
H  H90  1  0.43051916  0.76055086  0.98169806  1  0.065557  1.6e-05  0.104685  0.110318  4e-06  1.003947  0.0
H  H91  1  0.56948383  0.73944520  0.48169683  1  0.066482  1.6e-05  0.104676  0.110333  4e-06  1.003931  0.0
C  C92  1  0.60814568  0.71416576  0.82584448  1  1.534489  -0.003705  0.187764  0.532856  -0.004793  4.229548  -0.006
C  C93  1  0.39185520  0.78583631  0.32584597  1  1.534591  -0.003704  0.187784  0.532893  -0.004793  4.229618  -0.006
C  C94  1  0.39184791  0.28583564  0.17415423  1  1.534336  -0.003706  0.187789  0.532978  -0.004793  4.229179  -0.006
C  C95  1  0.60814671  0.21415789  0.67415332  1  1.534286  -0.003703  0.187806  0.533045  -0.004793  4.229035  -0.006
C  C96  1  0.68639144  0.83511716  0.80953845  1  -0.057424  0.004964  -0.018674  -0.016073  0.003055  4.012495  0.003
C  C97  1  0.31361587  0.66488907  0.30953913  1  -0.057524  0.004965  -0.018702  -0.016075  0.003055  4.012612  0.003
C  C98  1  0.31361032  0.16488332  0.19046055  1  -0.057347  0.004965  -0.018711  -0.016202  0.003055  4.012403  0.003
C  C99  1  0.68637278  0.33510876  0.69046389  1  -0.056236  0.004965  -0.018699  -0.016066  0.003055  4.012577  0.003
C  C100  1  0.82628959  0.85087533  0.78553476  1  0.032297  -0.002203  -0.081287  -0.140611  -0.002483  3.937784  -0.001
C  C101  1  0.17371223  0.64913225  0.28553659  1  0.032281  -0.002204  -0.081385  -0.140806  -0.002483  3.937725  -0.001
C  C102  1  0.17371128  0.14912605  0.21446395  1  0.031833  -0.002203  -0.081344  -0.140648  -0.002482  3.93784  -0.001
C  C103  1  0.82627521  0.35086557  0.71446643  1  0.032216  -0.002203  -0.081349  -0.140763  -0.002483  3.937783  -0.001
C  C104  1  0.90416383  0.96421819  0.77074868  1  -0.038341  0.00151  -0.007607  0.062441  0.000638  4.028962  0.001
C  C105  1  0.09584247  0.53578820  0.27074828  1  -0.038135  0.00151  -0.00761  0.062431  0.000638  4.028659  0.001
C  C106  1  0.09583186  0.03578230  0.22925003  1  -0.037986  0.00151  -0.007593  0.062355  0.000638  4.028872  0.001
C  C107  1  0.90414926  0.46421141  0.72925388  1  -0.038438  0.00151  -0.007633  0.062402  0.000638  4.028625  0.001
C  C108  1  0.04733883  0.97961003  0.74419678  1  -0.00032  -0.006451  0.010691  0.113928  -0.006852  3.996958  -0.004
C  C109  1  0.95265386  0.52038872  0.24419617  1  -0.000301  -0.006449  0.010754  0.113963  -0.00685  3.996898  -0.004
C  C110  1  0.95265047  0.02038959  0.25580250  1  -0.000319  -0.00645  0.010792  0.114127  -0.006851  3.996864  -0.004
C  C111  1  0.04734572  0.47960907  0.75580368  1  -5.4e-05  -0.006449  0.010766  0.114  -0.00685  3.996833  -0.004
C  C112  1  0.17663912  0.92266506  0.75037171  1  -0.087353  0.005659  -0.086714  -0.186507  0.003201  3.96278  0.004
C  C113  1  0.82336152  0.57733558  0.25037211  1  -0.087512  0.00566  -0.086773  -0.186615  0.003202  3.962832  0.004
C  C114  1  0.82335658  0.07733543  0.24962700  1  -0.087105  0.005659  -0.08675  -0.186641  0.003201  3.962945  0.004
C  C115  1  0.17663758  0.42266760  0.74962631  1  -0.087183  0.005659  -0.086803  -0.186735  0.003202  3.962951  0.004
C  C116  1  0.30528729  0.93650182  0.72353481  1  0.474607  -0.003874  0.052084  0.098775  -0.00445  3.953672  -0.003
C  C117  1  0.69471480  0.56349920  0.22353520  1  0.474992  -0.003873  0.05209  0.098789  -0.00445  3.954017  -0.003
C  C118  1  0.69471335  0.06350225  0.27646448  1  0.47487  -0.003874  0.052018  0.09872  -0.004451  3.954018  -0.003
C  C119  1  0.30528341  0.43650487  0.77646293  1  0.474803  -0.003874  0.052168  0.099045  -0.004451  3.953924  -0.003
C  C120  1  0.18619002  0.05605122  0.68510772  1  0.505  -0.004382  0.051438  0.106564  -0.004876  3.932837  -0.003
C  C121  1  0.81381210  0.44394966  0.18510858  1  0.505148  -0.00438  0.051431  0.106617  -0.004875  3.932864  -0.003
C  C122  1  0.81381029  0.94395195  0.31489070  1  0.505074  -0.004382  0.051415  0.106697  -0.004876  3.933004  -0.003
C  C123  1  0.18618416  0.55604904  0.81489071  1  0.505115  -0.004381  0.051399  0.106434  -0.004876  3.933135  -0.003
C  C124  1  0.05616964  0.05001025  0.71099706  1  -0.044293  0.005617  -0.085563  -0.186429  0.003161  3.943333  0.004
C  C125  1  0.94383005  0.44998755  0.21099676  1  -0.044537  0.005616  -0.085509  -0.18629  0.003161  3.943352  0.004
C  C126  1  0.94382606  0.94999025  0.28900136  1  -0.044323  0.005617  -0.085572  -0.186463  0.003161  3.943456  0.004
C  C127  1  0.05616038  0.55000847  0.78900310  1  -0.04435  0.005617  -0.085486  -0.186217  0.003161  3.943332  0.004
C  C128  1  0.84089854  0.06168419  0.78072281  1  -0.049264  -0.003868  -0.071587  -0.137099  -0.004114  3.887235  -0.002
C  C129  1  0.15911369  0.43832208  0.28072063  1  -0.048828  -0.003869  -0.071598  -0.137052  -0.004115  3.886845  -0.002
C  C130  1  0.15909343  0.93831273  0.21927561  1  -0.049427  -0.003868  -0.071682  -0.137107  -0.004114  3.887008  -0.002
C  C131  1  0.84088873  0.56168019  0.71927865  1  -0.049237  -0.003868  -0.071603  -0.137046  -0.004114  3.886994  -0.002
C  C132  1  0.70101203  0.04739839  0.80491624  1  0.036048  0.001652  -0.003947  0.070649  0.000698  4.012378  0.002
C  C133  1  0.29900158  0.45261193  0.30491723  1  0.035702  0.001652  -0.003855  0.070704  0.000698  4.012283  0.002
C  C134  1  0.29898852  0.95260209  0.19508246  1  0.035909  0.001652  -0.003962  0.070503  0.000698  4.012237  0.002
C  C135  1  0.70099865  0.54738766  0.69508378  1  0.035769  0.001652  -0.003919  0.070663  0.000698  4.012389  0.002
C  C136  1  0.62340251  0.93297206  0.81906655  1  -0.047195  -0.002485  -0.077377  -0.137241  -0.002755  3.920043  -0.001
C  C137  1  0.37660306  0.56703615  0.31906644  1  -0.047179  -0.002484  -0.077446  -0.137345  -0.002754  3.920448  -0.001
C  C138  1  0.37659254  0.06702665  0.18093129  1  -0.047289  -0.002484  -0.077367  -0.137172  -0.002754  3.919911  -0.001
C  C139  1  0.62338769  0.43296077  0.68093485  1  -0.048388  -0.002484  -0.0774  -0.137375  -0.002754  3.92047  -0.001
C  C140  1  0.64233909  0.15275164  0.81622535  1  -0.008137  -0.008819  0.010304  0.107908  -0.009349  3.99458  -0.006
C  C141  1  0.35767148  0.34725710  0.31622438  1  -0.008115  -0.00882  0.010327  0.107935  -0.00935  3.994677  -0.006
C  C142  1  0.35765190  0.84724259  0.18377278  1  -0.007935  -0.008818  0.01036  0.10795  -0.009348  3.994723  -0.006
C  C143  1  0.64233822  0.65274514  0.68377404  1  -0.008141  -0.008819  0.010349  0.10796  -0.009349  3.994852  -0.006
C  C144  1  0.75798338  0.26402303  0.82177689  1  -0.022709  0.00666  -0.083184  -0.175287  0.003748  3.935625  0.005
C  C145  1  0.24202235  0.23598583  0.32177571  1  -0.022513  0.00666  -0.083323  -0.175407  0.003747  3.93588  0.005
C  C146  1  0.24201092  0.73597029  0.17822383  1  -0.022764  0.006659  -0.083207  -0.175316  0.003747  3.93588  0.005
C  C147  1  0.75798614  0.76401642  0.67822328  1  -0.022748  0.006659  -0.083271  -0.175337  0.003747  3.935756  0.005
C  C148  1  0.70046977  0.36119889  0.83339791  1  0.483805  -0.005705  0.045796  0.098176  -0.006034  3.944785  -0.004
C  C149  1  0.29953269  0.13881110  0.33339883  1  0.483983  -0.005707  0.045824  0.098197  -0.006035  3.9446  -0.004
C  C150  1  0.29952617  0.63879891  0.16660051  1  0.483852  -0.005704  0.045893  0.098327  -0.006033  3.944833  -0.004
C  C151  1  0.70047062  0.86119027  0.66660131  1  0.484078  -0.005706  0.045796  0.098139  -0.006034  3.944753  -0.004
C  C152  1  0.42385649  0.24790487  0.83428473  1  0.408193  -0.006151  0.042181  0.082691  -0.006711  3.933731  -0.004
C  C153  1  0.57615115  0.25210602  0.33428697  1  0.407905  -0.006154  0.042146  0.082796  -0.006713  3.93397  -0.004
C  C154  1  0.57613711  0.75209653  0.16571196  1  0.408733  -0.006153  0.042162  0.082671  -0.006712  3.933906  -0.004
C  C155  1  0.42385271  0.74789355  0.66571518  1  0.40877  -0.006153  0.042136  0.082736  -0.006712  3.934188  -0.004
C  C156  1  0.47197276  0.14631323  0.82267722  1  -0.071251  0.00696  -0.087096  -0.181087  0.00387  3.963842  0.005
C  C157  1  0.52803330  0.35369655  0.32267881  1  -0.070389  0.006961  -0.086936  -0.180956  0.003871  3.963822  0.005
C  C158  1  0.52801840  0.85368818  0.17732121  1  -0.071559  0.006961  -0.08709  -0.181067  0.003871  3.963888  0.005
C  C159  1  0.47197705  0.64630749  0.67732306  1  -0.071496  0.006961  -0.087003  -0.181019  0.00387  3.964085  0.005
C  C160  1  0.16031973  0.37027638  0.89017093  1  1.593962  -0.00159  0.20094  0.563835  -0.001851  4.221051  -0.002
C  C161  1  0.83967829  0.12973202  0.39017373  1  1.594212  -0.001588  0.200956  0.563844  -0.001849  4.22126  -0.002
C  C162  1  0.83967881  0.62972859  0.10982950  1  1.594039  -0.00159  0.200904  0.563878  -0.001852  4.220893  -0.002
C  C163  1  0.16032380  0.87026936  0.60982929  1  1.594391  -0.00159  0.201076  0.564116  -0.001852  4.22097  -0.002
C  C164  1  0.06685929  0.34296877  0.92788615  1  0.003949  0.008403  -0.017347  -0.015619  0.005018  3.977769  0.007
C  C165  1  0.93314877  0.15702416  0.42788669  1  0.003849  0.008402  -0.017311  -0.015642  0.005017  3.977928  0.007
C  C166  1  0.93314402  0.65703260  0.07211399  1  0.004368  0.008404  -0.01737  -0.01573  0.005018  3.977789  0.007
C  C167  1  0.06686067  0.84296732  0.57211288  1  0.00362  0.008404  -0.017334  -0.015633  0.005018  3.977724  0.007
C  C168  1  0.90095359  0.27350613  0.92832586  1  -0.065749  -0.000402  -0.075894  -0.126224  -0.000834  3.913665  0.0
C  C169  1  0.09904470  0.22649670  0.42832757  1  -0.065092  -0.000403  -0.075867  -0.126202  -0.000835  3.913689  0.0
C  C170  1  0.09905037  0.72649703  0.07167314  1  -0.06572  -0.000402  -0.075881  -0.126207  -0.000834  3.913546  0.0
C  C171  1  0.90095544  0.77349929  0.57167430  1  -0.065781  -0.000403  -0.075835  -0.12626  -0.000835  3.913576  0.0
C  C172  1  0.81400131  0.24302295  0.96310408  1  -0.026271  0.000985  -0.007433  0.060714  0.000541  4.005834  0.001
C  C173  1  0.18600242  0.25697515  0.46310612  1  -0.0265  0.000985  -0.007334  0.060937  0.00054  4.00556  0.001
C  C174  1  0.18600549  0.75698469  0.03689492  1  -0.026084  0.000985  -0.007334  0.061004  0.000541  4.005536  0.001
C  C175  1  0.81400379  0.74302083  0.53689517  1  -0.026218  0.000985  -0.007424  0.060813  0.000541  4.005678  0.001
C  C176  1  0.89932430  0.28054515  0.99767104  1  -0.027243  -0.001381  -0.077475  -0.155988  -0.001463  3.912041  -0.001
C  C177  1  0.10068736  0.21943833  0.49767245  1  -0.027222  -0.001381  -0.077571  -0.156075  -0.001463  3.912096  -0.001
C  C178  1  0.10067611  0.71946161  0.00232767  1  -0.027417  -0.00138  -0.077487  -0.156089  -0.001463  3.912164  -0.001
C  C179  1  0.89932021  0.78055136  0.50232798  1  -0.027276  -0.001381  -0.077592  -0.15618  -0.001463  3.912194  -0.001
C  C180  1  0.06603188  0.35059226  0.99775285  1  -0.018925  0.000547  -0.009868  0.056571  0.000192  4.018646  0.001
C  C181  1  0.93398697  0.14938762  0.49775337  1  -0.018721  0.000547  -0.009705  0.056771  0.000192  4.018232  0.001
C  C182  1  0.93396918  0.64941630  0.00224644  1  -0.019143  0.000547  -0.009886  0.056547  0.000192  4.018882  0.001
C  C183  1  0.06602116  0.85060028  0.50224707  1  -0.018854  0.000547  -0.009764  0.056806  0.000192  4.018428  0.001
C  C184  1  0.14754005  0.38285623  0.96248733  1  -0.087462  -0.001055  -0.079412  -0.130404  -0.001192  3.924496  -0.001
C  C185  1  0.85246318  0.11713378  0.46248809  1  -0.088008  -0.001055  -0.079442  -0.130341  -0.001193  3.924352  -0.001
C  C186  1  0.85246068  0.61715143  0.03751195  1  -0.087683  -0.001055  -0.079365  -0.130301  -0.001193  3.924488  -0.001
C  C187  1  0.14753743  0.88285683  0.53751148  1  -0.087482  -0.001055  -0.079424  -0.13044  -0.001193  3.924582  -0.001
C  C188  1  0.15799343  0.38788907  0.03391500  1  -0.014129  -0.004838  0.015234  0.120132  -0.005161  3.98064  -0.003
C  C189  1  0.84202410  0.11208915  0.53391700  1  -0.0142  -0.00484  0.015217  0.120105  -0.005163  3.980582  -0.003
C  C190  1  0.84200544  0.61211680  0.96608543  1  -0.013557  -0.004838  0.015214  0.119982  -0.005161  3.980557  -0.003
C  C191  1  0.15797530  0.88790146  0.46608459  1  -0.013996  -0.00484  0.015242  0.120039  -0.005163  3.980693  -0.003
C  C192  1  0.29081931  0.49208655  0.03606121  1  0.001199  0.004275  -0.085259  -0.178778  0.002454  3.948772  0.003
C  C193  1  0.70918967  0.00790161  0.53606043  1  0.000892  0.004276  -0.085208  -0.178938  0.002455  3.948474  0.003
C  C194  1  0.70918498  0.50791751  0.96393837  1  0.001117  0.004275  -0.085224  -0.178533  0.002454  3.94846  0.003
C  C195  1  0.29081126  0.99208990  0.46393914  1  0.000679  0.004276  -0.085267  -0.178859  0.002455  3.948616  0.003
C  C196  1  0.37985225  0.52208966  0.07007015  1  0.464431  -0.003576  0.046532  0.097976  -0.004255  3.939337  -0.003
C  C197  1  0.62014478  0.97789589  0.57006891  1  0.463538  -0.003577  0.046597  0.098184  -0.004258  3.938902  -0.003
C  C198  1  0.62015115  0.47791530  0.92992856  1  0.464596  -0.003575  0.0465  0.09779  -0.004255  3.939322  -0.003
C  C199  1  0.37985307  0.02209383  0.42993038  1  0.463381  -0.003576  0.046576  0.098137  -0.004257  3.939015  -0.003
C  C200  1  0.21612883  0.35609617  0.10061955  1  0.492616  -0.001975  0.042905  0.093588  -0.002355  3.962  -0.001
C  C201  1  0.78387491  0.14388157  0.60062162  1  0.493565  -0.001977  0.042809  0.093576  -0.002357  3.961708  -0.001
C  C202  1  0.78386971  0.64390880  0.89937974  1  0.492954  -0.001975  0.042963  0.093529  -0.002355  3.96189  -0.001
C  C203  1  0.21612052  0.85610816  0.39937882  1  0.49282  -0.001976  0.042815  0.093565  -0.002357  3.961719  -0.001
C  C204  1  0.12063502  0.32022861  0.06780426  1  -0.001112  0.005116  -0.085246  -0.182296  0.002928  3.951906  0.004
C  C205  1  0.87937823  0.17974488  0.56780725  1  -0.001083  0.005117  -0.08534  -0.182422  0.002928  3.951745  0.004
C  C206  1  0.87936175  0.67977816  0.93219560  1  -0.001441  0.005115  -0.085241  -0.18215  0.002927  3.951684  0.004
C  C207  1  0.12062051  0.82024394  0.43219463  1  -0.001065  0.005116  -0.085299  -0.1823  0.002928  3.951787  0.004
C  C208  1  0.63519755  0.17513622  0.96298845  1  -0.046705  0.000135  0.007819  0.106268  8.7e-05  3.987841  0.0
C  C209  1  0.36479949  0.32487356  0.46299233  1  -0.046572  0.000135  0.007776  0.10604  8.7e-05  3.987695  0.0
C  C210  1  0.36481038  0.82486782  0.03701227  1  -0.047095  0.000135  0.007837  0.10621  8.7e-05  3.987614  0.0
C  C211  1  0.63519242  0.67513323  0.53701271  1  -0.047195  0.000135  0.007824  0.106149  8.7e-05  3.987715  0.0
C  C212  1  0.56477130  0.10078662  0.93205216  1  -0.083025  6.2e-05  -0.091288  -0.185563  2.7e-05  3.957683  0.0
C  C213  1  0.43523852  0.39922792  0.43205703  1  -0.028717  6.2e-05  -0.091382  -0.185559  2.7e-05  3.957781  0.0
C  C214  1  0.43523858  0.89922281  0.06794885  1  -0.029017  6.2e-05  -0.091372  -0.185631  2.7e-05  3.957758  0.0
C  C215  1  0.56475913  0.60077795  0.56794800  1  -0.08288  6.2e-05  -0.09132  -0.18542  2.7e-05  3.957756  0.0
C  C216  1  0.39488777  0.04086932  0.93278953  1  0.560843  -2e-05  0.032224  0.082607  -2e-05  4.048266  0.0
C  C217  1  0.60512786  0.45913445  0.43279564  1  0.506586  -2e-05  0.03231  0.08269  -2e-05  4.047993  0.0
C  C218  1  0.60511451  0.95913923  0.06721148  1  0.507055  -1.9e-05  0.032206  0.082534  -2e-05  4.048337  0.0
C  C219  1  0.39487876  0.54086601  0.56721084  1  0.560631  -2e-05  0.032057  0.082307  -2e-05  4.048431  0.0
C  C220  1  0.35721589  0.11900802  0.99135679  1  0.459454  -1e-06  0.038619  0.096142  -1.3e-05  4.01479  0.0
C  C221  1  0.64278397  0.38098973  0.49136014  1  0.460414  -2e-06  0.038731  0.096233  -1.3e-05  4.015181  0.0
C  C222  1  0.64279293  0.88099513  0.00864508  1  0.459394  -1e-06  0.038622  0.096069  -1.3e-05  4.015039  0.0
C  C223  1  0.35720524  0.61900630  0.50864432  1  0.459529  -2e-06  0.038571  0.096041  -1.3e-05  4.014949  0.0
C  C224  1  0.52552887  0.18314794  0.99326520  1  -0.005566  0.000142  -0.089764  -0.186404  8.9e-05  3.952256  0.0
C  C225  1  0.47447481  0.31685702  0.49326903  1  -0.005757  0.000142  -0.089766  -0.186337  8.9e-05  3.952273  0.0
C  C226  1  0.47448633  0.81685609  0.00673581  1  -0.004795  0.000142  -0.089883  -0.186478  8.9e-05  3.952383  0.0
C  C227  1  0.52551725  0.68314349  0.50673600  1  -0.005835  0.000142  -0.089841  -0.186455  8.9e-05  3.952347  0.0
N  N228  1  0.30856304  0.99978895  0.69102866  1  -1.209484  0.074479  -0.324005  -0.205524  0.043987  3.602922  0.067
N  N229  1  0.69143862  0.50021055  0.19103094  1  -1.209652  0.074469  -0.324002  -0.205568  0.043986  3.603149  0.067
N  N230  1  0.69144003  0.00021511  0.30897005  1  -1.209669  0.074471  -0.323945  -0.205524  0.043987  3.603087  0.067
N  N231  1  0.30855059  0.49978548  0.80896834  1  -1.209306  0.074471  -0.324015  -0.2056  0.043987  3.603392  0.067
N  N232  1  0.53676266  0.35445660  0.83952577  1  -1.229691  0.078896  -0.336288  -0.234281  0.046239  3.634657  0.07
N  N233  1  0.46324444  0.14555618  0.33952811  1  -1.23017  0.078902  -0.336397  -0.234471  0.046241  3.635001  0.07
N  N234  1  0.46323645  0.64554657  0.16047322  1  -1.229897  0.078896  -0.336342  -0.234347  0.046238  3.634899  0.07
N  N235  1  0.53675668  0.85444250  0.66047434  1  -1.229889  0.078901  -0.336356  -0.234392  0.04624  3.635085  0.07
N  N236  1  0.34629851  0.45437232  0.10207059  1  -1.218886  0.066686  -0.324072  -0.220672  0.03961  3.551128  0.059
N  N237  1  0.65369149  0.04561446  0.60207048  1  -1.218818  0.066683  -0.323992  -0.220761  0.03961  3.550919  0.059
N  N238  1  0.65369816  0.54563087  0.89792840  1  -1.219327  0.066683  -0.324092  -0.220545  0.039608  3.550994  0.059
N  N239  1  0.34630734  0.95437795  0.39792852  1  -1.218761  0.066681  -0.324011  -0.220736  0.039608  3.550984  0.059
N  N240  1  0.29000278  0.04815464  0.96174784  1  -1.188461  6.8e-05  -0.337957  -0.289411  3.4e-05  3.30234  0.0
N  N241  1  0.71000814  0.45183983  0.46175449  1  -1.189235  6.8e-05  -0.337951  -0.289301  3.4e-05  3.302349  0.0
N  N242  1  0.71000192  0.95185391  0.03825374  1  -1.188717  6.8e-05  -0.337906  -0.289326  3.4e-05  3.302234  0.0
N  N243  1  0.28999158  0.54815168  0.53825285  1  -1.188473  6.8e-05  -0.337793  -0.289208  3.4e-05  3.302334  0.0
O  O244  1  0.66311134  0.62479721  0.81508162  1  -1.13647  0.080353  -0.320724  -0.547379  0.045595  2.219042  0.072
O  O245  1  0.33690304  0.87521180  0.31508445  1  -1.136645  0.08036  -0.320743  -0.547413  0.045601  2.21916  0.072
O  O246  1  0.33688898  0.37520597  0.18491737  1  -1.135942  0.080356  -0.320665  -0.547362  0.045597  2.21892  0.072
O  O247  1  0.66309952  0.12478419  0.68491713  1  -1.136054  0.080358  -0.320727  -0.547451  0.045599  2.218843  0.072
O  O248  1  0.49206959  0.70238739  0.85084720  1  -1.137181  0.070651  -0.314777  -0.527203  0.040228  2.18505  0.063
O  O249  1  0.50792993  0.79761786  0.35084782  1  -1.137235  0.070658  -0.314751  -0.527152  0.040232  2.18505  0.063
O  O250  1  0.50791892  0.29761672  0.14915064  1  -1.137547  0.070656  -0.314827  -0.527246  0.040232  2.184938  0.063
O  O251  1  0.49207959  0.20237721  0.64914973  1  -1.137584  0.070656  -0.314798  -0.527216  0.040233  2.184948  0.063
O  O252  1  0.09925014  0.31206087  0.86084345  1  -1.188841  0.001318  -0.32726  -0.555996  0.00013  2.173186  0.001
O  O253  1  0.90075359  0.18793618  0.36084549  1  -1.189218  0.001318  -0.327319  -0.556061  0.00013  2.173246  0.001
O  O254  1  0.90075699  0.68794766  0.13915641  1  -1.188969  0.001318  -0.327233  -0.556002  0.00013  2.173061  0.001
O  O255  1  0.09925140  0.81205980  0.63915724  1  -1.188944  0.001317  -0.327314  -0.556111  0.00013  2.173158  0.001
O  O256  1  0.30027286  0.45210417  0.89244188  1  -1.147648  0.08375  -0.325716  -0.559541  0.047304  2.384323  0.077
O  O257  1  0.69972695  0.04790247  0.39244225  1  -1.147532  0.083748  -0.325744  -0.559569  0.047301  2.384434  0.077
O  O258  1  0.69972858  0.54789541  0.10755740  1  -1.147582  0.083746  -0.325661  -0.559525  0.047301  2.384302  0.077
O  O259  1  0.30027603  0.95209800  0.60755646  1  -1.147575  0.083751  -0.325796  -0.559695  0.047304  2.384523  0.077
