# generated using pymatgen
data_NaBH12C9N6O
_symmetry_space_group_name_H-M   'P 1'
_cell_length_a   7.02965127
_cell_length_b   8.31314196
_cell_length_c   20.42677233
_cell_angle_alpha   89.99991881
_cell_angle_beta   90.00015804
_cell_angle_gamma   89.99954308
_symmetry_Int_Tables_number   1
_chemical_formula_structural   NaBH12C9N6O
_chemical_formula_sum   'Na4 B4 H48 C36 N24 O4'
_cell_volume   1193.70970895
_cell_formula_units_Z   4
loop_
 _symmetry_equiv_pos_site_id
 _symmetry_equiv_pos_as_xyz
  1  'x, y, z'
loop_
 _atom_site_type_symbol
 _atom_site_label
 _atom_site_symmetry_multiplicity
 _atom_site_fract_x
 _atom_site_fract_y
 _atom_site_fract_z
 _atom_site_occupancy
 _atom_site_hle17_bader_spin_density
 _atom_site_hle17_ddec_charge
 _atom_site_hle17_ddec_spin_density
 _atom_site_hle17_ddec_sum_bond_order
 _atom_site_hle17_magmom
 _atom_site_hse06_10hf_bader_spin_density
 _atom_site_hse06_10hf_ddec_charge
 _atom_site_hse06_10hf_ddec_spin_density
 _atom_site_hse06_10hf_ddec_sum_bond_order
 _atom_site_hse06_10hf_magmom
 _atom_site_hse06_bader_spin_density
 _atom_site_hse06_ddec_charge
 _atom_site_hse06_ddec_spin_density
 _atom_site_hse06_ddec_sum_bond_order
 _atom_site_hse06_magmom
 _atom_site_pbe_bader_spin_density
 _atom_site_pbe_cm5_charge
 _atom_site_pbe_ddec_charge
 _atom_site_pbe_ddec_spin_density
 _atom_site_pbe_ddec_sum_bond_order
 _atom_site_pbe_magmom
Na  Na0  1  0.08310840  0.74933201  0.99723275  1  0  0.878771  0  0.406668  0  0  0.813046  0  0.581903  0  0  0.823648  0  0.562891  0  0  0.725853  0.805375  0  0.595468  0
Na  Na1  1  0.58310645  0.75066489  0.00276799  1  0  0.878782  0  0.406661  0  0  0.813051  0  0.581912  0  0  0.823655  0  0.562903  0  0  0.725859  0.805383  0  0.595478  0
Na  Na2  1  0.91689269  0.24933501  0.50276849  1  0  0.878778  0  0.406657  0  0  0.813051  0  0.581899  0  0  0.823648  0  0.56288  0  0  0.725849  0.805378  0  0.59546  0
Na  Na3  1  0.41689204  0.25066831  0.49723140  1  0  0.878786  0  0.406645  0  0  0.813054  0  0.58189  0  0  0.823652  0  0.562875  0  0  0.72585  0.805387  0  0.595457  0
B  B4  1  0.31906171  0.02105215  0.11584077  1  0  0.494153  0  3.199464  0  0  0.3053  0  3.533618  0  0  0.325408  0  3.533903  0  0  -0.053726  0.291491  0  3.533875  0
B  B5  1  0.81906608  0.47894341  0.88415951  1  0  0.494156  0  3.199311  0  0  0.305305  0  3.533486  0  0  0.325408  0  3.533774  0  0  -0.053749  0.291515  0  3.533704  0
B  B6  1  0.68093327  0.52105637  0.38415876  1  0  0.494223  0  3.199345  0  0  0.305341  0  3.533557  0  0  0.325445  0  3.533844  0  0  -0.053771  0.291531  0  3.533823  0
B  B7  1  0.18093567  0.97894468  0.61584110  1  0  0.494264  0  3.199376  0  0  0.305406  0  3.533548  0  0  0.325512  0  3.533832  0  0  -0.053755  0.291599  0  3.533804  0
H  H8  1  0.46199601  0.08863017  0.13481493  1  0  -0.221528  0  0.945828  0  0  -0.179298  0  1.041637  0  0  -0.184293  0  1.040341  0  0  0.0591  -0.175862  0  1.042511  0
H  H9  1  0.96200087  0.41136322  0.86518597  1  0  -0.221556  0  0.945806  0  0  -0.17932  0  1.041597  0  0  -0.184312  0  1.0403  0  0  0.059091  -0.175885  0  1.042472  0
H  H10  1  0.53800117  0.58863542  0.36518406  1  0  -0.221566  0  0.945805  0  0  -0.179322  0  1.041598  0  0  -0.184316  0  1.040301  0  0  0.059109  -0.175879  0  1.042473  0
H  H11  1  0.03800437  0.91136539  0.63481566  1  0  -0.221536  0  0.945808  0  0  -0.179304  0  1.041599  0  0  -0.184298  0  1.040302  0  0  0.059107  -0.175864  0  1.042476  0
H  H12  1  0.60378198  0.84964874  0.18430033  1  0  0.098169  0  0.96803  0  0  0.110391  0  1.030404  0  0  0.11275  0  1.028221  0  0  0.122421  0.108652  0  1.031991  0
H  H13  1  0.10378200  0.65034200  0.81570044  1  0  0.098136  0  0.968136  0  0  0.110351  0  1.030505  0  0  0.11271  0  1.028323  0  0  0.12243  0.108617  0  1.032091  0
H  H14  1  0.39621841  0.34965413  0.31569901  1  0  0.098143  0  0.968144  0  0  0.110363  0  1.030506  0  0  0.112723  0  1.028322  0  0  0.122433  0.108627  0  1.032095  0
H  H15  1  0.89621576  0.15034812  0.68429939  1  0  0.098144  0  0.96812  0  0  0.11037  0  1.030487  0  0  0.11273  0  1.028303  0  0  0.122419  0.108631  0  1.032077  0
H  H16  1  0.54575368  0.52202670  0.19458592  1  0  0.117113  0  0.963257  0  0  0.12999  0  1.017118  0  0  0.13305  0  1.016854  0  0  0.10505  0.127792  0  1.017451  0
H  H17  1  0.04575192  0.97796684  0.80541577  1  0  0.117076  0  0.96324  0  0  0.129995  0  1.017056  0  0  0.133055  0  1.016792  0  0  0.105051  0.127808  0  1.017377  0
H  H18  1  0.45425267  0.02203174  0.30541508  1  0  0.117066  0  0.963259  0  0  0.129991  0  1.017072  0  0  0.13305  0  1.016808  0  0  0.105043  0.127797  0  1.017397  0
H  H19  1  0.95424273  0.47797253  0.69458239  1  0  0.117065  0  0.963328  0  0  0.129991  0  1.017129  0  0  0.133054  0  1.016861  0  0  0.10503  0.127789  0  1.017464  0
H  H20  1  0.21966348  0.47249790  0.12184007  1  0  0.080061  0  0.96829  0  0  0.089316  0  1.034965  0  0  0.091189  0  1.033733  0  0  0.111875  0.08797  0  1.035807  0
H  H21  1  0.71966498  0.02749832  0.87816306  1  0  0.080092  0  0.968262  0  0  0.089355  0  1.034924  0  0  0.09123  0  1.033691  0  0  0.111881  0.088013  0  1.035765  0
H  H22  1  0.78033859  0.97250148  0.37816311  1  0  0.080048  0  0.968263  0  0  0.089319  0  1.034925  0  0  0.091193  0  1.033693  0  0  0.111861  0.087974  0  1.035763  0
H  H23  1  0.28033253  0.52750131  0.62183586  1  0  0.08013  0  0.968268  0  0  0.089382  0  1.034936  0  0  0.091256  0  1.033703  0  0  0.111904  0.088038  0  1.035776  0
H  H24  1  0.35733520  0.99439025  0.89074756  1  0  0.095156  0  0.945165  0  0  0.108181  0  1.002516  0  0  0.110092  0  1.001468  0  0  0.121897  0.10678  0  1.003278  0
H  H25  1  0.85733359  0.50561444  0.10925247  1  0  0.095238  0  0.945175  0  0  0.108258  0  1.002509  0  0  0.110172  0  1.001461  0  0  0.121914  0.106858  0  1.003264  0
H  H26  1  0.64266782  0.49439110  0.60925207  1  0  0.095132  0  0.945178  0  0  0.108154  0  1.002529  0  0  0.110067  0  1.001482  0  0  0.121875  0.106753  0  1.003283  0
H  H27  1  0.14267149  0.00561165  0.39074756  1  0  0.095118  0  0.945217  0  0  0.108146  0  1.002555  0  0  0.110059  0  1.001509  0  0  0.121868  0.106749  0  1.003308  0
H  H28  1  0.12221905  0.25513861  0.91485964  1  0  0.123484  0  0.991022  0  0  0.132204  0  1.05123  0  0  0.135175  0  1.051144  0  0  0.102608  0.130082  0  1.051455  0
H  H29  1  0.62221212  0.24487270  0.08514192  1  0  0.123445  0  0.991019  0  0  0.132156  0  1.051243  0  0  0.135127  0  1.051155  0  0  0.102557  0.130032  0  1.051472  0
H  H30  1  0.87778341  0.75513653  0.58513963  1  0  0.123484  0  0.990934  0  0  0.132208  0  1.051138  0  0  0.135178  0  1.051052  0  0  0.102599  0.13009  0  1.051357  0
H  H31  1  0.37779211  0.74486561  0.41486090  1  0  0.123476  0  0.9911  0  0  0.132214  0  1.051272  0  0  0.135185  0  1.051185  0  0  0.102578  0.130095  0  1.051483  0
H  H32  1  0.09321411  0.25982074  0.04899400  1  0  0.095634  0  0.981613  0  0  0.104429  0  1.04853  0  0  0.106468  0  1.047609  0  0  0.119267  0.102887  0  1.049294  0
H  H33  1  0.59321133  0.24018234  0.95100704  1  0  0.09564  0  0.981615  0  0  0.10444  0  1.048521  0  0  0.106479  0  1.047599  0  0  0.11928  0.102914  0  1.049274  0
H  H34  1  0.90678286  0.75982202  0.45100489  1  0  0.095618  0  0.981614  0  0  0.104413  0  1.048536  0  0  0.106451  0  1.047616  0  0  0.119265  0.102888  0  1.049284  0
H  H35  1  0.40678842  0.74017872  0.54899616  1  0  0.095595  0  0.98162  0  0  0.104397  0  1.048531  0  0  0.106435  0  1.04761  0  0  0.119246  0.102869  0  1.049286  0
H  H36  1  0.30503902  0.24753798  0.21928925  1  0  0.090885  0  0.968454  0  0  0.104914  0  1.028742  0  0  0.106722  0  1.027422  0  0  0.118031  0.10359  0  1.029675  0
H  H37  1  0.80504044  0.25245526  0.78071053  1  0  0.090931  0  0.96842  0  0  0.104959  0  1.028714  0  0  0.106768  0  1.027394  0  0  0.118039  0.103636  0  1.029644  0
H  H38  1  0.69495523  0.74754487  0.28071162  1  0  0.090918  0  0.968421  0  0  0.104944  0  1.028713  0  0  0.106753  0  1.027392  0  0  0.118017  0.103618  0  1.029644  0
H  H39  1  0.19496773  0.75245849  0.71928923  1  0  0.090888  0  0.968507  0  0  0.104921  0  1.028787  0  0  0.106728  0  1.02747  0  0  0.118032  0.103599  0  1.029718  0
H  H40  1  0.94897276  0.30246563  0.27232337  1  0  0.131881  0  0.983337  0  0  0.135161  0  1.048348  0  0  0.13824  0  1.048907  0  0  0.104444  0.132959  0  1.048158  0
H  H41  1  0.44897446  0.19753507  0.72767655  1  0  0.131911  0  0.983359  0  0  0.135152  0  1.048418  0  0  0.13823  0  1.048979  0  0  0.104422  0.132952  0  1.048221  0
H  H42  1  0.05101954  0.80247100  0.22767697  1  0  0.131853  0  0.983301  0  0  0.135152  0  1.048309  0  0  0.13823  0  1.048871  0  0  0.104424  0.132949  0  1.048114  0
H  H43  1  0.55103138  0.69752972  0.77232227  1  0  0.131859  0  0.983427  0  0  0.135151  0  1.048427  0  0  0.13823  0  1.048987  0  0  0.104416  0.132951  0  1.048238  0
H  H44  1  0.71552653  0.10779405  0.19786368  1  0  0.079222  0  0.979081  0  0  0.089256  0  1.0467  0  0  0.091041  0  1.045387  0  0  0.106579  0.087948  0  1.047622  0
H  H45  1  0.21553125  0.39221182  0.80213504  1  0  0.079195  0  0.979087  0  0  0.089236  0  1.046696  0  0  0.09102  0  1.045385  0  0  0.106565  0.087931  0  1.04762  0
H  H46  1  0.28446620  0.60779159  0.30213335  1  0  0.079241  0  0.979064  0  0  0.089233  0  1.046722  0  0  0.091017  0  1.04541  0  0  0.106582  0.087925  0  1.047646  0
H  H47  1  0.78447417  0.89220637  0.69786465  1  0  0.079219  0  0.979062  0  0  0.089221  0  1.046713  0  0  0.091008  0  1.045397  0  0  0.106578  0.087914  0  1.047638  0
H  H48  1  0.81320531  0.01886136  0.01380139  1  0  0.402773  0  0.873799  0  0  0.379427  0  0.944846  0  0  0.386445  0  0.934774  0  0  0.299077  0.374483  0  0.951952  0
H  H49  1  0.31320782  0.48113423  0.98619693  1  0  0.402728  0  0.873881  0  0  0.379389  0  0.944904  0  0  0.386408  0  0.934832  0  0  0.299051  0.374448  0  0.952005  0
H  H50  1  0.18679111  0.51886613  0.48619667  1  0  0.40273  0  0.873875  0  0  0.379392  0  0.944899  0  0  0.38641  0  0.934827  0  0  0.299061  0.374452  0  0.951997  0
H  H51  1  0.68679391  0.98113969  0.51380319  1  0  0.402766  0  0.873886  0  0  0.379425  0  0.944873  0  0  0.386444  0  0.9348  0  0  0.299073  0.374481  0  0.951979  0
H  H52  1  0.88562862  0.95594473  0.08150543  1  0  0.387858  0  0.939417  0  0  0.343302  0  1.027015  0  0  0.354675  0  1.010771  0  0  0.279059  0.335353  0  1.038336  0
H  H53  1  0.38563331  0.54405255  0.91849315  1  0  0.387765  0  0.939557  0  0  0.343176  0  1.027203  0  0  0.35455  0  1.010958  0  0  0.278985  0.335225  0  1.038527  0
H  H54  1  0.11436934  0.45594804  0.41849286  1  0  0.387764  0  0.939554  0  0  0.343183  0  1.02719  0  0  0.354556  0  1.010946  0  0  0.279012  0.335231  0  1.038517  0
H  H55  1  0.61436688  0.04405369  0.58150674  1  0  0.387838  0  0.939438  0  0  0.343276  0  1.027052  0  0  0.354648  0  1.010809  0  0  0.279042  0.335324  0  1.038378  0
C  C56  1  0.49124894  0.77467990  0.16471913  1  0  0.002234  0  3.729047  0  0  -0.040905  0  3.980847  0  0  -0.033143  0  3.996767  0  0  0.017336  -0.045677  0  3.969816  0
C  C57  1  0.99124964  0.72531186  0.83528102  1  0  0.002431  0  3.728967  0  0  -0.040694  0  3.980765  0  0  -0.032931  0  3.996685  0  0  0.017419  -0.045467  0  3.96974  0
C  C58  1  0.50875074  0.27468688  0.33528074  1  0  0.002356  0  3.728935  0  0  -0.040772  0  3.98074  0  0  -0.03301  0  3.996658  0  0  0.017389  -0.045541  0  3.969715  0
C  C59  1  0.00875025  0.22531556  0.66471876  1  0  0.00239  0  3.728969  0  0  -0.040747  0  3.980766  0  0  -0.032984  0  3.996688  0  0  0.017394  -0.04552  0  3.969737  0
C  C60  1  0.45969768  0.61010444  0.16892639  1  0  -0.231029  0  3.834363  0  0  -0.242623  0  4.092255  0  0  -0.251996  0  4.114176  0  0  -0.123926  -0.236457  0  4.077305  0
C  C61  1  0.95969963  0.88988994  0.83107618  1  0  -0.231131  0  3.834267  0  0  -0.242768  0  4.092174  0  0  -0.252143  0  4.114099  0  0  -0.124034  -0.236604  0  4.077214  0
C  C62  1  0.54030499  0.11010882  0.33107456  1  0  -0.231115  0  3.83428  0  0  -0.242757  0  4.092188  0  0  -0.252134  0  4.114118  0  0  -0.124007  -0.236591  0  4.077226  0
C  C63  1  0.04029870  0.38989341  0.66892350  1  0  -0.231104  0  3.834282  0  0  -0.242751  0  4.09218  0  0  -0.252125  0  4.1141  0  0  -0.123986  -0.236577  0  4.077224  0
C  C64  1  0.29406639  0.58459364  0.13147155  1  0  0.034384  0  3.799713  0  0  0.004229  0  4.071451  0  0  0.010356  0  4.087075  0  0  0.00862  0.000456  0  4.060589  0
C  C65  1  0.79406697  0.91539823  0.86853038  1  0  0.034349  0  3.799654  0  0  0.004187  0  4.071388  0  0  0.010314  0  4.087011  0  0  0.008692  0.000413  0  4.060531  0
C  C66  1  0.70593510  0.08460160  0.36853039  1  0  0.034412  0  3.799601  0  0  0.004245  0  4.071344  0  0  0.010371  0  4.086968  0  0  0.008703  0.000478  0  4.060475  0
C  C67  1  0.20592969  0.41540073  0.63146978  1  0  0.034398  0  3.799686  0  0  0.004251  0  4.071409  0  0  0.010376  0  4.087035  0  0  0.008685  0.000476  0  4.060546  0
C  C68  1  0.30909428  0.04319522  0.93727939  1  0  0.019624  0  3.816285  0  0  -0.011861  0  4.085489  0  0  -0.00556  0  4.100672  0  0  0.003762  -0.01574  0  4.074953  0
C  C69  1  0.80909369  0.45680762  0.06272137  1  0  0.01938  0  3.816393  0  0  -0.012094  0  4.085593  0  0  -0.005798  0  4.100781  0  0  0.003663  -0.015965  0  4.075034  0
C  C70  1  0.69090735  0.54319808  0.56272050  1  0  0.019674  0  3.816259  0  0  -0.011804  0  4.085442  0  0  -0.005507  0  4.100629  0  0  0.003777  -0.015675  0  4.074885  0
C  C71  1  0.19091137  0.95680411  0.43727986  1  0  0.019653  0  3.81636  0  0  -0.011828  0  4.085548  0  0  -0.005529  0  4.100734  0  0  0.003727  -0.015703  0  4.074996  0
C  C72  1  0.19018026  0.17567859  0.94976928  1  0  -0.223601  0  3.801706  0  0  -0.234795  0  4.059909  0  0  -0.243934  0  4.080806  0  0  -0.122718  -0.228857  0  4.045769  0
C  C73  1  0.69017514  0.32432745  0.05023137  1  0  -0.223614  0  3.801837  0  0  -0.234799  0  4.060027  0  0  -0.243938  0  4.080927  0  0  -0.122684  -0.228853  0  4.045878  0
C  C74  1  0.80982010  0.67567830  0.55022955  1  0  -0.223686  0  3.801756  0  0  -0.234879  0  4.05995  0  0  -0.24402  0  4.08085  0  0  -0.122715  -0.228947  0  4.045815  0
C  C75  1  0.30982691  0.82432310  0.44977092  1  0  -0.223715  0  3.801905  0  0  -0.234925  0  4.060112  0  0  -0.244065  0  4.081009  0  0  -0.122686  -0.228983  0  4.045968  0
C  C76  1  0.17537206  0.18087925  0.01760732  1  0  0.014078  0  3.708996  0  0  -0.029835  0  3.963938  0  0  -0.021593  0  3.978538  0  0  0.0172  -0.034936  0  3.953887  0
C  C77  1  0.67537163  0.31912208  0.98239234  1  0  0.014116  0  3.708996  0  0  -0.029808  0  3.963966  0  0  -0.021565  0  3.978563  0  0  0.017231  -0.034925  0  3.953909  0
C  C78  1  0.82462566  0.68088097  0.48239212  1  0  0.014106  0  3.709113  0  0  -0.029816  0  3.964068  0  0  -0.021575  0  3.978667  0  0  0.017172  -0.03493  0  3.95402  0
C  C79  1  0.32462879  0.81912153  0.51760886  1  0  0.014161  0  3.709047  0  0  -0.029756  0  3.964004  0  0  -0.021512  0  3.978603  0  0  0.017231  -0.034866  0  3.95395  0
C  C80  1  0.16762698  0.19750563  0.20648835  1  0  0.015674  0  3.727514  0  0  -0.028056  0  3.980547  0  0  -0.02078  0  3.99765  0  0  0.016749  -0.032527  0  3.968711  0
C  C81  1  0.66763088  0.30249334  0.79351081  1  0  0.01553  0  3.727434  0  0  -0.028203  0  3.980481  0  0  -0.020932  0  3.99759  0  0  0.016687  -0.032673  0  3.968639  0
C  C82  1  0.83236774  0.69751036  0.29351059  1  0  0.015546  0  3.727472  0  0  -0.028184  0  3.980528  0  0  -0.020912  0  3.997636  0  0  0.016696  -0.032648  0  3.968679  0
C  C83  1  0.33237255  0.80249208  0.70648844  1  0  0.015609  0  3.727394  0  0  -0.028137  0  3.980455  0  0  -0.020862  0  3.997561  0  0  0.016723  -0.032608  0  3.968615  0
C  C84  1  0.98730347  0.22390081  0.23211490  1  0  -0.219405  0  3.789983  0  0  -0.230017  0  4.049264  0  0  -0.239306  0  4.071265  0  0  -0.126501  -0.22398  0  4.034343  0
C  C85  1  0.48730332  0.27609963  0.76788407  1  0  -0.219449  0  3.789941  0  0  -0.230028  0  4.049242  0  0  -0.239316  0  4.071242  0  0  -0.126495  -0.223986  0  4.034316  0
C  C86  1  0.01269385  0.72390269  0.26788451  1  0  -0.21941  0  3.789979  0  0  -0.230037  0  4.049246  0  0  -0.239326  0  4.071248  0  0  -0.126531  -0.223993  0  4.03431  0
C  C87  1  0.51270462  0.77609348  0.73211617  1  0  -0.21936  0  3.789812  0  0  -0.22998  0  4.049067  0  0  -0.23927  0  4.071067  0  0  -0.126464  -0.223941  0  4.034144  0
C  C88  1  0.86854968  0.12373457  0.19461164  1  0  0.035928  0  3.774937  0  0  -0.000495  0  4.043757  0  0  0.005859  0  4.059844  0  0  0.007106  -0.004374  0  4.032518  0
C  C89  1  0.36855600  0.37627148  0.80538771  1  0  0.036017  0  3.775026  0  0  -0.000414  0  4.043833  0  0  0.00594  0  4.059922  0  0  0.007142  -0.004305  0  4.032607  0
C  C90  1  0.13144290  0.62373312  0.30538636  1  0  0.036046  0  3.77503  0  0  -0.000346  0  4.04385  0  0  0.00601  0  4.059935  0  0  0.007166  -0.004234  0  4.03262  0
C  C91  1  0.63145242  0.87626827  0.69461150  1  0  0.035941  0  3.774913  0  0  -0.00045  0  4.043741  0  0  0.005905  0  4.059828  0  0  0.007099  -0.004334  0  4.032508  0
N  N92  1  0.35139233  0.83978217  0.12692306  1  0  -0.150369  0  3.55313  0  0  -0.046952  0  3.781742  0  0  -0.060807  0  3.804588  0  0  -0.147691  -0.037751  0  3.766245  0
N  N93  1  0.85139537  0.66021293  0.87307843  1  0  -0.150467  0  3.553207  0  0  -0.047069  0  3.78183  0  0  -0.060923  0  3.804675  0  0  -0.147712  -0.037862  0  3.766329  0
N  N94  1  0.64860674  0.33978689  0.37307775  1  0  -0.150396  0  3.553129  0  0  -0.046983  0  3.781756  0  0  -0.060838  0  3.8046  0  0  -0.147701  -0.037782  0  3.766271  0
N  N95  1  0.14860514  0.16021462  0.62692237  1  0  -0.150555  0  3.553367  0  0  -0.047146  0  3.781983  0  0  -0.061  0  3.804825  0  0  -0.147732  -0.037943  0  3.766496  0
N  N96  1  0.22875229  0.72314681  0.10609791  1  0  -0.316945  0  2.98564  0  0  -0.294882  0  3.260461  0  0  -0.300181  0  3.272492  0  0  -0.309097  -0.291189  0  3.252323  0
N  N97  1  0.72875724  0.77684791  0.89390395  1  0  -0.316894  0  2.985543  0  0  -0.294819  0  3.260348  0  0  -0.30012  0  3.272382  0  0  -0.309125  -0.291131  0  3.252216  0
N  N98  1  0.77124504  0.22315184  0.39390345  1  0  -0.316913  0  2.985491  0  0  -0.294842  0  3.260305  0  0  -0.300139  0  3.272332  0  0  -0.309119  -0.291156  0  3.252173  0
N  N99  1  0.27124359  0.27685005  0.60609678  1  0  -0.316916  0  2.985688  0  0  -0.294845  0  3.260487  0  0  -0.300144  0  3.272518  0  0  -0.309115  -0.291155  0  3.252351  0
N  N100  1  0.27902227  0.05753681  0.04271318  1  0  -0.139289  0  3.545113  0  0  -0.033292  0  3.765002  0  0  -0.047375  0  3.788531  0  0  -0.145648  -0.023967  0  3.749086  0
N  N101  1  0.77902616  0.44245902  0.95728706  1  0  -0.139194  0  3.545029  0  0  -0.033212  0  3.764933  0  0  -0.047291  0  3.78846  0  0  -0.145632  -0.0239  0  3.749042  0
N  N102  1  0.72097378  0.55754171  0.45728584  1  0  -0.139318  0  3.545233  0  0  -0.03332  0  3.76512  0  0  -0.047398  0  3.788642  0  0  -0.145616  -0.024007  0  3.749232  0
N  N103  1  0.22097594  0.94245907  0.54271455  1  0  -0.139302  0  3.545349  0  0  -0.03331  0  3.765206  0  0  -0.047391  0  3.788737  0  0  -0.14563  -0.024  0  3.749325  0
N  N104  1  0.36286943  0.97197253  0.99365712  1  0  -0.369611  0  3.056585  0  0  -0.33783  0  3.326272  0  0  -0.344548  0  3.339418  0  0  -0.355137  -0.333197  0  3.317435  0
N  N105  1  0.86287247  0.52802490  0.00634242  1  0  -0.369503  0  3.056432  0  0  -0.337719  0  3.326115  0  0  -0.344439  0  3.339264  0  0  -0.355093  -0.333083  0  3.317271  0
N  N106  1  0.63712954  0.47197739  0.50634203  1  0  -0.369537  0  3.056507  0  0  -0.337757  0  3.326192  0  0  -0.344473  0  3.339333  0  0  -0.355106  -0.333117  0  3.317344  0
N  N107  1  0.13713098  0.02802299  0.49365808  1  0  -0.369558  0  3.056566  0  0  -0.33778  0  3.326257  0  0  -0.344497  0  3.339399  0  0  -0.355118  -0.333143  0  3.317416  0
N  N108  1  0.15338904  0.08827992  0.15715410  1  0  -0.148585  0  3.528112  0  0  -0.048786  0  3.75541  0  0  -0.063249  0  3.780517  0  0  -0.13658  -0.039185  0  3.738407  0
N  N109  1  0.65339372  0.41171674  0.84284505  1  0  -0.148438  0  3.528117  0  0  -0.048639  0  3.755393  0  0  -0.0631  0  3.780502  0  0  -0.136468  -0.03904  0  3.738396  0
N  N110  1  0.84660672  0.58828197  0.34284490  1  0  -0.148518  0  3.528068  0  0  -0.048709  0  3.755355  0  0  -0.06317  0  3.780463  0  0  -0.136482  -0.039108  0  3.738364  0
N  N111  1  0.34661151  0.91171918  0.65715463  1  0  -0.148617  0  3.528197  0  0  -0.048796  0  3.755469  0  0  -0.06326  0  3.780576  0  0  -0.136522  -0.039188  0  3.73847  0
N  N112  1  0.96870137  0.04212739  0.14953802  1  0  -0.255427  0  3.043142  0  0  -0.211682  0  3.294266  0  0  -0.220895  0  3.309556  0  0  -0.222758  -0.205298  0  3.283809  0
N  N113  1  0.46870727  0.45787559  0.85046044  1  0  -0.255475  0  3.043387  0  0  -0.211691  0  3.294474  0  0  -0.220907  0  3.309766  0  0  -0.222763  -0.205309  0  3.284028  0
N  N114  1  0.03129626  0.54212404  0.35045953  1  0  -0.255492  0  3.043262  0  0  -0.211719  0  3.294335  0  0  -0.220935  0  3.309624  0  0  -0.222773  -0.205339  0  3.283894  0
N  N115  1  0.53129894  0.95787561  0.64953920  1  0  -0.255354  0  3.043242  0  0  -0.211614  0  3.294348  0  0  -0.220829  0  3.309643  0  0  -0.222736  -0.205229  0  3.283895  0
O  O116  1  0.83591634  0.91835509  0.03710878  1  0  -0.921299  0  1.854338  0  0  -0.877848  0  2.064594  0  0  -0.893466  0  2.035029  0  0  -0.702269  -0.866856  0  2.085275  0
O  O117  1  0.33591819  0.58164132  0.96289073  1  0  -0.921188  0  1.854462  0  0  -0.877729  0  2.064732  0  0  -0.893347  0  2.035168  0  0  -0.702193  -0.866736  0  2.08541  0
O  O118  1  0.16408055  0.41835913  0.46289051  1  0  -0.921177  0  1.854469  0  0  -0.877722  0  2.064734  0  0  -0.893336  0  2.035164  0  0  -0.702216  -0.866728  0  2.085411  0
O  O119  1  0.66408023  0.08164468  0.53710962  1  0  -0.921293  0  1.854447  0  0  -0.87785  0  2.064632  0  0  -0.893463  0  2.035062  0  0  -0.70225  -0.866852  0  2.085312  0
