# generated using pymatgen
data_Co2H18C25N2O9
_symmetry_space_group_name_H-M   'P 1'
_cell_length_a   10.22821026
_cell_length_b   11.02001399
_cell_length_c   12.18626598
_cell_angle_alpha   77.28677396
_cell_angle_beta   89.59395968
_cell_angle_gamma   82.79318330
_symmetry_Int_Tables_number   1
_chemical_formula_structural   Co2H18C25N2O9
_chemical_formula_sum   'Co4 H36 C50 N4 O18'
_cell_volume   1329.01593159
_cell_formula_units_Z   2
loop_
 _symmetry_equiv_pos_site_id
 _symmetry_equiv_pos_as_xyz
  1  'x, y, z'
loop_
 _atom_site_type_symbol
 _atom_site_label
 _atom_site_symmetry_multiplicity
 _atom_site_fract_x
 _atom_site_fract_y
 _atom_site_fract_z
 _atom_site_occupancy
 _atom_site_pbe_bader_charge
 _atom_site_pbe_bader_spin_density
 _atom_site_pbe_cm5_charge
 _atom_site_pbe_ddec_charge
 _atom_site_pbe_ddec_spin_density
 _atom_site_pbe_ddec_sum_bond_order
 _atom_site_pbe_magmom
Co  Co0  1  0.20872545  0.52336419  0.58925271  1  1.334112  2.630415  0.662985  1.031998  2.839401  2.428512  2.616
Co  Co1  1  0.79127622  0.47664224  0.41075016  1  1.334091  2.630404  0.662969  1.031986  2.839382  2.428623  2.616
Co  Co2  1  0.51690609  0.34896755  0.49689130  1  1.319723  2.64544  0.651807  1.026764  2.850715  2.363015  2.627
Co  Co3  1  0.48309719  0.65103419  0.50310510  1  1.319799  2.64545  0.651817  1.026846  2.850737  2.362852  2.627
H  H4  1  0.34157942  0.02005892  0.54178779  1  0.128418  0.00066  0.115461  0.13338  0.000266  0.98065  0.0
H  H5  1  0.65841673  0.97995873  0.45820550  1  0.128436  0.00066  0.115486  0.133354  0.000266  0.980474  0.0
H  H6  1  0.36770792  0.29849762  0.75283960  1  0.113379  0.001529  0.123537  0.101809  0.000106  1.004888  0.001
H  H7  1  0.63229816  0.70150508  0.24715741  1  0.113408  0.001529  0.123555  0.101807  0.000105  1.004899  0.001
H  H8  1  0.70986530  0.21003723  0.05303535  1  0.068807  0.000117  0.097877  0.097649  4.4e-05  1.014303  0.0
H  H9  1  0.29012175  0.78997567  0.94695897  1  0.069057  0.000117  0.097848  0.097624  4.4e-05  1.014219  0.0
H  H10  1  0.01212345  0.83628131  0.68040513  1  0.085656  0.00029  0.105354  0.110092  9.7e-05  0.995962  0.0
H  H11  1  0.98788329  0.16373078  0.31959410  1  0.087291  0.000291  0.105371  0.11007  9.7e-05  0.995983  0.0
H  H12  1  0.43197763  0.24936838  0.95552013  1  0.080052  0.001131  0.110919  0.120988  0.000576  0.992965  0.0
H  H13  1  0.56802547  0.75062772  0.04447740  1  0.079813  0.001131  0.11093  0.120955  0.000576  0.993024  0.0
H  H14  1  0.62225866  0.30566153  0.85716382  1  0.104675  0.000173  0.097614  0.094643  -8e-06  1.042889  0.0
H  H15  1  0.37773490  0.69434671  0.14283054  1  0.105212  0.000173  0.097627  0.094614  -8e-06  1.042889  0.0
H  H16  1  0.91574843  0.03076246  0.74049759  1  0.089711  0.000282  0.106653  0.123573  0.000116  1.000686  0.0
H  H17  1  0.08426177  0.96924590  0.25950399  1  0.089616  0.000282  0.106647  0.123564  0.000116  1.000672  0.0
H  H18  1  0.13342967  0.54874891  0.99836987  1  0.072571  0.000889  0.105219  0.113337  0.000399  1.02238  0.0
H  H19  1  0.86656811  0.45124341  0.00163338  1  0.072539  0.000889  0.105232  0.113334  0.000399  1.022444  0.0
H  H20  1  0.14428534  0.39877768  0.18714038  1  0.114087  0.000896  0.106046  0.112152  0.000433  1.020178  0.0
H  H21  1  0.85571787  0.60121092  0.81286521  1  0.114044  0.000896  0.106105  0.112172  0.000433  1.020197  0.0
H  H22  1  0.23682661  0.37733062  0.37828156  1  0.13242  0.001638  0.118187  0.087192  0.000274  1.070208  0.001
H  H23  1  0.76317619  0.62266079  0.62172101  1  0.132439  0.001638  0.118161  0.087147  0.000274  1.070184  0.001
H  H24  1  0.61984616  0.35146111  0.26586689  1  0.122546  0.000931  0.116986  0.083754  -0.000422  1.052345  0.001
H  H25  1  0.38015911  0.64854065  0.73413770  1  0.122633  0.000931  0.117018  0.083788  -0.000422  1.052352  0.001
H  H26  1  0.54444249  0.36831587  0.06959749  1  0.084835  0.00087  0.102188  0.106886  0.000404  1.032299  0.0
H  H27  1  0.45556010  0.63168399  0.93040586  1  0.084807  0.000869  0.102191  0.106875  0.000404  1.032302  0.0
H  H28  1  0.09665798  0.14263068  0.91819960  1  0.082358  0.00013  0.107465  0.121882  1.5e-05  0.993801  0.0
H  H29  1  0.90332720  0.85733996  0.08180316  1  0.082282  0.00013  0.107543  0.121933  1.5e-05  0.993699  0.0
H  H30  1  0.08338705  0.58738489  0.79194647  1  0.12798  0.001591  0.118021  0.092793  0.000383  1.013595  0.001
H  H31  1  0.91661229  0.41261026  0.20805621  1  0.128071  0.001589  0.118036  0.092818  0.000382  1.01358  0.001
H  H32  1  0.94795594  0.12895973  0.08367322  1  0.078777  4e-06  0.09869  0.096663  -1.5e-05  1.024209  0.0
H  H33  1  0.05202448  0.87102402  0.91633107  1  0.078469  4e-06  0.098708  0.096705  -1.5e-05  1.024216  0.0
H  H34  1  0.45214630  0.45835274  0.64732024  1  0.591191  -0.000631  0.288986  0.357062  -0.000649  0.983385  0.001
H  H35  1  0.54785556  0.54164524  0.35267692  1  0.591675  -0.000631  0.288972  0.35698  -0.000649  0.983429  0.001
H  H36  1  0.95691373  0.46960388  0.61516277  1  0.645305  0.000695  0.300541  0.387818  0.000322  0.948419  0.001
H  H37  1  0.04308763  0.53039785  0.38484022  1  0.645268  0.000695  0.300504  0.38776  0.000323  0.948479  0.001
H  H38  1  0.95396356  0.60435598  0.54319021  1  0.634114  3.4e-05  0.304832  0.395281  -0.000302  0.928157  0.0
H  H39  1  0.04603239  0.39564947  0.45681618  1  0.634591  3.3e-05  0.304841  0.395267  -0.000302  0.928144  0.0
C  C40  1  0.26050594  0.24788234  0.57777991  1  1.552367  -0.004206  0.219102  0.597546  -0.006236  4.166162  -0.003
C  C41  1  0.73949643  0.75212596  0.42221683  1  1.552099  -0.004211  0.219208  0.597783  -0.006239  4.166037  -0.003
C  C42  1  0.80805062  0.27973912  0.77902948  1  -0.010942  0.008919  -0.022507  -0.131816  0.004671  3.93085  0.007
C  C43  1  0.19194578  0.72025600  0.22096995  1  -0.010935  0.008917  -0.022573  -0.132148  0.00467  3.930997  0.007
C  C44  1  0.24841293  0.79494330  0.58431684  1  1.548189  -0.005896  0.210464  0.578464  -0.007357  4.205057  -0.003
C  C45  1  0.75158834  0.20506594  0.41568137  1  1.547805  -0.005894  0.210457  0.578353  -0.007356  4.205216  -0.003
C  C46  1  0.19396582  0.13339312  0.61423231  1  -0.038169  0.008036  -0.031547  -0.153934  0.003918  3.974979  0.006
C  C47  1  0.80603933  0.86661614  0.38576094  1  -0.038246  0.008036  -0.031645  -0.154218  0.003918  3.975502  0.006
C  C48  1  0.94184528  0.23204277  0.79861931  1  0.477113  -0.000382  0.088694  0.2357  -0.000794  4.005881  0.0
C  C49  1  0.05815125  0.76795142  0.20138030  1  0.476222  -0.000381  0.088667  0.235827  -0.000794  4.006122  0.0
C  C50  1  0.07561132  0.13387071  0.67490934  1  0.457383  -0.001363  0.10045  0.265709  -0.00189  3.980474  -0.001
C  C51  1  0.92438814  0.86613758  0.32509235  1  0.457495  -0.001361  0.100689  0.266129  -0.001888  3.980614  -0.001
C  C52  1  0.24791545  0.02224038  0.58491040  1  8.7e-05  -6.6e-05  -0.069795  -0.076187  -0.000924  3.931315  0.0
C  C53  1  0.75208892  0.97777451  0.41508255  1  0.000454  -6.7e-05  -0.069806  -0.076115  -0.000925  3.931389  0.0
C  C54  1  0.29066913  0.39769672  0.99415277  1  -0.044456  -0.021538  0.004397  0.095654  -0.023083  4.005867  -0.013
C  C55  1  0.70933452  0.60229564  0.00584961  1  -0.044242  -0.02154  0.004427  0.09571  -0.023086  4.005924  -0.013
C  C56  1  0.31813274  0.35244336  0.80967034  1  0.53322  -0.012969  0.042275  0.084242  -0.014198  3.951152  -0.007
C  C57  1  0.68187042  0.64755932  0.19032670  1  0.533124  -0.012965  0.042245  0.084248  -0.014194  3.951223  -0.007
C  C58  1  0.74777297  0.33663318  0.66351084  1  1.587351  -0.00252  0.217323  0.607285  -0.003633  4.156584  -0.002
C  C59  1  0.25222660  0.66336008  0.33648237  1  1.587285  -0.002516  0.217452  0.607471  -0.003631  4.156356  -0.002
C  C60  1  0.77517307  0.21684528  0.98144468  1  -0.042606  0.000713  -0.102456  -0.113394  0.000317  4.045456  0.001
C  C61  1  0.22481641  0.78315731  0.01855331  1  -0.043121  0.000713  -0.102538  -0.113506  0.000317  4.045301  0.001
C  C62  1  0.06326426  0.91928820  0.66418931  1  -0.011606  -0.000479  -0.078583  -0.056417  -0.000901  3.987593  0.0
C  C63  1  0.93673812  0.08072011  0.33581153  1  -0.013562  -0.000477  -0.078617  -0.056381  -0.000899  3.987846  0.0
C  C64  1  0.18471158  0.91453716  0.61003428  1  -0.023895  0.01136  -0.031375  -0.065521  0.005798  4.014689  0.009
C  C65  1  0.81529425  0.08546741  0.38996318  1  -0.024014  0.011361  -0.031462  -0.065558  0.005799  4.014916  0.009
C  C66  1  0.35427010  0.32578848  0.92286866  1  -0.090927  0.002825  -0.085232  -0.181257  0.000601  3.95987  0.003
C  C67  1  0.64573289  0.67420857  0.07713360  1  -0.09061  0.002825  -0.085226  -0.181247  0.000601  3.959887  0.003
C  C68  1  0.33692534  0.38236388  0.11085068  1  -0.012204  -0.017011  0.003156  0.094356  -0.018329  4.012656  -0.01
C  C69  1  0.66308013  0.61762943  0.88915313  1  -0.011996  -0.017006  0.003073  0.094279  -0.018324  4.012768  -0.01
C  C70  1  0.72623005  0.27011677  0.87290128  1  -0.113024  -0.000643  -0.089005  -0.085966  -0.000952  4.002488  0.0
C  C71  1  0.27376945  0.72988401  0.12709289  1  -0.113494  -0.000643  -0.088917  -0.085694  -0.000952  4.002205  0.0
C  C72  1  0.00942668  0.02747536  0.69744972  1  -0.059916  0.001259  -0.111194  -0.229537  0.000549  4.027974  0.001
C  C73  1  0.99057810  0.97253672  0.30255117  1  -0.059873  0.001258  -0.111232  -0.229652  0.000549  4.028107  0.001
C  C74  1  0.18659852  0.48982038  0.94736070  1  -0.069353  0.002782  -0.086901  -0.181129  0.000438  3.951267  0.003
C  C75  1  0.81339997  0.51017382  0.05264053  1  -0.069593  0.002783  -0.086995  -0.181218  0.000438  3.951487  0.003
C  C76  1  0.25079979  0.38663551  0.20019306  1  -0.103816  0.000866  -0.085425  -0.17065  -0.00048  3.938024  0.002
C  C77  1  0.74920203  0.61335590  0.79980952  1  -0.103794  0.000865  -0.085456  -0.170679  -0.000481  3.938345  0.002
C  C78  1  0.30192496  0.37436513  0.30799639  1  0.550596  -0.009172  0.046172  0.107016  -0.009854  3.925377  -0.005
C  C79  1  0.69807883  0.62562629  0.69200945  1  0.550516  -0.009168  0.046241  0.107122  -0.00985  3.925621  -0.005
C  C80  1  0.51521505  0.35899685  0.24565631  1  0.454359  -0.011457  0.039531  0.09382  -0.012282  3.948117  -0.007
C  C81  1  0.48478292  0.64100110  0.75434418  1  0.454403  -0.011456  0.039527  0.093752  -0.01228  3.948169  -0.007
C  C82  1  0.47247773  0.36778769  0.13604810  1  -0.078423  0.001986  -0.088977  -0.183987  0.0003  3.959177  0.002
C  C83  1  0.52752428  0.63220935  0.86395664  1  -0.078877  0.001985  -0.088927  -0.18388  0.000299  3.958893  0.002
C  C84  1  0.99218324  0.17856121  0.90731192  1  -0.098  0.000762  -0.100507  -0.201344  0.000323  4.00989  0.001
C  C85  1  0.00780845  0.82141886  0.09269465  1  -0.097676  0.000762  -0.100645  -0.201504  0.000322  4.009814  0.001
C  C86  1  0.15813740  0.51207946  0.83285902  1  0.497699  -0.01201  0.046406  0.099603  -0.01274  3.942667  -0.007
C  C87  1  0.84186487  0.48791570  0.16714281  1  0.497597  -0.012016  0.046407  0.099654  -0.012747  3.942474  -0.007
C  C88  1  0.90912611  0.17107006  0.99893630  1  0.014794  -0.001537  -0.091905  -0.059583  -0.001659  4.025258  -0.001
C  C89  1  0.09085825  0.82892028  0.00106336  1  0.01529  -0.001537  -0.091812  -0.059519  -0.001659  4.025061  -0.001
N  N90  1  0.43201256  0.36142493  0.33194731  1  -1.214069  0.046391  -0.317064  -0.254612  0.02315  3.522315  0.046
N  N91  1  0.56798778  0.63857022  0.66805864  1  -1.213967  0.046391  -0.317118  -0.254642  0.023149  3.522525  0.046
N  N92  1  0.22456135  0.44728653  0.76345433  1  -1.203737  0.049967  -0.329744  -0.26012  0.025487  3.563435  0.047
N  N93  1  0.77544196  0.55271521  0.23654864  1  -1.203527  0.049966  -0.329737  -0.260166  0.025486  3.563273  0.047
O  O94  1  0.40489289  0.49382071  0.57599054  1  -1.169295  0.232619  -0.561971  -0.903274  0.126722  2.433749  0.199
O  O95  1  0.59510857  0.50618008  0.42400771  1  -1.169582  0.232624  -0.561952  -0.903094  0.126722  2.433714  0.199
O  O96  1  0.18594306  0.35348724  0.55327092  1  -1.177551  0.058005  -0.317389  -0.597985  0.030284  2.475179  0.048
O  O97  1  0.81405417  0.64652291  0.44672960  1  -1.177868  0.057997  -0.317432  -0.598091  0.03028  2.475369  0.048
O  O98  1  0.38479327  0.23429807  0.56873210  1  -1.129379  0.087372  -0.299318  -0.531482  0.045129  2.346716  0.075
O  O99  1  0.61520297  0.76571207  0.43126351  1  -1.12888  0.087388  -0.299356  -0.531582  0.045134  2.346448  0.075
O  O100  1  0.82240594  0.38900123  0.58780848  1  -1.175596  0.045249  -0.302845  -0.576041  0.023226  2.374978  0.042
O  O101  1  0.17759990  0.61098926  0.41218687  1  -1.175264  0.04524  -0.302888  -0.576088  0.023223  2.375021  0.042
O  O102  1  0.00158428  0.54605633  0.60813920  1  -1.240162  0.054693  -0.572405  -0.754992  0.028967  2.184157  0.044
O  O103  1  0.99841291  0.45394725  0.39186427  1  -1.24069  0.0547  -0.572389  -0.75492  0.028971  2.184221  0.044
O  O104  1  0.35718907  0.79662723  0.53312942  1  -1.149078  0.07753  -0.307873  -0.54736  0.04007  2.360648  0.065
O  O105  1  0.64281045  0.20337355  0.46687049  1  -1.148737  0.077545  -0.307881  -0.547315  0.040077  2.360643  0.065
O  O106  1  0.02942062  0.24075094  0.71057848  1  -1.100898  -0.000422  -0.143202  -0.198508  -0.00067  2.639055  0.0
O  O107  1  0.97058342  0.75925269  0.28942985  1  -1.100295  -0.000421  -0.143254  -0.198633  -0.000669  2.639171  0.0
O  O108  1  0.19154540  0.69745804  0.62115637  1  -1.169729  0.074454  -0.322425  -0.585983  0.039044  2.428837  0.064
O  O109  1  0.80844681  0.30255302  0.37884073  1  -1.169638  0.074444  -0.322306  -0.585865  0.039041  2.429227  0.064
O  O110  1  0.62612393  0.32862913  0.65206448  1  -1.157167  0.048783  -0.307694  -0.554071  0.024829  2.312427  0.044
O  O111  1  0.37388221  0.67136606  0.34792747  1  -1.157228  0.048789  -0.307784  -0.554174  0.024832  2.312176  0.044
