# generated using pymatgen
data_ZnH12C10Se(NCl)2
_symmetry_space_group_name_H-M   'P 1'
_cell_length_a   10.17704709
_cell_length_b   10.26192482
_cell_length_c   12.20330000
_cell_angle_alpha   90.00000000
_cell_angle_beta   90.00000000
_cell_angle_gamma   90.00000000
_symmetry_Int_Tables_number   1
_chemical_formula_structural   ZnH12C10Se(NCl)2
_chemical_formula_sum   'Zn4 H48 C40 Se4 N8 Cl8'
_cell_volume   1274.46496343
_cell_formula_units_Z   4
loop_
 _symmetry_equiv_pos_site_id
 _symmetry_equiv_pos_as_xyz
  1  'x, y, z'
loop_
 _atom_site_type_symbol
 _atom_site_label
 _atom_site_symmetry_multiplicity
 _atom_site_fract_x
 _atom_site_fract_y
 _atom_site_fract_z
 _atom_site_occupancy
 _atom_site_hle17_bader_spin_density
 _atom_site_hle17_ddec_charge
 _atom_site_hle17_ddec_spin_density
 _atom_site_hle17_ddec_sum_bond_order
 _atom_site_hle17_magmom
 _atom_site_hse06_10hf_bader_spin_density
 _atom_site_hse06_10hf_ddec_charge
 _atom_site_hse06_10hf_ddec_spin_density
 _atom_site_hse06_10hf_ddec_sum_bond_order
 _atom_site_hse06_10hf_magmom
 _atom_site_hse06_bader_spin_density
 _atom_site_hse06_ddec_charge
 _atom_site_hse06_ddec_spin_density
 _atom_site_hse06_ddec_sum_bond_order
 _atom_site_hse06_magmom
 _atom_site_pbe_bader_charge
 _atom_site_pbe_bader_spin_density
 _atom_site_pbe_cm5_charge
 _atom_site_pbe_ddec_charge
 _atom_site_pbe_ddec_spin_density
 _atom_site_pbe_ddec_sum_bond_order
 _atom_site_pbe_magmom
Zn  Zn0  1  0.18427546  0.00679502  0.77465112  1  0  0.726149  0  2.233956  0  0  0.569107  0  2.720182  0  0  0.608524  0  2.677761  0  1.008211  0  0.456205  0.542249  0  2.748547  0
Zn  Zn1  1  0.31572419  0.99320353  0.27465030  1  0  0.726075  0  2.234021  0  0  0.569036  0  2.720248  0  0  0.608437  0  2.677821  0  1.008258  0  0.456183  0.542176  0  2.748609  0
Zn  Zn2  1  0.68427511  0.49320279  0.22534888  1  0  0.726185  0  2.233942  0  0  0.569153  0  2.720169  0  0  0.608556  0  2.677743  0  1.008292  0  0.456225  0.542296  0  2.748533  0
Zn  Zn3  1  0.81572385  0.50679576  0.72534888  1  0  0.726114  0  2.233992  0  0  0.569074  0  2.720215  0  0  0.608475  0  2.677793  0  1.008317  0  0.456192  0.542215  0  2.748578  0
H  H4  1  0.88891698  0.07005703  0.78912589  1  0  0.070795  0  0.984024  0  0  0.072782  0  1.065361  0  0  0.075224  0  1.063638  0  0.096212  0  0.10092  0.070971  0  1.066909  0
H  H5  1  0.61108295  0.92994250  0.28912589  1  0  0.070797  0  0.984009  0  0  0.072787  0  1.065335  0  0  0.075228  0  1.063612  0  0.096218  0  0.100918  0.070976  0  1.066884  0
H  H6  1  0.38891537  0.42994176  0.21087329  1  0  0.070832  0  0.983961  0  0  0.072813  0  1.065297  0  0  0.075254  0  1.063575  0  0.096238  0  0.100932  0.071003  0  1.066843  0
H  H7  1  0.11108330  0.57005680  0.71087411  1  0  0.070797  0  0.984026  0  0  0.072784  0  1.065364  0  0  0.075225  0  1.063643  0  0.096212  0  0.100918  0.070974  0  1.066912  0
H  H8  1  0.77854509  0.99875415  0.12524071  1  0  0.096257  0  0.937539  0  0  0.109541  0  0.997816  0  0  0.111656  0  0.996323  0  0.086709  0  0.107422  0.107953  0  0.999054  0
H  H9  1  0.72145387  0.00124635  0.62524071  1  0  0.096263  0  0.937537  0  0  0.109544  0  0.997816  0  0  0.111658  0  0.996322  0  0.086718  0  0.10743  0.107955  0  0.999053  0
H  H10  1  0.27854543  0.50124904  0.87475847  1  0  0.09625  0  0.937519  0  0  0.109555  0  0.997776  0  0  0.111669  0  0.996283  0  0.086716  0  0.10742  0.107966  0  0.999015  0
H  H11  1  0.22145422  0.49875536  0.37475929  1  0  0.096281  0  0.93752  0  0  0.109563  0  0.997804  0  0  0.111676  0  0.996313  0  0.086724  0  0.107437  0.107976  0  0.99904  0
H  H12  1  0.01612550  0.95085573  0.16508322  1  0  0.109589  0  0.971156  0  0  0.116166  0  1.035027  0  0  0.119622  0  1.033858  0  0.137619  0  0.099377  0.113749  0  1.035908  0
H  H13  1  0.48387415  0.04914575  0.66508322  1  0  0.10954  0  0.971224  0  0  0.116085  0  1.035121  0  0  0.11954  0  1.033955  0  0.137616  0  0.09934  0.113668  0  1.036004  0
H  H14  1  0.51612712  0.54914649  0.83491597  1  0  0.109539  0  0.971209  0  0  0.116091  0  1.035107  0  0  0.119547  0  1.03394  0  0.137604  0  0.09934  0.113672  0  1.035989  0
H  H15  1  0.98387478  0.45085499  0.33491678  1  0  0.10957  0  0.971164  0  0  0.116117  0  1.035056  0  0  0.119572  0  1.033889  0  0.137625  0  0.099356  0.1137  0  1.035937  0
H  H16  1  0.17744931  0.96158958  0.01126499  1  0  0.062149  0  0.989692  0  0  0.06494  0  1.069991  0  0  0.067597  0  1.067871  0  0.104894  0  0.10002  0.062947  0  1.07145  0
H  H17  1  0.32255034  0.03841190  0.51126417  1  0  0.062188  0  0.989717  0  0  0.064974  0  1.070002  0  0  0.067634  0  1.067879  0  0.1049  0  0.100046  0.062982  0  1.071461  0
H  H18  1  0.67744995  0.53841166  0.98873583  1  0  0.062175  0  0.989724  0  0  0.06497  0  1.070008  0  0  0.067628  0  1.067887  0  0.104895  0  0.100043  0.062977  0  1.071467  0
H  H19  1  0.82255097  0.46158787  0.48873583  1  0  0.062187  0  0.989741  0  0  0.064974  0  1.070029  0  0  0.067632  0  1.067907  0  0.104894  0  0.100043  0.062982  0  1.071487  0
H  H20  1  0.66366402  0.08622067  0.83729565  1  0  0.07044  0  0.92543  0  0  0.080541  0  0.987347  0  0  0.081759  0  0.986488  0  0.091043  0  0.107894  0.07939  0  0.988155  0
H  H21  1  0.83633493  0.91377886  0.33729565  1  0  0.070401  0  0.925482  0  0  0.080529  0  0.987365  0  0  0.081731  0  0.986524  0  0.091045  0  0.107891  0.079377  0  0.988173  0
H  H22  1  0.16366634  0.41377910  0.16270353  1  0  0.070418  0  0.925455  0  0  0.080536  0  0.987343  0  0  0.081739  0  0.986502  0  0.091061  0  0.107896  0.079385  0  0.98815  0
H  H23  1  0.33633528  0.58622141  0.66270435  1  0  0.070419  0  0.925483  0  0  0.080543  0  0.98737  0  0  0.081745  0  0.986529  0  0.091046  0  0.107889  0.079391  0  0.988179  0
H  H24  1  0.58068514  0.14021054  0.16137192  1  0  0.096368  0  0.924781  0  0  0.113719  0  0.987871  0  0  0.116117  0  0.986747  0  0.066188  0  0.097127  0.111701  0  0.98899  0
H  H25  1  0.91931283  0.85978607  0.66137192  1  0  0.096385  0  0.92481  0  0  0.113737  0  0.987888  0  0  0.116132  0  0.986763  0  0.066157  0  0.097138  0.111718  0  0.989007  0
H  H26  1  0.08068647  0.35978533  0.83862890  1  0  0.096359  0  0.924787  0  0  0.113718  0  0.987876  0  0  0.116114  0  0.986752  0  0.066175  0  0.097133  0.111699  0  0.988995  0
H  H27  1  0.41931515  0.64021128  0.33862890  1  0  0.09634  0  0.92482  0  0  0.113684  0  0.987919  0  0  0.11608  0  0.986796  0  0.066196  0  0.097122  0.111667  0  0.989036  0
H  H28  1  0.43828430  0.18496140  0.08931846  1  0  0.106831  0  0.943019  0  0  0.121711  0  1.007326  0  0  0.123552  0  1.007708  0  0.097109  0  0.09706  0.120062  0  1.007245  0
H  H29  1  0.06171535  0.81504008  0.58931846  1  0  0.10681  0  0.942977  0  0  0.12169  0  1.007285  0  0  0.123531  0  1.007667  0  0.096868  0  0.097055  0.12004  0  1.007205  0
H  H30  1  0.93828494  0.31504031  0.91068236  1  0  0.10684  0  0.942998  0  0  0.121733  0  1.007291  0  0  0.123575  0  1.007672  0  0.096875  0  0.097072  0.120084  0  1.00721  0
H  H31  1  0.56171598  0.68496117  0.41068236  1  0  0.106837  0  0.943021  0  0  0.121719  0  1.007323  0  0  0.123561  0  1.007705  0  0.097103  0  0.09707  0.12007  0  1.007243  0
H  H32  1  0.69917530  0.25361811  0.02076897  1  0  0.089621  0  0.97905  0  0  0.101616  0  1.047935  0  0  0.103068  0  1.048122  0  0.090573  0  0.081934  0.10054  0  1.047679  0
H  H33  1  0.80082365  0.74638239  0.52076815  1  0  0.089619  0  0.979046  0  0  0.101603  0  1.047925  0  0  0.103057  0  1.048112  0  0.090563  0  0.081926  0.100528  0  1.04767  0
H  H34  1  0.19917664  0.24638165  0.97923267  1  0  0.089634  0  0.979043  0  0  0.101623  0  1.047931  0  0  0.103077  0  1.048117  0  0.09058  0  0.081944  0.100549  0  1.047676  0
H  H35  1  0.30082498  0.75361788  0.47923185  1  0  0.089604  0  0.979058  0  0  0.101583  0  1.047957  0  0  0.103037  0  1.048142  0  0.090574  0  0.08191  0.100508  0  1.0477  0
H  H36  1  0.56052998  0.25051538  0.93156277  1  0  0.092413  0  0.959085  0  0  0.105282  0  1.025042  0  0  0.106143  0  1.026568  0  0.051466  0  0.085785  0.104457  0  1.024264  0
H  H37  1  0.93946996  0.74948512  0.43156359  1  0  0.092444  0  0.959063  0  0  0.105298  0  1.025029  0  0  0.10616  0  1.026554  0  0.051473  0  0.085805  0.104473  0  1.02425  0
H  H38  1  0.06053033  0.24948633  0.06843723  1  0  0.092446  0  0.959052  0  0  0.105319  0  1.025008  0  0  0.10618  0  1.026533  0  0.051477  0  0.085807  0.104495  0  1.02423  0
H  H39  1  0.43947031  0.75051515  0.56843723  1  0  0.092409  0  0.959083  0  0  0.10527  0  1.025039  0  0  0.106132  0  1.026564  0  0.051465  0  0.085784  0.104446  0  1.02426  0
H  H40  1  0.65972968  0.77689811  0.94977424  1  0  0.102044  0  0.951708  0  0  0.120986  0  1.022657  0  0  0.121617  0  1.022866  0  0.075571  0  0.09692  0.120179  0  1.022715  0
H  H41  1  0.84027124  0.22310239  0.44977506  1  0  0.102046  0  0.951707  0  0  0.120988  0  1.022643  0  0  0.121618  0  1.022853  0  0.075556  0  0.096919  0.120183  0  1.022698  0
H  H42  1  0.15972904  0.72310216  0.05022494  1  0  0.102065  0  0.951674  0  0  0.121002  0  1.022623  0  0  0.121632  0  1.022833  0  0.075568  0  0.096922  0.120198  0  1.022676  0
H  H43  1  0.34026963  0.27689835  0.55022576  1  0  0.101971  0  0.951683  0  0  0.120922  0  1.022654  0  0  0.121555  0  1.02286  0  0.075572  0  0.096895  0.120117  0  1.02271  0
H  H44  1  0.62173830  0.85405518  0.82240132  1  0  0.110466  0  0.945496  0  0  0.129398  0  1.010334  0  0  0.13051  0  1.00972  0  0.09644  0  0.100776  0.128323  0  1.011001  0
H  H45  1  0.87826163  0.14594533  0.32240214  1  0  0.110477  0  0.945496  0  0  0.12941  0  1.010328  0  0  0.130511  0  1.009726  0  0.096455  0  0.100772  0.128334  0  1.010996  0
H  H46  1  0.12173865  0.64594509  0.17759704  1  0  0.110437  0  0.94557  0  0  0.129409  0  1.01036  0  0  0.130512  0  1.009756  0  0.096421  0  0.100776  0.128334  0  1.011026  0
H  H47  1  0.37826100  0.35405541  0.67759868  1  0  0.110451  0  0.945479  0  0  0.1294  0  1.010322  0  0  0.1305  0  1.00972  0  0.096438  0  0.100776  0.128324  0  1.01099  0
H  H48  1  0.49173301  0.79761060  0.90776593  1  0  0.11173  0  0.969974  0  0  0.128947  0  1.039174  0  0  0.13008  0  1.039309  0  0.088698  0  0.096987  0.128153  0  1.038614  0
H  H49  1  0.00826664  0.20238796  0.40776675  1  0  0.111748  0  0.970029  0  0  0.128939  0  1.039242  0  0  0.130072  0  1.039374  0  0.088704  0  0.096991  0.128146  0  1.03868  0
H  H50  1  0.99173266  0.70238870  0.09223243  1  0  0.11176  0  0.969998  0  0  0.128974  0  1.039184  0  0  0.130108  0  1.039317  0  0.0887  0  0.097017  0.128181  0  1.038622  0
H  H51  1  0.50826728  0.29761083  0.59223407  1  0  0.111707  0  0.969978  0  0  0.128936  0  1.039183  0  0  0.130069  0  1.039319  0  0.088696  0  0.096989  0.128143  0  1.038623  0
C  C52  1  0.91162101  0.04087537  0.87308433  1  0  0.076749  0  3.681881  0  0  0.040149  0  3.927489  0  0  0.0462  0  3.946087  0  0.457802  0  0.044281  0.035862  0  3.915319  0
C  C53  1  0.58837892  0.95912416  0.37308433  1  0  0.076744  0  3.68186  0  0  0.040147  0  3.927481  0  0  0.046196  0  3.946079  0  0.457794  0  0.044271  0.03586  0  3.915309  0
C  C54  1  0.41162136  0.45912439  0.12691403  1  0  0.076714  0  3.681942  0  0  0.040106  0  3.927557  0  0  0.046164  0  3.946136  0  0.457829  0  0.044266  0.035819  0  3.915387  0
C  C55  1  0.08837927  0.54087514  0.62691567  1  0  0.076737  0  3.681908  0  0  0.040131  0  3.927523  0  0  0.046183  0  3.946119  0  0.457804  0  0.044273  0.035844  0  3.915351  0
C  C56  1  0.81444253  0.03833296  0.95355191  1  0  0.004214  0  3.697852  0  0  0.023976  0  3.936063  0  0  0.018463  0  3.960605  0  -0.018254  0  -0.001374  0.027378  0  3.919645  0
C  C57  1  0.68555642  0.96166657  0.45355191  1  0  0.004204  0  3.697869  0  0  0.023956  0  3.936086  0  0  0.018447  0  3.960622  0  -0.018244  0  -0.00137  0.02736  0  3.919668  0
C  C58  1  0.31444288  0.46166778  0.04644645  1  0  0.004125  0  3.698091  0  0  0.023929  0  3.936242  0  0  0.018417  0  3.960784  0  -0.018238  0  -0.001388  0.027332  0  3.919822  0
C  C59  1  0.18555775  0.53833370  0.54644809  1  0  0.004242  0  3.697952  0  0  0.024007  0  3.936146  0  0  0.018494  0  3.96069  0  -0.018286  0  -0.001382  0.02741  0  3.919728  0
C  C60  1  0.85188856  0.00437637  0.06028615  1  0  -0.020582  0  3.659883  0  0  -0.052671  0  3.913039  0  0  -0.048365  0  3.930335  0  -0.000722  0  -0.058376  -0.055026  0  3.900636  0
C  C61  1  0.64811039  0.99562413  0.56028615  1  0  -0.020548  0  3.659864  0  0  -0.052628  0  3.913006  0  0  -0.048323  0  3.930301  0  -0.000728  0  -0.058376  -0.054986  0  3.900607  0
C  C62  1  0.35188891  0.49562632  0.93971303  1  0  -0.020498  0  3.659922  0  0  -0.052616  0  3.913066  0  0  -0.048309  0  3.930359  0  -0.000762  0  -0.058344  -0.054973  0  3.900667  0
C  C63  1  0.14811172  0.50437614  0.43971549  1  0  -0.020592  0  3.659894  0  0  -0.052688  0  3.913038  0  0  -0.048384  0  3.930335  0  -0.000713  0  -0.058386  -0.055047  0  3.900641  0
C  C64  1  0.98286663  0.97695512  0.08294068  1  0  -0.104395  0  3.715059  0  0  -0.111762  0  3.961134  0  0  -0.118787  0  3.981534  0  -0.071293  0  -0.075944  -0.10691  0  3.945885  0
C  C65  1  0.51713331  0.02304344  0.58294150  1  0  -0.104383  0  3.71506  0  0  -0.111726  0  3.961127  0  0  -0.118751  0  3.981527  0  -0.071087  0  -0.075927  -0.106875  0  3.945879  0
C  C66  1  0.48286698  0.52304417  0.91705850  1  0  -0.104369  0  3.715061  0  0  -0.11172  0  3.961162  0  0  -0.118746  0  3.981562  0  -0.071298  0  -0.075926  -0.106864  0  3.945908  0
C  C67  1  0.01713267  0.47695536  0.41706014  1  0  -0.104357  0  3.715002  0  0  -0.111684  0  3.961055  0  0  -0.11871  0  3.981454  0  -0.071473  0  -0.075906  -0.106833  0  3.945807  0
C  C68  1  0.07341226  0.98190838  0.99754738  1  0  0.134654  0  3.677436  0  0  0.102503  0  3.922784  0  0  0.109706  0  3.9407  0  0.49096  0  0.051399  0.098683  0  3.909107  0
C  C69  1  0.42658739  0.01809212  0.49754738  1  0  0.134615  0  3.677515  0  0  0.102482  0  3.922854  0  0  0.109685  0  3.940768  0  0.490743  0  0.051387  0.098664  0  3.909176  0
C  C70  1  0.57341289  0.51809286  0.00245262  1  0  0.134625  0  3.677501  0  0  0.102475  0  3.922854  0  0  0.109676  0  3.94077  0  0.490955  0  0.051399  0.098655  0  3.909177  0
C  C71  1  0.92658705  0.48190667  0.50245343  1  0  0.134573  0  3.677586  0  0  0.102422  0  3.922929  0  0  0.109626  0  3.940844  0  0.491143  0  0.051356  0.098603  0  3.90925  0
C  C72  1  0.67376911  0.07338779  0.92619783  1  0  0.088739  0  3.582896  0  0  0.064907  0  3.81305  0  0  0.068903  0  3.827899  0  0.308903  0  0.022673  0.062285  0  3.803026  0
C  C73  1  0.82622984  0.92661174  0.42619783  1  0  0.088742  0  3.582983  0  0  0.064904  0  3.813115  0  0  0.068907  0  3.827966  0  0.308892  0  0.022686  0.062282  0  3.803091  0
C  C74  1  0.17376946  0.42661197  0.07380135  1  0  0.0887  0  3.58307  0  0  0.064891  0  3.813167  0  0  0.068885  0  3.828038  0  0.30888  0  0.022691  0.062271  0  3.803141  0
C  C75  1  0.32623019  0.57338756  0.57380217  1  0  0.088641  0  3.58306  0  0  0.064805  0  3.813189  0  0  0.068809  0  3.82804  0  0.308903  0  0.022667  0.062185  0  3.803166  0
C  C76  1  0.51240207  0.99657327  0.04728393  1  0  0.234931  0  3.553921  0  0  0.210676  0  3.848916  0  0  0.233986  0  3.855606  0  0.392385  0  0.120728  0.194634  0  3.84458  0
C  C77  1  0.98759295  0.00342626  0.54728639  1  0  0.234951  0  3.553917  0  0  0.210618  0  3.849009  0  0  0.233927  0  3.8557  0  0.39235  0  0.120703  0.194589  0  3.844654  0
C  C78  1  0.01240733  0.50342700  0.95271361  1  0  0.234948  0  3.553847  0  0  0.210642  0  3.848921  0  0  0.233949  0  3.855618  0  0.392374  0  0.120716  0.194613  0  3.844566  0
C  C79  1  0.48759723  0.49657351  0.45271689  1  0  0.234947  0  3.553907  0  0  0.210629  0  3.84899  0  0  0.233938  0  3.855678  0  0.392377  0  0.120731  0.194591  0  3.844647  0
C  C80  1  0.53344255  0.13571820  0.08016192  1  0  -0.188755  0  3.697767  0  0  -0.230988  0  3.954686  0  0  -0.235603  0  3.964612  0  -0.034221  0  -0.15961  -0.227479  0  3.947776  0
C  C81  1  0.96655542  0.86428230  0.58016356  1  0  -0.188798  0  3.697794  0  0  -0.23099  0  3.954667  0  0  -0.2356  0  3.964585  0  -0.033916  0  -0.15962  -0.227483  0  3.947755  0
C  C82  1  0.03344389  0.36428156  0.91983726  1  0  -0.188774  0  3.697722  0  0  -0.231025  0  3.95471  0  0  -0.235634  0  3.964628  0  -0.033932  0  -0.159634  -0.227515  0  3.947798  0
C  C83  1  0.46655773  0.63571894  0.41983808  1  0  -0.188754  0  3.697762  0  0  -0.230975  0  3.9547  0  0  -0.235585  0  3.964622  0  -0.034221  0  -0.159633  -0.227466  0  3.947788  0
C  C84  1  0.61991066  0.19271433  0.98827858  1  0  -0.15657  0  3.614819  0  0  -0.200236  0  3.862545  0  0  -0.202404  0  3.875336  0  -0.023645  0  -0.168464  -0.198431  0  3.853453  0
C  C85  1  0.88008928  0.80728617  0.48827940  1  0  -0.156578  0  3.61486  0  0  -0.20021  0  3.862528  0  0  -0.202376  0  3.875313  0  -0.023639  0  -0.168463  -0.198405  0  3.853436  0
C  C86  1  0.11991101  0.30728641  0.01172060  1  0  -0.15658  0  3.614822  0  0  -0.200266  0  3.862586  0  0  -0.202432  0  3.875372  0  -0.023659  0  -0.168482  -0.198467  0  3.853502  0
C  C87  1  0.38009061  0.69271410  0.51172060  1  0  -0.156469  0  3.614798  0  0  -0.200097  0  3.862474  0  0  -0.202264  0  3.87526  0  -0.023601  0  -0.168384  -0.198295  0  3.853384  0
C  C88  1  0.58992554  0.84136652  0.90740947  1  0  -0.18059  0  3.649217  0  0  -0.285837  0  3.897053  0  0  -0.282781  0  3.905878  0  0.255512  0  -0.141114  -0.287096  0  3.890778  0
C  C89  1  0.91007440  0.15863398  0.40741029  1  0  -0.180643  0  3.64927  0  0  -0.285861  0  3.897099  0  0  -0.282791  0  3.905923  0  0.255506  0  -0.141114  -0.28712  0  3.890822  0
C  C90  1  0.08992491  0.65863277  0.09258971  1  0  -0.180654  0  3.64934  0  0  -0.285904  0  3.897114  0  0  -0.282833  0  3.90593  0  0.255554  0  -0.141142  -0.287172  0  3.890859  0
C  C91  1  0.41007475  0.34136676  0.59259053  1  0  -0.18043  0  3.649083  0  0  -0.285734  0  3.896968  0  0  -0.282664  0  3.905793  0  0.255517  0  -0.141064  -0.286991  0  3.89069  0
Se  Se92  1  0.40369077  0.87625861  0.11498037  1  0  -0.27533  0  2.026416  0  0  -0.254566  0  2.411456  0  0  -0.278392  0  2.400875  0  -0.090111  0  -0.060302  -0.23857  0  2.419232  0
Se  Se93  1  0.09630397  0.12374384  0.61498365  1  0  -0.275356  0  2.02635  0  0  -0.254559  0  2.411395  0  0  -0.2784  0  2.400838  0  -0.090169  0  -0.060315  -0.238568  0  2.419166  0
Se  Se94  1  0.90369534  0.62374361  0.88501553  1  0  -0.275346  0  2.026333  0  0  -0.254564  0  2.411393  0  0  -0.27839  0  2.400813  0  -0.090183  0  -0.060305  -0.238574  0  2.419172  0
Se  Se95  1  0.59630951  0.37625787  0.38502045  1  0  -0.275394  0  2.026336  0  0  -0.254606  0  2.411392  0  0  -0.278435  0  2.400813  0  -0.09014  0  -0.060324  -0.238621  0  2.419184  0
N  N96  1  0.03823113  0.01283190  0.89454574  1  0  -0.295154  0  3.338042  0  0  -0.206353  0  3.59746  0  0  -0.225499  0  3.6158  0  -1.239297  0  -0.329352  -0.193441  0  3.584445  0
N  N97  1  0.46176852  0.98716763  0.39454574  1  0  -0.295112  0  3.338022  0  0  -0.206336  0  3.597447  0  0  -0.22548  0  3.615786  0  -1.23929  0  -0.329352  -0.193422  0  3.584429  0
N  N98  1  0.53823176  0.48716786  0.10545426  1  0  -0.295134  0  3.338065  0  0  -0.206349  0  3.597498  0  0  -0.225493  0  3.615841  0  -1.239298  0  -0.329387  -0.193435  0  3.584482  0
N  N99  1  0.96176916  0.51283069  0.60545426  1  0  -0.29512  0  3.338052  0  0  -0.206336  0  3.597484  0  0  -0.225473  0  3.615804  0  -1.239297  0  -0.329346  -0.193422  0  3.584466  0
N  N100  1  0.58502137  0.96714410  0.96134898  1  0  -0.066698  0  3.457836  0  0  0.031005  0  3.675282  0  0  0.015019  0  3.697934  0  -1.181268  0  -0.242773  0.040896  0  3.660171  0
N  N101  1  0.91497857  0.03285543  0.46134816  1  0  -0.066642  0  3.457893  0  0  0.031061  0  3.675374  0  0  0.015077  0  3.69802  0  -1.181261  0  -0.242762  0.040944  0  3.66026  0
N  N102  1  0.08502172  0.53285520  0.03865184  1  0  -0.066596  0  3.457909  0  0  0.031086  0  3.675401  0  0  0.015103  0  3.698049  0  -1.181289  0  -0.242779  0.040972  0  3.660284  0
N  N103  1  0.41497892  0.46714433  0.53865184  1  0  -0.066711  0  3.457978  0  0  0.031018  0  3.67547  0  0  0.015033  0  3.698119  0  -1.181288  0  -0.242815  0.040905  0  3.660356  0
Cl  Cl104  1  0.34299733  0.14953920  0.82672884  1  0  -0.539987  0  0.956509  0  0  -0.46785  0  1.218168  0  0  -0.483169  0  1.198587  0  -0.669634  0  -0.303293  -0.457024  0  1.2317  0
Cl  Cl105  1  0.15700232  0.85046033  0.32672966  1  0  -0.53997  0  0.956516  0  0  -0.467839  0  1.218182  0  0  -0.483161  0  1.198604  0  -0.66964  0  -0.303286  -0.45701  0  1.231712  0
Cl  Cl106  1  0.84299698  0.35046057  0.17327116  1  0  -0.539994  0  0.956507  0  0  -0.467857  0  1.21817  0  0  -0.483175  0  1.198585  0  -0.669637  0  -0.303294  -0.45703  0  1.231702  0
Cl  Cl107  1  0.65700197  0.64953896  0.67327116  1  0  -0.539972  0  0.956542  0  0  -0.467833  0  1.218198  0  0  -0.483155  0  1.198622  0  -0.669635  0  -0.303282  -0.457006  0  1.23173  0
Cl  Cl108  1  0.25234137  0.79916099  0.77474126  1  0  -0.556062  0  0.936756  0  0  -0.497677  0  1.213644  0  0  -0.512725  0  1.193228  0  -0.667801  0  -0.326899  -0.486422  0  1.227372  0
Cl  Cl109  1  0.24766123  0.20083757  0.27474208  1  0  -0.556033  0  0.936763  0  0  -0.497642  0  1.213638  0  0  -0.512683  0  1.193214  0  -0.667907  0  -0.326888  -0.486391  0  1.227374  0
Cl  Cl110  1  0.75233807  0.70083733  0.22525874  1  0  -0.556073  0  0.936736  0  0  -0.497692  0  1.21363  0  0  -0.512737  0  1.193213  0  -0.667929  0  -0.326899  -0.486435  0  1.227357  0
Cl  Cl111  1  0.74765892  0.29916122  0.72525874  1  0  -0.55606  0  0.936748  0  0  -0.497668  0  1.213627  0  0  -0.512712  0  1.193208  0  -0.667907  0  -0.326901  -0.486412  0  1.227353  0
