# generated using pymatgen
data_ZnH15C12N4ClO2
_symmetry_space_group_name_H-M   'P 1'
_cell_length_a   9.95202833
_cell_length_b   11.37500143
_cell_length_c   12.85834818
_cell_angle_alpha   89.99948747
_cell_angle_beta   105.85246479
_cell_angle_gamma   90.00080710
_symmetry_Int_Tables_number   1
_chemical_formula_structural   ZnH15C12N4ClO2
_chemical_formula_sum   'Zn4 H60 C48 N16 Cl4 O8'
_cell_volume   1400.26099457
_cell_formula_units_Z   4
loop_
 _symmetry_equiv_pos_site_id
 _symmetry_equiv_pos_as_xyz
  1  'x, y, z'
loop_
 _atom_site_type_symbol
 _atom_site_label
 _atom_site_symmetry_multiplicity
 _atom_site_fract_x
 _atom_site_fract_y
 _atom_site_fract_z
 _atom_site_occupancy
 _atom_site_pbe_bader_spin_density
 _atom_site_pbe_cm5_charge
 _atom_site_pbe_ddec_charge
 _atom_site_pbe_ddec_spin_density
 _atom_site_pbe_ddec_sum_bond_order
 _atom_site_pbe_magmom
Zn  Zn0  1  0.38188561  0.29898538  0.48773752  1  0  0.635413  0.733519  0  2.526512  0
Zn  Zn1  1  0.11811317  0.79897639  0.01225814  1  0  0.635448  0.733616  0  2.526517  0
Zn  Zn2  1  0.61811187  0.70102007  0.51225319  1  0  0.635508  0.733699  0  2.526475  0
Zn  Zn3  1  0.88189468  0.20101675  0.98773877  1  0  0.635442  0.733589  0  2.526516  0
H  H4  1  0.48811538  0.45615611  0.84148098  1  0  0.107251  0.097342  0  0.943975  0
H  H5  1  0.01188569  0.95616369  0.65851773  1  0  0.107256  0.097378  0  0.943854  0
H  H6  1  0.51188730  0.54384494  0.15851167  1  0  0.107269  0.097359  0  0.943974  0
H  H7  1  0.98810857  0.04383913  0.34147693  1  0  0.107235  0.09735  0  0.943904  0
H  H8  1  0.58457195  0.31817269  0.98983846  1  0  0.105415  0.12161  0  0.9823  0
H  H9  1  0.91542769  0.81817356  0.51016268  1  0  0.105374  0.121574  0  0.982353  0
H  H10  1  0.41542336  0.68183276  0.01015566  1  0  0.105416  0.121577  0  0.982302  0
H  H11  1  0.08456764  0.18183277  0.48983066  1  0  0.105396  0.121645  0  0.982327  0
H  H12  1  0.41279937  0.28393993  0.91101688  1  0  0.107209  0.118295  0  1.008753  0
H  H13  1  0.08720241  0.78395002  0.58898183  1  0  0.107195  0.118268  0  1.008801  0
H  H14  1  0.58720120  0.71606464  0.08897685  1  0  0.107151  0.118239  0  1.008801  0
H  H15  1  0.91279402  0.21605455  0.41100865  1  0  0.107184  0.118302  0  1.008727  0
H  H16  1  0.73592528  0.32337195  0.79786626  1  0  0.101226  0.115512  0  1.000898  0
H  H17  1  0.76406618  0.82337781  0.70212835  1  0  0.101233  0.115499  0  1.000918  0
H  H18  1  0.26407423  0.67662208  0.20212801  1  0  0.101238  0.115517  0  1.000916  0
H  H19  1  0.23593535  0.17661709  0.29787026  1  0  0.101266  0.115545  0  1.000913  0
H  H20  1  0.68161472  0.46759861  0.75748333  1  0  0.099769  0.112717  0  1.037271  0
H  H21  1  0.81838817  0.96760123  0.74251420  1  0  0.099806  0.112765  0  1.037267  0
H  H22  1  0.31839312  0.53239805  0.24251435  1  0  0.099822  0.1128  0  1.037227  0
H  H23  1  0.18161534  0.03239104  0.25749029  1  0  0.09984  0.112796  0  1.03725  0
H  H24  1  0.98203145  0.40654762  0.16431036  1  0  0.116595  0.108801  0  1.024032  0
H  H25  1  0.51796833  0.90655438  0.33568782  1  0  0.116583  0.108751  0  1.024086  0
H  H26  1  0.01796585  0.59343937  0.83568964  1  0  0.116612  0.108758  0  1.024046  0
H  H27  1  0.48203422  0.09345635  0.66431180  1  0  0.116585  0.108776  0  1.024035  0
H  H28  1  0.89454258  0.63819565  0.11435522  1  0  0.10762  0.120082  0  1.069228  0
H  H29  1  0.60545127  0.13820663  0.38564461  1  0  0.107611  0.120047  0  1.069323  0
H  H30  1  0.10544723  0.36179221  0.88565246  1  0  0.107613  0.120051  0  1.069414  0
H  H31  1  0.39455220  0.86180497  0.61436221  1  0  0.107594  0.120074  0  1.06925  0
H  H32  1  0.68864216  0.64288272  0.81824500  1  0  0.09988  0.127712  0  1.040708  0
H  H33  1  0.81135085  0.14289038  0.68175377  1  0  0.099911  0.127782  0  1.040691  0
H  H34  1  0.31135516  0.35710954  0.18175424  1  0  0.099911  0.127813  0  1.040775  0
H  H35  1  0.18864841  0.85711243  0.31825367  1  0  0.09991  0.127736  0  1.040725  0
H  H36  1  0.79309053  0.73277382  0.92394006  1  0  0.108005  0.13224  0  1.015532  0
H  H37  1  0.70690374  0.23277772  0.57605980  1  0  0.108002  0.13228  0  1.015482  0
H  H38  1  0.20690887  0.26722372  0.07606041  1  0  0.107982  0.132255  0  1.015522  0
H  H39  1  0.29309445  0.76722421  0.42394896  1  0  0.107988  0.132199  0  1.015513  0
H  H40  1  0.62311530  0.68488528  0.92794350  1  0  0.101964  0.113216  0  1.011348  0
H  H41  1  0.87687931  0.18489748  0.57205761  1  0  0.101957  0.113221  0  1.011348  0
H  H42  1  0.37688617  0.31510875  0.07205821  1  0  0.10197  0.113243  0  1.011282  0
H  H43  1  0.12311575  0.81511324  0.42794968  1  0  0.101931  0.113137  0  1.011367  0
H  H44  1  0.78419892  0.94694959  0.91679880  1  0  0.117633  0.116795  0  1.034116  0
H  H45  1  0.71580559  0.44695002  0.58320782  1  0  0.117645  0.116833  0  1.034134  0
H  H46  1  0.21580541  0.05304707  0.08321755  1  0  0.117661  0.116846  0  1.034088  0
H  H47  1  0.28419094  0.55305455  0.41677724  1  0  0.117661  0.116786  0  1.03409  0
H  H48  1  0.50069436  0.88598296  0.83979560  1  0  0.129656  0.138308  0  0.989089  0
H  H49  1  0.99930806  0.38599228  0.66022039  1  0  0.129629  0.138239  0  0.989113  0
H  H50  1  0.49930909  0.11401370  0.16021199  1  0  0.129671  0.138361  0  0.989177  0
H  H51  1  0.00068593  0.61401757  0.33978822  1  0  0.12962  0.138289  0  0.989004  0
H  H52  1  0.28729981  0.10506098  0.90267462  1  0  0.092286  0.112412  0  1.046754  0
H  H53  1  0.21271687  0.60506726  0.59734518  1  0  0.092318  0.112447  0  1.046761  0
H  H54  1  0.71270685  0.89493656  0.09732979  1  0  0.092306  0.112394  0  1.046831  0
H  H55  1  0.78729690  0.39493116  0.40267170  1  0  0.092329  0.112402  0  1.046754  0
H  H56  1  0.28250898  0.98924416  0.80926906  1  0  0.106806  0.140147  0  1.032352  0
H  H57  1  0.21748592  0.48924881  0.69074823  1  0  0.106841  0.140255  0  1.032203  0
H  H58  1  0.71749667  0.01075513  0.19073357  1  0  0.10679  0.140154  0  1.032299  0
H  H59  1  0.78250591  0.51074960  0.30926378  1  0  0.106804  0.140185  0  1.032255  0
H  H60  1  0.28701187  0.14028363  0.76733727  1  0  0.101991  0.134051  0  1.033126  0
H  H61  1  0.21298857  0.64029119  0.73268020  1  0  0.102021  0.134116  0  1.033116  0
H  H62  1  0.71299374  0.85971567  0.23266691  1  0  0.102023  0.134039  0  1.033224  0
H  H63  1  0.78700640  0.35970810  0.26733251  1  0  0.102013  0.134045  0  1.033207  0
C  C64  1  0.44335973  0.33903299  0.70970953  1  0  0.20143  0.57922  0  4.158357  0
C  C65  1  0.05664386  0.83903101  0.79028991  1  0  0.201549  0.579351  0  4.15826  0
C  C66  1  0.55663880  0.66096806  0.29028064  1  0  0.201583  0.579319  0  4.158124  0
C  C67  1  0.94336296  0.16096477  0.20970598  1  0  0.201592  0.579542  0  4.158725  0
C  C68  1  0.53541495  0.37403256  0.82220626  1  0  -0.080358  -0.072601  0  3.825654  0
C  C69  1  0.96458550  0.87403763  0.67779460  1  0  -0.080422  -0.07277  0  3.825529  0
C  C70  1  0.46458351  0.62596762  0.17778855  1  0  -0.080387  -0.072651  0  3.825856  0
C  C71  1  0.03541395  0.12596255  0.32220277  1  0  -0.080394  -0.072755  0  3.825682  0
C  C72  1  0.52291125  0.28518018  0.91066615  1  0  -0.150019  -0.271042  0  3.935451  0
C  C73  1  0.97709320  0.78518454  0.58933399  1  0  -0.149965  -0.270906  0  3.935359  0
C  C74  1  0.47708722  0.71482088  0.08932789  1  0  -0.14995  -0.270928  0  3.935385  0
C  C75  1  0.02290533  0.21481652  0.41065696  1  0  -0.149971  -0.271095  0  3.935435  0
C  C76  1  0.68616344  0.40185064  0.82072003  1  0  -0.160832  -0.279282  0  3.980225  0
C  C77  1  0.81383435  0.90185471  0.67927535  1  0  -0.160852  -0.279305  0  3.980256  0
C  C78  1  0.31383920  0.59814515  0.17927494  1  0  -0.160919  -0.279417  0  3.980372  0
C  C79  1  0.18616603  0.09814019  0.32072845  1  0  -0.16091  -0.279395  0  3.980496  0
C  C80  1  0.77363191  0.44386031  0.92669391  1  0  0.214968  0.277718  0  3.948851  0
C  C81  1  0.72636538  0.94386524  0.57330413  1  0  0.214955  0.277707  0  3.948545  0
C  C82  1  0.22636751  0.55613371  0.07330501  1  0  0.214918  0.277649  0  3.948791  0
C  C83  1  0.27362873  0.05613845  0.42669828  1  0  0.214979  0.277767  0  3.948658  0
C  C84  1  0.91157049  0.44301963  0.09211805  1  0  -0.006007  -0.021825  0  4.021467  0
C  C85  1  0.58842564  0.94302917  0.40787903  1  0  -0.005954  -0.021666  0  4.021264  0
C  C86  1  0.08842785  0.55697000  0.90788296  1  0  -0.005968  -0.021602  0  4.02122  0
C  C87  1  0.41157058  0.05697979  0.59212307  1  0  -0.005994  -0.021718  0  4.021244  0
C  C88  1  0.86839403  0.55673902  0.06940890  1  0  -0.005239  -0.111376  0  3.920536  0
C  C89  1  0.63160276  0.05675164  0.43059613  1  0  -0.005247  -0.11144  0  3.920923  0
C  C90  1  0.13160530  0.44324709  0.93059466  1  0  -0.005294  -0.111513  0  3.920748  0
C  C91  1  0.36839757  0.94325821  0.56941000  1  0  -0.005203  -0.111457  0  3.920837  0
C  C92  1  0.71799921  0.66014400  0.90537010  1  0  -0.1311  -0.269493  0  3.856635  0
C  C93  1  0.78199823  0.16014866  0.59462950  1  0  -0.131176  -0.269711  0  3.856665  0
C  C94  1  0.28200118  0.33985354  0.09463292  1  0  -0.131194  -0.269762  0  3.856843  0
C  C95  1  0.21800005  0.83985855  0.40537461  1  0  -0.131086  -0.269415  0  3.85657  0
C  C96  1  0.56690765  0.16138360  0.89937299  1  0  0.216227  0.28271  0  3.887554  0
C  C97  1  0.93310018  0.66138994  0.60063280  1  0  0.216254  0.282788  0  3.887543  0
C  C98  1  0.43309698  0.83861746  0.10062787  1  0  0.21626  0.28281  0  3.887555  0
C  C99  1  0.06689729  0.33861551  0.39935869  1  0  0.216225  0.282838  0  3.887328  0
C  C100  1  0.69040239  0.00017645  0.90290612  1  0  -0.003104  -0.033603  0  4.019904  0
C  C101  1  0.80960006  0.50018042  0.59709667  1  0  -0.003107  -0.033628  0  4.020122  0
C  C102  1  0.30959896  0.99982372  0.09710178  1  0  -0.003212  -0.033727  0  4.019577  0
C  C103  1  0.19039737  0.49982327  0.40289636  1  0  -0.003111  -0.033531  0  4.019861  0
C  C104  1  0.55224609  0.96907237  0.86577231  1  0  0.002756  -0.104981  0  3.906255  0
C  C105  1  0.94775358  0.46908131  0.63422994  1  0  0.002744  -0.104868  0  3.906404  0
C  C106  1  0.44776051  0.03092605  0.13423520  1  0  0.002787  -0.104944  0  3.90603  0
C  C107  1  0.05224370  0.53092502  0.36577162  1  0  0.002786  -0.104935  0  3.906147  0
C  C108  1  0.32370793  0.07730068  0.83342026  1  0  -0.145944  -0.301551  0  3.880381  0
C  C109  1  0.17629796  0.57730757  0.66659426  1  0  -0.146023  -0.301683  0  3.880459  0
C  C110  1  0.67629561  0.92269686  0.16658268  1  0  -0.145969  -0.301469  0  3.880443  0
C  C111  1  0.82370230  0.42269085  0.33341573  1  0  -0.145995  -0.301454  0  3.880442  0
N  N112  1  0.85177926  0.37394807  0.00332496  1  0  -0.369134  -0.353404  0  3.620756  0
N  N113  1  0.64821066  0.87395394  0.49667130  1  0  -0.369162  -0.353406  0  3.620564  0
N  N114  1  0.14821603  0.62604420  0.99667071  1  0  -0.369126  -0.353412  0  3.620651  0
N  N115  1  0.35177926  0.12605590  0.50333096  1  0  -0.369171  -0.353482  0  3.620604  0
N  N116  1  0.78191033  0.55617752  0.96473595  1  0  -0.243517  0.044939  0  3.73527  0
N  N117  1  0.71808780  0.05618549  0.53525998  1  0  -0.243474  0.045029  0  3.735534  0
N  N118  1  0.21809118  0.44381562  0.03526343  1  0  -0.243415  0.045105  0  3.735449  0
N  N119  1  0.28191150  0.94381908  0.46474513  1  0  -0.243455  0.045055  0  3.73542  0
N  N120  1  0.69821261  0.11934385  0.92424406  1  0  -0.360864  -0.336775  0  3.566213  0
N  N121  1  0.80179048  0.61934881  0.57575869  1  0  -0.360869  -0.336812  0  3.566166  0
N  N122  1  0.30178783  0.88065632  0.07575664  1  0  -0.360854  -0.336807  0  3.566083  0
N  N123  1  0.19820695  0.38065752  0.42423435  1  0  -0.360835  -0.336717  0  3.565862  0
N  N124  1  0.47606124  0.07087509  0.86404394  1  0  -0.241263  0.04622  0  3.75896  0
N  N125  1  0.02394470  0.57088392  0.63596287  1  0  -0.241288  0.045988  0  3.759394  0
N  N126  1  0.52394231  0.92911893  0.13595823  1  0  -0.241292  0.046058  0  3.759033  0
N  N127  1  0.97605470  0.42911889  0.36403682  1  0  -0.241272  0.04593  0  3.759264  0
Cl  Cl128  1  0.50638636  0.34221399  0.36875366  1  0  -0.310957  -0.509241  0  1.162362  0
Cl  Cl129  1  0.99361263  0.84220846  0.13123865  1  0  -0.310967  -0.509255  0  1.16233  0
Cl  Cl130  1  0.49361633  0.65778970  0.63123899  1  0  -0.310963  -0.509259  0  1.162319  0
Cl  Cl131  1  0.00638591  0.15778204  0.86875152  1  0  -0.310946  -0.509219  0  1.1624  0
O  O132  1  0.50480276  0.33806057  0.63291337  1  0  -0.333305  -0.544303  0  2.345515  0
O  O133  1  0.99518987  0.83805534  0.86708605  1  0  -0.33339  -0.544436  0  2.345297  0
O  O134  1  0.49519255  0.66195015  0.36708153  1  0  -0.333379  -0.54437  0  2.345334  0
O  O135  1  0.00482527  0.16194132  0.13291402  1  0  -0.33342  -0.544518  0  2.34545  0
O  O136  1  0.31737664  0.31583667  0.69838001  1  0  -0.332511  -0.564172  0  2.143064  0
O  O137  1  0.18261094  0.81583613  0.80161685  1  0  -0.33248  -0.564085  0  2.143233  0
O  O138  1  0.68262078  0.68416175  0.30161380  1  0  -0.332552  -0.564164  0  2.143005  0
O  O139  1  0.81739710  0.18416141  0.19836999  1  0  -0.332535  -0.564202  0  2.143529  0
