# generated using pymatgen
data_HgH8C12Br2N4O
_symmetry_space_group_name_H-M   'P 1'
_cell_length_a   5.46548509
_cell_length_b   16.33675897
_cell_length_c   16.48600000
_cell_angle_alpha   90.00000000
_cell_angle_beta   93.19964718
_cell_angle_gamma   90.00000000
_symmetry_Int_Tables_number   1
_chemical_formula_structural   HgH8C12Br2N4O
_chemical_formula_sum   'Hg4 H32 C48 Br8 N16 O4'
_cell_volume   1469.71241972
_cell_formula_units_Z   4
loop_
 _symmetry_equiv_pos_site_id
 _symmetry_equiv_pos_as_xyz
  1  'x, y, z'
loop_
 _atom_site_type_symbol
 _atom_site_label
 _atom_site_symmetry_multiplicity
 _atom_site_fract_x
 _atom_site_fract_y
 _atom_site_fract_z
 _atom_site_occupancy
 _atom_site_hle17_bader_spin_density
 _atom_site_hle17_ddec_charge
 _atom_site_hle17_ddec_spin_density
 _atom_site_hle17_ddec_sum_bond_order
 _atom_site_hle17_magmom
 _atom_site_hse06_10hf_bader_spin_density
 _atom_site_hse06_10hf_ddec_charge
 _atom_site_hse06_10hf_ddec_spin_density
 _atom_site_hse06_10hf_ddec_sum_bond_order
 _atom_site_hse06_10hf_magmom
 _atom_site_hse06_bader_spin_density
 _atom_site_hse06_ddec_charge
 _atom_site_hse06_ddec_spin_density
 _atom_site_hse06_ddec_sum_bond_order
 _atom_site_hse06_magmom
 _atom_site_pbe_bader_charge
 _atom_site_pbe_bader_spin_density
 _atom_site_pbe_cm5_charge
 _atom_site_pbe_ddec_charge
 _atom_site_pbe_ddec_spin_density
 _atom_site_pbe_ddec_sum_bond_order
 _atom_site_pbe_magmom
Hg  Hg0  1  0.87229257  0.19454471  0.86503153  1  0  0.63075  0  2.145325  0  0  0.479596  0  2.645931  0  0  0.525145  0  2.619039  0  0.680946  0  0.45636  0.448894  0  2.663651  0
Hg  Hg1  1  0.62770973  0.69454413  0.63496894  1  0  0.630744  0  2.14531  0  0  0.479595  0  2.645903  0  0  0.525144  0  2.61901  0  0.680921  0  0.456371  0.448896  0  2.663617  0
Hg  Hg2  1  0.12771018  0.80545474  0.13497022  1  0  0.630787  0  2.145249  0  0  0.47964  0  2.645831  0  0  0.525189  0  2.618938  0  0.680858  0  0.456379  0.448937  0  2.663549  0
Hg  Hg3  1  0.37229119  0.30545532  0.36503096  1  0  0.6307  0  2.145372  0  0  0.479539  0  2.645982  0  0  0.525088  0  2.619091  0  0.680887  0  0.456343  0.448842  0  2.663694  0
H  H4  1  0.72147980  0.30958711  0.02664037  1  0  0.090918  0  0.927938  0  0  0.095205  0  0.997766  0  0  0.098949  0  0.993664  0  0.133251  0  0.114451  0.092466  0  1.000733  0
H  H5  1  0.77852250  0.80958775  0.47335949  1  0  0.090937  0  0.927941  0  0  0.095224  0  0.997785  0  0  0.098968  0  0.993682  0  0.133175  0  0.11445  0.092494  0  1.000741  0
H  H6  1  0.27852112  0.69041234  0.97336013  1  0  0.090909  0  0.927943  0  0  0.095197  0  0.997773  0  0  0.09894  0  0.993671  0  0.133258  0  0.114441  0.092458  0  1.000739  0
H  H7  1  0.22148026  0.19041292  0.52664044  1  0  0.090914  0  0.927941  0  0  0.095199  0  0.997768  0  0  0.098942  0  0.993666  0  0.133245  0  0.114446  0.092459  0  1.000733  0
H  H8  1  0.06392748  0.45011070  0.96368565  1  0  0.103003  0  0.974341  0  0  0.105642  0  1.050668  0  0  0.109799  0  1.046065  0  0.125954  0  0.106928  0.102621  0  1.05394  0
H  H9  1  0.43607573  0.95011073  0.53631435  1  0  0.102998  0  0.974327  0  0  0.105639  0  1.05065  0  0  0.109795  0  1.046048  0  0.125933  0  0.106924  0.102619  0  1.053922  0
H  H10  1  0.93607528  0.54988875  0.03631428  1  0  0.103002  0  0.974333  0  0  0.105644  0  1.050658  0  0  0.109801  0  1.046056  0  0.125935  0  0.106928  0.102621  0  1.053935  0
H  H11  1  0.56392702  0.04988933  0.46368558  1  0  0.103006  0  0.97433  0  0  0.105646  0  1.050655  0  0  0.109803  0  1.046052  0  0.125956  0  0.106933  0.102626  0  1.053924  0
H  H12  1  0.05121345  0.38454200  0.82787839  1  0  0.118453  0  0.951972  0  0  0.12388  0  1.016605  0  0  0.127552  0  1.015387  0  0.113249  0  0.103383  0.121268  0  1.017657  0
H  H13  1  0.44878793  0.88454203  0.67212158  1  0  0.118464  0  0.951967  0  0  0.123888  0  1.016608  0  0  0.127558  0  1.015391  0  0.113257  0  0.103385  0.121273  0  1.017664  0
H  H14  1  0.94878930  0.61545806  0.17212215  1  0  0.11845  0  0.951956  0  0  0.123878  0  1.016599  0  0  0.127548  0  1.015382  0  0.113245  0  0.103389  0.121265  0  1.017652  0
H  H15  1  0.55121299  0.11545803  0.32787832  1  0  0.11847  0  0.95196  0  0  0.123897  0  1.016596  0  0  0.127568  0  1.015379  0  0.113256  0  0.103389  0.121282  0  1.017652  0
H  H16  1  0.39166277  0.28846113  0.79507278  1  0  0.068363  0  0.969025  0  0  0.072033  0  1.04406  0  0  0.074911  0  1.041004  0  0.111836  0  0.09853  0.06991  0  1.046305  0
H  H17  1  0.10833678  0.78846055  0.70492654  1  0  0.068367  0  0.969026  0  0  0.072037  0  1.044063  0  0  0.074916  0  1.041006  0  0.111844  0  0.098536  0.069913  0  1.046307  0
H  H18  1  0.60833815  0.71153954  0.20492712  1  0  0.068344  0  0.969055  0  0  0.072021  0  1.044089  0  0  0.074899  0  1.041034  0  0.111831  0  0.098527  0.069898  0  1.046333  0
H  H19  1  0.89166414  0.21153951  0.29507335  1  0  0.068354  0  0.96904  0  0  0.072041  0  1.044051  0  0  0.074919  0  1.040995  0  0.111816  0  0.098541  0.069917  0  1.046295  0
H  H20  1  0.92603673  0.36265455  0.24242842  1  0  0.083425  0  0.954402  0  0  0.084994  0  1.031556  0  0  0.088667  0  1.027449  0  0.11806  0  0.105315  0.082363  0  1.034464  0
H  H21  1  0.57396373  0.86265275  0.25757080  1  0  0.083412  0  0.954386  0  0  0.08498  0  1.031542  0  0  0.088653  0  1.027434  0  0.118026  0  0.105311  0.082347  0  1.034454  0
H  H22  1  0.07396236  0.63734612  0.75757205  1  0  0.083422  0  0.954376  0  0  0.084991  0  1.031534  0  0  0.08866  0  1.027431  0  0.118058  0  0.105313  0.08236  0  1.034442  0
H  H23  1  0.42603718  0.13734915  0.74242849  1  0  0.083401  0  0.954348  0  0  0.084957  0  1.031533  0  0  0.088627  0  1.027427  0  0.118014  0  0.105302  0.082323  0  1.034445  0
H  H24  1  0.58445308  0.58832538  0.31448878  1  0  0.11262  0  0.925595  0  0  0.121587  0  0.987156  0  0  0.124895  0  0.984398  0  0.138481  0  0.111353  0.119175  0  0.989131  0
H  H25  1  0.91554921  0.08832474  0.18551229  1  0  0.112628  0  0.925573  0  0  0.121595  0  0.98714  0  0  0.124903  0  0.984381  0  0.138343  0  0.111355  0.11918  0  0.989118  0
H  H26  1  0.41554784  0.41167468  0.68551172  1  0  0.11261  0  0.925598  0  0  0.121578  0  0.987167  0  0  0.124886  0  0.984409  0  0.138485  0  0.111345  0.119165  0  0.989142  0
H  H27  1  0.08444987  0.91167777  0.81448575  1  0  0.112624  0  0.925559  0  0  0.121588  0  0.987137  0  0  0.124897  0  0.984376  0  0.138505  0  0.111314  0.119173  0  0.989116  0
H  H28  1  0.90783247  0.59787012  0.42856312  1  0  0.108826  0  0.958406  0  0  0.114292  0  1.02371  0  0  0.117993  0  1.022092  0  0.112117  0  0.098442  0.11165  0  1.025039  0
H  H29  1  0.59216616  0.09786947  0.07143728  1  0  0.108775  0  0.958458  0  0  0.114282  0  1.023728  0  0  0.117983  0  1.022108  0  0.112139  0  0.098433  0.111641  0  1.025056  0
H  H30  1  0.09216845  0.40213056  0.57143738  1  0  0.108844  0  0.95839  0  0  0.114314  0  1.023686  0  0  0.118015  0  1.022066  0  0.112127  0  0.098456  0.111672  0  1.025015  0
H  H31  1  0.40782926  0.90213120  0.92856069  1  0  0.108773  0  0.958452  0  0  0.114273  0  1.023728  0  0  0.117974  0  1.022108  0  0.11216  0  0.098432  0.111631  0  1.025056  0
H  H32  1  0.22224442  0.48604745  0.44432655  1  0  0.073055  0  0.959487  0  0  0.076126  0  1.035323  0  0  0.07895  0  1.032655  0  0.109201  0  0.101757  0.074089  0  1.037198  0
H  H33  1  0.27775696  0.98604748  0.05567463  1  0  0.073113  0  0.95948  0  0  0.076118  0  1.035387  0  0  0.078941  0  1.032718  0  0.109224  0  0.101764  0.074083  0  1.037261  0
H  H34  1  0.77775467  0.51395262  0.55567392  1  0  0.0731  0  0.95944  0  0  0.076148  0  1.035297  0  0  0.078972  0  1.03263  0  0.109214  0  0.101783  0.074111  0  1.037173  0
H  H35  1  0.72224579  0.01395320  0.94432651  1  0  0.073083  0  0.959428  0  0  0.076162  0  1.035265  0  0  0.078988  0  1.032597  0  0.109219  0  0.101779  0.074125  0  1.03714  0
C  C36  1  0.57241709  0.32905364  0.98410229  1  0  0.119888  0  3.649436  0  0  0.075047  0  3.907153  0  0  0.083972  0  3.922374  0  0.503319  0  0.053305  0.069423  0  3.896655  0
C  C37  1  0.92758154  0.82905367  0.51589811  1  0  0.119811  0  3.649441  0  0  0.074945  0  3.907177  0  0  0.083871  0  3.922397  0  0.503451  0  0.05327  0.069317  0  3.896672  0
C  C38  1  0.42758017  0.67094642  0.01589875  1  0  0.119955  0  3.64932  0  0  0.075089  0  3.907058  0  0  0.084015  0  3.92228  0  0.503377  0  0.053325  0.069466  0  3.896561  0
C  C39  1  0.07241938  0.17094639  0.48410179  1  0  0.119864  0  3.64942  0  0  0.075035  0  3.907131  0  0  0.083962  0  3.92235  0  0.503359  0  0.053305  0.069412  0  3.896632  0
C  C40  1  0.39671686  0.38628959  0.00620476  1  0  -0.062427  0  3.798522  0  0  -0.041036  0  4.038108  0  0  -0.049481  0  4.061591  0  0.078128  0  -0.004962  -0.035848  0  4.02239  0
C  C41  1  0.10328452  0.88629269  0.49379521  1  0  -0.062363  0  3.798505  0  0  -0.040955  0  4.038083  0  0  -0.0494  0  4.061562  0  0.078152  0  -0.004874  -0.035782  0  4.022396  0
C  C42  1  0.60328406  0.61370741  0.99379635  1  0  -0.062503  0  3.798484  0  0  -0.041084  0  4.038071  0  0  -0.049532  0  4.061557  0  0.078157  0  -0.004888  -0.035898  0  4.022355  0
C  C43  1  0.89671823  0.11370799  0.50620472  1  0  -0.062396  0  3.798539  0  0  -0.041013  0  4.038129  0  0  -0.049461  0  4.061615  0  0.078144  0  -0.004931  -0.035829  0  4.022418  0
C  C44  1  0.20472919  0.40616441  0.94945010  1  0  -0.010397  0  3.659013  0  0  -0.042298  0  3.908868  0  0  -0.037567  0  3.925243  0  -0.052906  0  -0.061887  -0.044917  0  3.897593  0
C  C45  1  0.29527036  0.90616505  0.55055105  1  0  -0.010435  0  3.65921  0  0  -0.042334  0  3.909065  0  0  -0.037603  0  3.925442  0  -0.052947  0  -0.061915  -0.044952  0  3.897785  0
C  C46  1  0.79526990  0.59383566  0.05055159  1  0  -0.010409  0  3.659234  0  0  -0.042317  0  3.909086  0  0  -0.037585  0  3.925462  0  -0.052953  0  -0.061928  -0.044936  0  3.897809  0
C  C47  1  0.70473056  0.09383501  0.44944885  1  0  -0.010406  0  3.659163  0  0  -0.042306  0  3.909018  0  0  -0.037573  0  3.925395  0  -0.052923  0  -0.061903  -0.044923  0  3.897741  0
C  C48  1  0.19794153  0.37029744  0.87314349  1  0  -0.12423  0  3.742611  0  0  -0.130431  0  3.992199  0  0  -0.138809  0  4.01383  0  0.001255  0  -0.089426  -0.125147  0  3.97769  0
C  C49  1  0.30205801  0.87029808  0.62685522  1  0  -0.124199  0  3.742674  0  0  -0.130394  0  3.992254  0  0  -0.138771  0  4.013884  0  0.001239  0  -0.089403  -0.125111  0  3.977744  0
C  C50  1  0.80205939  0.62970201  0.12685519  1  0  -0.124152  0  3.742651  0  0  -0.130352  0  3.992238  0  0  -0.13873  0  4.013871  0  0.001245  0  -0.089396  -0.125066  0  3.977726  0
C  C51  1  0.69794291  0.12970198  0.37314407  1  0  -0.124257  0  3.74269  0  0  -0.13046  0  3.992284  0  0  -0.138836  0  4.013914  0  0.001235  0  -0.089434  -0.125177  0  3.977777  0
C  C52  1  0.38473217  0.31616185  0.85514289  1  0  0.117957  0  3.727456  0  0  0.084415  0  3.983027  0  0  0.091856  0  4.001249  0  0.474907  0  0.038405  0.079785  0  3.970444  0
C  C53  1  0.11526737  0.81616189  0.64485704  1  0  0.11796  0  3.7274  0  0  0.084412  0  3.982975  0  0  0.091852  0  4.001197  0  0.474918  0  0.038426  0.07978  0  3.970397  0
C  C54  1  0.61526875  0.68383821  0.14485762  1  0  0.117998  0  3.727371  0  0  0.084434  0  3.982955  0  0  0.091873  0  4.00118  0  0.474912  0  0.038452  0.079804  0  3.970366  0
C  C55  1  0.88473355  0.18383818  0.35514346  1  0  0.118031  0  3.72743  0  0  0.084481  0  3.983005  0  0  0.091921  0  4.001227  0  0.474933  0  0.038456  0.079848  0  3.970429  0
C  C56  1  0.40993666  0.42702779  0.08434032  1  0  0.351679  0  3.742185  0  0  0.312793  0  4.027948  0  0  0.330171  0  4.037681  0  1.044744  0  0.217965  0.301374  0  4.021289  0
C  C57  1  0.09006105  0.92703027  0.41566079  1  0  0.35167  0  3.742209  0  0  0.312788  0  4.028002  0  0  0.330185  0  4.03773  0  1.044892  0  0.217957  0.301367  0  4.021334  0
C  C58  1  0.59005876  0.57296983  0.91566130  1  0  0.351731  0  3.742103  0  0  0.312793  0  4.027916  0  0  0.330158  0  4.037651  0  1.044898  0  0.21795  0.301378  0  4.021254  0
C  C59  1  0.90993987  0.07297102  0.58433910  1  0  0.351757  0  3.742104  0  0  0.312847  0  4.027889  0  0  0.330225  0  4.03762  0  1.044724  0  0.218016  0.301433  0  4.021226  0
C  C60  1  0.55678752  0.46763866  0.20065465  1  0  0.344029  0  3.745281  0  0  0.308345  0  4.029532  0  0  0.324572  0  4.040585  0  1.054737  0  0.217493  0.297692  0  4.021938  0
C  C61  1  0.94321661  0.96763746  0.29934282  1  0  0.343859  0  3.74595  0  0  0.308399  0  4.029898  0  0  0.324625  0  4.040964  0  1.054652  0  0.217497  0.297753  0  4.022298  0
C  C62  1  0.44320973  0.53236080  0.79934518  1  0  0.34407  0  3.745279  0  0  0.308412  0  4.029485  0  0  0.324623  0  4.040543  0  1.054678  0  0.217511  0.297761  0  4.021895  0
C  C63  1  0.05678798  0.03236321  0.70065714  1  0  0.343849  0  3.745738  0  0  0.308362  0  4.02968  0  0  0.324574  0  4.040744  0  1.054437  0  0.217532  0.297722  0  4.022084  0
C  C64  1  0.91385230  0.41517660  0.28294783  1  0  0.105919  0  3.687843  0  0  0.060714  0  3.950676  0  0  0.068454  0  3.96766  0  0.503834  0  0.04683  0.055827  0  3.939052  0
C  C65  1  0.58615000  0.91517540  0.21705203  1  0  0.106093  0  3.687774  0  0  0.06088  0  3.950576  0  0  0.068622  0  3.967554  0  0.503794  0  0.046948  0.055985  0  3.938965  0
C  C66  1  0.08614679  0.58482347  0.71705264  1  0  0.106008  0  3.687803  0  0  0.060816  0  3.950622  0  0  0.06856  0  3.967612  0  0.503823  0  0.046886  0.055929  0  3.938999  0
C  C67  1  0.41385276  0.08482527  0.78294790  1  0  0.106135  0  3.687663  0  0  0.060936  0  3.950457  0  0  0.068681  0  3.96744  0  0.503864  0  0.046968  0.056042  0  3.938846  0
C  C68  1  0.73154767  0.47474166  0.26954170  1  0  -0.066859  0  3.809928  0  0  -0.043812  0  4.045719  0  0  -0.052623  0  4.070042  0  0.085806  0  -0.004613  -0.038632  0  4.030015  0
C  C69  1  0.76845829  0.97474046  0.23045823  1  0  -0.067063  0  3.8103  0  0  -0.044012  0  4.04598  0  0  -0.052806  0  4.070276  0  0.085771  0  -0.00473  -0.038792  0  4.030185  0
C  C70  1  0.26845142  0.52525841  0.73045877  1  0  -0.066939  0  3.810031  0  0  -0.043927  0  4.045863  0  0  -0.052742  0  4.070188  0  0.085789  0  -0.004632  -0.038737  0  4.030134  0
C  C71  1  0.23154079  0.02526021  0.76953860  1  0  -0.067075  0  3.810251  0  0  -0.044065  0  4.045981  0  0  -0.05287  0  4.070292  0  0.085761  0  -0.004753  -0.038844  0  4.030183  0
C  C72  1  0.72504588  0.54132402  0.32331014  1  0  -0.007444  0  3.646972  0  0  -0.034454  0  3.889753  0  0  -0.030162  0  3.907335  0  -0.085773  0  -0.052897  -0.036724  0  3.877452  0
C  C73  1  0.77495458  0.04132215  0.17668908  1  0  -0.007416  0  3.646953  0  0  -0.034437  0  3.889717  0  0  -0.03016  0  3.907329  0  -0.085601  0  -0.0529  -0.036715  0  3.877429  0
C  C74  1  0.27495320  0.45867666  0.67668972  1  0  -0.007463  0  3.647028  0  0  -0.034471  0  3.889815  0  0  -0.030183  0  3.907412  0  -0.085764  0  -0.052938  -0.036742  0  3.877518  0
C  C75  1  0.22504451  0.95867791  0.82331079  1  0  -0.007394  0  3.646855  0  0  -0.034405  0  3.889632  0  0  -0.030124  0  3.907239  0  -0.085733  0  -0.052858  -0.036685  0  3.877345  0
C  C76  1  0.90342709  0.54635378  0.38657574  1  0  -0.108753  0  3.727555  0  0  -0.118851  0  3.978396  0  0  -0.126313  0  3.99896  0  -0.023585  0  -0.080774  -0.114136  0  3.964506  0
C  C77  1  0.59657520  0.04635252  0.11342412  1  0  -0.108686  0  3.727594  0  0  -0.118847  0  3.978447  0  0  -0.126312  0  3.999009  0  -0.023597  0  -0.080763  -0.114136  0  3.964562  0
C  C78  1  0.09657566  0.45364628  0.61342419  1  0  -0.108778  0  3.727554  0  0  -0.118885  0  3.978393  0  0  -0.126347  0  3.998954  0  -0.0236  0  -0.080801  -0.114171  0  3.964503  0
C  C79  1  0.40342571  0.95364754  0.88657517  1  0  -0.108669  0  3.72754  0  0  -0.118823  0  3.978413  0  0  -0.126287  0  3.998977  0  -0.023592  0  -0.080762  -0.114111  0  3.96453  0
C  C80  1  0.07867194  0.48444799  0.39556348  1  0  0.136171  0  3.680758  0  0  0.102784  0  3.934329  0  0  0.111095  0  3.951866  0  0.518396  0  0.048449  0.097545  0  3.922199  0
C  C81  1  0.42132944  0.98444741  0.10443588  1  0  0.136122  0  3.680857  0  0  0.102814  0  3.934398  0  0  0.111127  0  3.951931  0  0.518378  0  0.048467  0.097572  0  3.922274  0
C  C82  1  0.92132898  0.51555269  0.60443642  1  0  0.136145  0  3.680745  0  0  0.102805  0  3.934277  0  0  0.111113  0  3.951814  0  0.518416  0  0.048462  0.097564  0  3.922151  0
C  C83  1  0.57866965  0.01555266  0.89556216  1  0  0.136162  0  3.680639  0  0  0.102781  0  3.934225  0  0  0.111088  0  3.95176  0  0.518425  0  0.048458  0.097539  0  3.922102  0
Br  Br84  1  0.84793471  0.24536629  0.71852234  1  0  -0.413866  0  0.970151  0  0  -0.360241  0  1.2513  0  0  -0.377967  0  1.234552  0  -0.437981  0  -0.235402  -0.348149  0  1.262666  0
Br  Br85  1  0.65206576  0.74536571  0.78147749  1  0  -0.413883  0  0.970172  0  0  -0.360265  0  1.251324  0  0  -0.377988  0  1.234571  0  -0.438016  0  -0.235417  -0.348171  0  1.26269  0
Br  Br86  1  0.15206438  0.75463255  0.28147995  1  0  -0.413891  0  0.970155  0  0  -0.360257  0  1.251287  0  0  -0.377983  0  1.234538  0  -0.437941  0  -0.235416  -0.348164  0  1.262654  0
Br  Br87  1  0.34793700  0.25463435  0.21852244  1  0  -0.413851  0  0.970189  0  0  -0.360231  0  1.251342  0  0  -0.377954  0  1.23459  0  -0.437931  0  -0.235394  -0.348137  0  1.262707  0
Br  Br88  1  0.08568682  0.15744494  0.99961176  1  0  -0.409975  0  0.983938  0  0  -0.351577  0  1.272103  0  0  -0.370617  0  1.257261  0  -0.431978  0  -0.232619  -0.338728  0  1.282235  0
Br  Br89  1  0.41431272  0.65744497  0.50038817  1  0  -0.409988  0  0.983929  0  0  -0.351595  0  1.272091  0  0  -0.370638  0  1.257249  0  -0.431968  0  -0.232628  -0.338746  0  1.282222  0
Br  Br90  1  0.91431043  0.84254962  0.00038868  1  0  -0.410014  0  0.983916  0  0  -0.351596  0  1.272029  0  0  -0.370638  0  1.257187  0  -0.431944  0  -0.232644  -0.338748  0  1.282162  0
Br  Br91  1  0.58568637  0.34255509  0.49961169  1  0  -0.409976  0  0.983941  0  0  -0.35158  0  1.272099  0  0  -0.370622  0  1.257257  0  -0.431975  0  -0.232625  -0.338731  0  1.282229  0
N  N92  1  0.56555063  0.29578939  0.90979472  1  0  -0.287635  0  3.259784  0  0  -0.211444  0  3.525147  0  0  -0.23111  0  3.545957  0  -1.214146  0  -0.311181  -0.198088  0  3.510512  0
N  N93  1  0.93445166  0.79579004  0.59020453  1  0  -0.287619  0  3.259786  0  0  -0.211415  0  3.525162  0  0  -0.231079  0  3.545966  0  -1.214127  0  -0.311222  -0.198061  0  3.510527  0
N  N94  1  0.43445212  0.70421006  0.09020521  1  0  -0.287722  0  3.259772  0  0  -0.211518  0  3.525154  0  0  -0.231182  0  3.545954  0  -1.214157  0  -0.311265  -0.198163  0  3.510519  0
N  N95  1  0.06554926  0.20421064  0.40979536  1  0  -0.287678  0  3.25983  0  0  -0.211497  0  3.525211  0  0  -0.231162  0  3.54602  0  -1.214189  0  -0.311253  -0.198143  0  3.510574  0
N  N96  1  0.24883612  0.47742701  0.11302981  1  0  -0.265884  0  2.910773  0  0  -0.242915  0  3.196898  0  0  -0.253694  0  3.210661  0  -0.702019  0  -0.216549  -0.235688  0  3.18757  0
N  N97  1  0.25116159  0.97742949  0.38697009  1  0  -0.265878  0  2.910743  0  0  -0.242897  0  3.19689  0  0  -0.253673  0  3.210645  0  -0.702046  0  -0.21654  -0.235669  0  3.187563  0
N  N98  1  0.75116297  0.52257122  0.88697005  1  0  -0.265858  0  2.910696  0  0  -0.242885  0  3.196844  0  0  -0.253662  0  3.210609  0  -0.702039  0  -0.216531  -0.235656  0  3.187515  0
N  N99  1  0.74883750  0.02257180  0.61302977  1  0  -0.265909  0  2.910639  0  0  -0.242938  0  3.19677  0  0  -0.253715  0  3.210531  0  -0.701979  0  -0.21657  -0.235709  0  3.187442  0
N  N100  1  0.34368738  0.50369293  0.18823272  1  0  -0.256286  0  2.898025  0  0  -0.240827  0  3.185802  0  0  -0.250411  0  3.200306  0  -0.705188  0  -0.219046  -0.234348  0  3.175941  0
N  N101  1  0.15631400  0.00369229  0.31176543  1  0  -0.256168  0  2.898332  0  0  -0.240812  0  3.186071  0  0  -0.250389  0  3.200577  0  -0.705216  0  -0.219018  -0.234348  0  3.176216  0
N  N102  1  0.65631171  0.49630652  0.81176654  1  0  -0.256352  0  2.898041  0  0  -0.240912  0  3.185816  0  0  -0.250495  0  3.200325  0  -0.7052  0  -0.219096  -0.234436  0  3.175958  0
N  N103  1  0.84368876  0.99630900  0.68823390  1  0  -0.256249  0  2.898082  0  0  -0.240888  0  3.185841  0  0  -0.250468  0  3.20035  0  -0.705146  0  -0.219115  -0.234423  0  3.175985  0
N  N104  1  0.08092044  0.42003925  0.34502459  1  0  -0.288712  0  3.279606  0  0  -0.212941  0  3.548711  0  0  -0.233377  0  3.570271  0  -1.208937  0  -0.311805  -0.199084  0  3.533612  0
N  N105  1  0.41907910  0.92003806  0.15497534  1  0  -0.288759  0  3.279639  0  0  -0.213019  0  3.548733  0  0  -0.233454  0  3.570292  0  -1.208859  0  -0.311864  -0.199167  0  3.533645  0
N  N106  1  0.91907865  0.57996081  0.65497588  1  0  -0.288726  0  3.27963  0  0  -0.212979  0  3.548722  0  0  -0.233414  0  3.57028  0  -1.208943  0  -0.311841  -0.199123  0  3.533624  0
N  N107  1  0.58092181  0.07996262  0.84502456  1  0  -0.288809  0  3.279571  0  0  -0.213057  0  3.548686  0  0  -0.233492  0  3.570242  0  -1.208981  0  -0.311867  -0.199203  0  3.533591  0
O  O108  1  0.61151574  0.41835960  0.13661335  1  0  -0.262557  0  2.32601  0  0  -0.186591  0  2.544617  0  0  -0.204806  0  2.546682  0  -1.045675  0  -0.097794  -0.174554  0  2.543151  0
O  O109  1  0.88848838  0.91835963  0.36338593  1  0  -0.262492  0  2.326137  0  0  -0.186634  0  2.544725  0  0  -0.204891  0  2.546823  0  -1.045759  0  -0.097813  -0.174588  0  2.543245  0
O  O110  1  0.38848334  0.58163862  0.86338833  1  0  -0.262567  0  2.326036  0  0  -0.186549  0  2.544605  0  0  -0.204735  0  2.546654  0  -1.045733  0  -0.09777  -0.174521  0  2.543142  0
O  O111  1  0.11151437  0.08164165  0.63661339  1  0  -0.262492  0  2.326082  0  0  -0.186525  0  2.544578  0  0  -0.204737  0  2.546649  0  -1.045524  0  -0.097768  -0.174505  0  2.543114  0
