# generated using pymatgen
data_CdH21C22(NO2)3
_symmetry_space_group_name_H-M   'P 1'
_cell_length_a   9.47405419
_cell_length_b   10.45005616
_cell_length_c   11.68010575
_cell_angle_alpha   116.36187378
_cell_angle_beta   97.76351039
_cell_angle_gamma   91.74542703
_symmetry_Int_Tables_number   1
_chemical_formula_structural   CdH21C22(NO2)3
_chemical_formula_sum   'Cd2 H42 C44 N6 O12'
_cell_volume   1021.28862266
_cell_formula_units_Z   2
loop_
 _symmetry_equiv_pos_site_id
 _symmetry_equiv_pos_as_xyz
  1  'x, y, z'
loop_
 _atom_site_type_symbol
 _atom_site_label
 _atom_site_symmetry_multiplicity
 _atom_site_fract_x
 _atom_site_fract_y
 _atom_site_fract_z
 _atom_site_occupancy
 _atom_site_hle17_bader_spin_density
 _atom_site_hle17_ddec_charge
 _atom_site_hle17_ddec_spin_density
 _atom_site_hle17_ddec_sum_bond_order
 _atom_site_hle17_magmom
 _atom_site_hse06_10hf_bader_spin_density
 _atom_site_hse06_10hf_ddec_charge
 _atom_site_hse06_10hf_ddec_spin_density
 _atom_site_hse06_10hf_ddec_sum_bond_order
 _atom_site_hse06_10hf_magmom
 _atom_site_hse06_bader_spin_density
 _atom_site_hse06_ddec_charge
 _atom_site_hse06_ddec_spin_density
 _atom_site_hse06_ddec_sum_bond_order
 _atom_site_hse06_magmom
 _atom_site_pbe_bader_spin_density
 _atom_site_pbe_cm5_charge
 _atom_site_pbe_ddec_charge
 _atom_site_pbe_ddec_spin_density
 _atom_site_pbe_ddec_sum_bond_order
 _atom_site_pbe_magmom
Cd  Cd0  1  0.79983733  0.67485661  0.50361169  1  0  1.113797  0  1.62721  0  0  0.915901  0  2.060551  0  0  0.975132  0  2.009495  0  0  0.768475  0.872225  0  2.096686  0
Cd  Cd1  1  0.20016035  0.32514097  0.49638721  1  0  1.113798  0  1.627194  0  0  0.915898  0  2.06056  0  0  0.975127  0  2.009507  0  0  0.768474  0.872214  0  2.096702  0
H  H2  1  0.49066923  0.72490538  0.05199780  1  0  0.084597  0  0.976678  0  0  0.09282  0  1.044868  0  0  0.095674  0  1.043732  0  0  0.097386  0.090942  0  1.045456  0
H  H3  1  0.50932996  0.27509650  0.94800295  1  0  0.084594  0  0.976638  0  0  0.092808  0  1.044845  0  0  0.095663  0  1.043708  0  0  0.097369  0.090923  0  1.045435  0
H  H4  1  0.43838313  0.80200704  0.87707942  1  0  0.091118  0  0.951321  0  0  0.102443  0  1.010868  0  0  0.105276  0  1.009981  0  0  0.100311  0.100349  0  1.011746  0
H  H5  1  0.56161583  0.19799269  0.12291960  1  0  0.09115  0  0.951387  0  0  0.102488  0  1.010912  0  0  0.105324  0  1.010021  0  0  0.10032  0.100392  0  1.011795  0
H  H6  1  0.25845306  0.97565672  0.89447814  1  0  0.086443  0  0.948715  0  0  0.101406  0  1.00205  0  0  0.103955  0  1.001209  0  0  0.100194  0.099606  0  1.00264  0
H  H7  1  0.74154569  0.02434087  0.10552172  1  0  0.086415  0  0.948696  0  0  0.101392  0  1.00202  0  0  0.103941  0  1.001181  0  0  0.100199  0.099593  0  1.002615  0
H  H8  1  0.13436792  0.07320386  0.08595676  1  0  0.080047  0  0.980821  0  0  0.090187  0  1.042679  0  0  0.092343  0  1.043599  0  0  0.093508  0.08885  0  1.041982  0
H  H9  1  0.86563093  0.92679479  0.91404097  1  0  0.080054  0  0.980811  0  0  0.090197  0  1.042663  0  0  0.092352  0  1.043583  0  0  0.093524  0.088858  0  1.041975  0
H  H10  1  0.18804357  0.99909941  0.25984672  1  0  0.109707  0  0.995663  0  0  0.115088  0  1.066402  0  0  0.119076  0  1.063511  0  0  0.101329  0.112171  0  1.068866  0
H  H11  1  0.81195444  0.00090140  0.74015519  1  0  0.109684  0  0.995678  0  0  0.115045  0  1.06647  0  0  0.11903  0  1.063585  0  0  0.101311  0.112136  0  1.068918  0
H  H12  1  0.28141618  0.71220510  0.42993022  1  0  0.067929  0  0.925857  0  0  0.076889  0  0.98833  0  0  0.078479  0  0.98734  0  0  0.112255  0.076109  0  0.989023  0
H  H13  1  0.71858671  0.28779141  0.57006795  1  0  0.067892  0  0.925896  0  0  0.076877  0  0.988336  0  0  0.078468  0  0.987348  0  0  0.112212  0.076096  0  0.989026  0
H  H14  1  0.35966230  0.85785063  0.66902880  1  0  0.075105  0  0.937735  0  0  0.09452  0  0.996619  0  0  0.095252  0  0.996991  0  0  0.095476  0.093888  0  0.99655  0
H  H15  1  0.64033763  0.14214803  0.33097162  1  0  0.075103  0  0.937717  0  0  0.094544  0  0.996578  0  0  0.095277  0  0.996948  0  0  0.095473  0.093909  0  0.996514  0
H  H16  1  0.41695300  0.00509634  0.64491586  1  0  0.077389  0  0.962427  0  0  0.090986  0  1.030182  0  0  0.09208  0  1.03053  0  0  0.093188  0.090504  0  1.029698  0
H  H17  1  0.58304383  0.99490339  0.35508293  1  0  0.077387  0  0.962458  0  0  0.090993  0  1.030205  0  0  0.092086  0  1.030551  0  0  0.093191  0.090512  0  1.02972  0
H  H18  1  0.16228192  0.01619780  0.55366931  1  0  0.125397  0  0.940827  0  0  0.13787  0  1.005511  0  0  0.141061  0  1.00402  0  0  0.104108  0.135471  0  1.006918  0
H  H19  1  0.83771363  0.98379979  0.44632936  1  0  0.125362  0  0.940858  0  0  0.137838  0  1.00554  0  0  0.141027  0  1.004048  0  0  0.104093  0.135439  0  1.006944  0
H  H20  1  0.19067695  0.05198154  0.71604183  1  0  0.098441  0  0.932365  0  0  0.116113  0  0.989677  0  0  0.117783  0  0.990102  0  0  0.097947  0.11491  0  0.989607  0
H  H21  1  0.80932062  0.94801498  0.28395662  1  0  0.098423  0  0.932336  0  0  0.116073  0  0.989677  0  0  0.117743  0  0.990101  0  0  0.097929  0.114868  0  0.989608  0
H  H22  1  0.60496201  0.62141082  0.67485673  1  0  0.096284  0  0.971375  0  0  0.103178  0  1.034886  0  0  0.106235  0  1.032263  0  0  0.119516  0.100928  0  1.036798  0
H  H23  1  0.39503769  0.37858569  0.32514110  1  0  0.096251  0  0.971373  0  0  0.103151  0  1.034887  0  0  0.106209  0  1.032263  0  0  0.119506  0.100903  0  1.036795  0
H  H24  1  0.60798137  0.60690163  0.88177272  1  0  0.10821  0  0.95414  0  0  0.121667  0  1.010645  0  0  0.124266  0  1.009728  0  0  0.112651  0.1198  0  1.011554  0
H  H25  1  0.39202186  0.39309811  0.11823019  1  0  0.108233  0  0.954145  0  0  0.121694  0  1.010637  0  0  0.124291  0  1.009728  0  0  0.112627  0.119828  0  1.011549  0
H  H26  1  0.07057618  0.66932575  0.94038783  1  0  0.106936  0  0.961994  0  0  0.116365  0  1.024792  0  0  0.118414  0  1.026516  0  0  0.106501  0.114893  0  1.023756  0
H  H27  1  0.92942439  0.33067934  0.05961177  1  0  0.106977  0  0.961927  0  0  0.1164  0  1.024727  0  0  0.11845  0  1.026452  0  0  0.106533  0.114917  0  1.023706  0
H  H28  1  0.04703828  0.68390519  0.73203784  1  0  0.087986  0  0.957489  0  0  0.097039  0  1.019302  0  0  0.099327  0  1.017842  0  0  0.116691  0.09535  0  1.020387  0
H  H29  1  0.95296112  0.31609883  0.26796293  1  0  0.087973  0  0.957505  0  0  0.097017  0  1.019328  0  0  0.099306  0  1.017866  0  0  0.116677  0.095327  0  1.020416  0
H  H30  1  0.04092495  0.75458538  0.35579820  1  0  0.082075  0  0.958109  0  0  0.09153  0  1.02132  0  0  0.09343  0  1.019726  0  0  0.118449  0.089877  0  1.022872  0
H  H31  1  0.95907391  0.24541328  0.64420210  1  0  0.082161  0  0.958129  0  0  0.091624  0  1.021323  0  0  0.093524  0  1.019728  0  0  0.118467  0.08997  0  1.022876  0
H  H32  1  0.04942551  0.76029713  0.14791644  1  0  0.10653  0  0.976487  0  0  0.115848  0  1.040235  0  0  0.118427  0  1.040427  0  0  0.106145  0.114076  0  1.040004  0
H  H33  1  0.95057688  0.23970475  0.85208723  1  0  0.106516  0  0.976442  0  0  0.115801  0  1.040244  0  0  0.118385  0  1.04043  0  0  0.106108  0.114028  0  1.040011  0
H  H34  1  0.64436041  0.49548265  0.99709974  1  0  0.115088  0  0.982399  0  0  0.120967  0  1.050588  0  0  0.124996  0  1.048224  0  0  0.107363  0.117872  0  1.052823  0
H  H35  1  0.35564186  0.50451814  0.00289920  1  0  0.115102  0  0.982418  0  0  0.120969  0  1.050632  0  0  0.124997  0  1.048269  0  0  0.10738  0.117878  0  1.052854  0
H  H36  1  0.64795048  0.51007401  0.21776833  1  0  0.089801  0  0.9284  0  0  0.100604  0  0.988008  0  0  0.102798  0  0.985992  0  0  0.119856  0.098906  0  0.989462  0
H  H37  1  0.35204837  0.48992464  0.78222940  1  0  0.089819  0  0.928389  0  0  0.100618  0  0.987998  0  0  0.102813  0  0.985982  0  0  0.119862  0.098917  0  0.989453  0
H  H38  1  0.34544097  0.98138194  0.42156164  1  0  0.305955  0  0.923402  0  0  0.287063  0  0.989125  0  0  0.295202  0  0.98347  0  0  0.303661  0.281333  0  0.993118  0
H  H39  1  0.65455790  0.01861673  0.57844038  1  0  0.305924  0  0.923387  0  0  0.287013  0  0.989143  0  0  0.295155  0  0.983485  0  0  0.303638  0.281284  0  0.993132  0
H  H40  1  0.78682872  0.36744357  0.41437353  1  0  0.418671  0  0.890818  0  0  0.386033  0  0.958444  0  0  0.397588  0  0.941641  0  0  0.279752  0.377732  0  0.970528  0
H  H41  1  0.21317131  0.63255616  0.58562647  1  0  0.418659  0  0.89084  0  0  0.386021  0  0.958466  0  0  0.397576  0  0.941664  0  0  0.27975  0.377717  0  0.970556  0
H  H42  1  0.63286502  0.41528058  0.44113141  1  0  0.420955  0  0.885962  0  0  0.386263  0  0.957309  0  0  0.397997  0  0.940344  0  0  0.283169  0.377903  0  0.969351  0
H  H43  1  0.36713596  0.58471808  0.55886826  1  0  0.420939  0  0.885982  0  0  0.386248  0  0.957329  0  0  0.397983  0  0.940363  0  0  0.283166  0.377889  0  0.969369  0
C  C44  1  0.41339357  0.80186767  0.05796600  1  0  -0.085746  0  3.753399  0  0  -0.107902  0  3.997897  0  0  -0.1085  0  4.019264  0  0  -0.088624  -0.1071  0  3.983108  0
C  C45  1  0.58660764  0.19813313  0.94203454  1  0  -0.085687  0  3.753373  0  0  -0.107838  0  3.997871  0  0  -0.108436  0  4.019237  0  0  -0.088551  -0.107027  0  3.983067  0
C  C46  1  0.38383186  0.84484461  0.96090693  1  0  -0.074718  0  3.781538  0  0  -0.087006  0  4.032633  0  0  -0.089995  0  4.054622  0  0  -0.092727  -0.08496  0  4.017203  0
C  C47  1  0.61616616  0.15515621  0.03909584  1  0  -0.074782  0  3.781546  0  0  -0.087087  0  4.032653  0  0  -0.090077  0  4.05464  0  0  -0.092734  -0.085047  0  4.017231  0
C  C48  1  0.28286675  0.94253846  0.97076518  1  0  -0.061995  0  3.763352  0  0  -0.077408  0  4.011537  0  0  -0.077815  0  4.032014  0  0  -0.089411  -0.076453  0  3.997126  0
C  C49  1  0.71713210  0.05746019  0.02923340  1  0  -0.06195  0  3.763333  0  0  -0.077373  0  4.011529  0  0  -0.077781  0  4.032009  0  0  -0.089425  -0.07642  0  3.997128  0
C  C50  1  0.21399943  0.99806201  0.07873898  1  0  -0.076688  0  3.780773  0  0  -0.08768  0  4.030195  0  0  -0.090789  0  4.052395  0  0  -0.096832  -0.085718  0  4.015392  0
C  C51  1  0.78599954  0.00193773  0.92126261  1  0  -0.076741  0  3.780712  0  0  -0.087731  0  4.030139  0  0  -0.09084  0  4.052339  0  0  -0.096884  -0.08577  0  4.015348  0
C  C52  1  0.24478789  0.95655717  0.17722902  1  0  -0.101457  0  3.729612  0  0  -0.124725  0  3.976156  0  0  -0.124749  0  3.995114  0  0  -0.093951  -0.124878  0  3.964046  0
C  C53  1  0.75521320  0.04344256  0.82277022  1  0  -0.101393  0  3.729426  0  0  -0.124657  0  3.975946  0  0  -0.124681  0  3.994906  0  0  -0.093912  -0.124824  0  3.963851  0
C  C54  1  0.34375122  0.85632236  0.16643464  1  0  -0.062388  0  3.780989  0  0  -0.036072  0  4.009852  0  0  -0.042716  0  4.032675  0  0  -0.018801  -0.032055  0  3.995007  0
C  C55  1  0.65624808  0.14368059  0.83356655  1  0  -0.062373  0  3.781067  0  0  -0.036051  0  4.009935  0  0  -0.042697  0  4.032762  0  0  -0.018822  -0.032025  0  3.995074  0
C  C56  1  0.36914548  0.79297680  0.25929126  1  0  0.528829  0  3.852801  0  0  0.479829  0  4.144771  0  0  0.509642  0  4.142977  0  0  0.230636  0.459778  0  4.145074  0
C  C57  1  0.63085804  0.20701541  0.74070528  1  0  0.528674  0  3.852786  0  0  0.479628  0  4.144822  0  0  0.509438  0  4.143038  0  0  0.230498  0.459574  0  4.14512  0
C  C58  1  0.36108340  0.80656433  0.47048517  1  0  0.041242  0  3.638721  0  0  0.022345  0  3.88088  0  0  0.022867  0  3.892462  0  0  0.008525  0.022115  0  3.873004  0
C  C59  1  0.63891769  0.19343540  0.52951493  1  0  0.041228  0  3.638778  0  0  0.022296  0  3.880941  0  0  0.022814  0  3.892529  0  0  0.008579  0.022068  0  3.873063  0
C  C60  1  0.50675968  0.74955734  0.48455291  1  0  0.63759  0  3.871579  0  0  0.580097  0  4.181244  0  0  0.613493  0  4.174742  0  0  0.203308  0.557308  0  4.1845  0
C  C61  1  0.49324312  0.25044882  0.51544649  1  0  0.637729  0  3.871637  0  0  0.580295  0  4.181196  0  0  0.613691  0  4.174693  0  0  0.20341  0.557508  0  4.184454  0
C  C62  1  0.33716156  0.91162061  0.60721663  1  0  -0.116933  0  3.669804  0  0  -0.163164  0  3.926397  0  0  -0.162757  0  3.937942  0  0  -0.16322  -0.163269  0  3.918086  0
C  C63  1  0.66283612  0.08837697  0.39278055  1  0  -0.116916  0  3.66976  0  0  -0.163185  0  3.926388  0  0  -0.162775  0  3.937934  0  0  -0.163238  -0.163293  0  3.918084  0
C  C64  1  0.18961234  0.96542705  0.61758867  1  0  -0.264295  0  3.671446  0  0  -0.302946  0  3.927205  0  0  -0.309081  0  3.934619  0  0  -0.16975  -0.298562  0  3.921947  0
C  C65  1  0.81038641  0.03457055  0.38241291  1  0  -0.264167  0  3.671358  0  0  -0.302812  0  3.92714  0  0  -0.308945  0  3.934547  0  0  -0.169694  -0.298431  0  3.921882  0
C  C66  1  0.06404647  0.85661721  0.59000112  1  0  0.681382  0  3.866234  0  0  0.632132  0  4.16939  0  0  0.665445  0  4.163516  0  0  0.196279  0.609195  0  4.172783  0
C  C67  1  0.93595014  0.14338038  0.40999765  1  0  0.681255  0  3.866265  0  0  0.632006  0  4.169426  0  0  0.66532  0  4.163548  0  0  0.196224  0.609087  0  4.172798  0
C  C68  1  0.70530139  0.63292487  0.73786693  1  0  0.130384  0  3.69538  0  0  0.097708  0  3.949532  0  0  0.104804  0  3.966925  0  0  0.048265  0.092905  0  3.9384  0
C  C69  1  0.29469736  0.36707272  0.26213208  1  0  0.130391  0  3.695493  0  0  0.097708  0  3.949653  0  0  0.104806  0  3.967044  0  0  0.048257  0.0929  0  3.938522  0
C  C70  1  0.70840548  0.62486851  0.85344727  1  0  -0.123174  0  3.688025  0  0  -0.143515  0  3.935597  0  0  -0.14953  0  3.955226  0  0  -0.072153  -0.140139  0  3.923698  0
C  C71  1  0.29159764  0.37513015  0.14655349  1  0  -0.123245  0  3.688064  0  0  -0.143588  0  3.935615  0  0  -0.149604  0  3.955242  0  0  -0.07214  -0.140215  0  3.923719  0
C  C72  1  0.83980094  0.63821483  0.93096498  1  0  0.088804  0  3.758246  0  0  0.1013  0  3.985529  0  0  0.104728  0  4.006763  0  0  0.012429  0.099361  0  3.971309  0
C  C73  1  0.16020037  0.36178705  0.06903514  1  0  0.088839  0  3.758188  0  0  0.10138  0  3.98545  0  0  0.104809  0  4.006683  0  0  0.012441  0.099445  0  3.971227  0
C  C74  1  0.96439158  0.65996047  0.88639172  1  0  -0.158553  0  3.710605  0  0  -0.177437  0  3.960529  0  0  -0.184738  0  3.98276  0  0  -0.08142  -0.172791  0  3.94574  0
C  C75  1  0.03561091  0.34004248  0.11360981  1  0  -0.158624  0  3.710693  0  0  -0.177505  0  3.960604  0  0  -0.184807  0  3.982835  0  0  -0.08145  -0.172848  0  3.945823  0
C  C76  1  0.95265177  0.66726120  0.76957182  1  0  0.127303  0  3.709077  0  0  0.095946  0  3.961674  0  0  0.102932  0  3.97985  0  0  0.043974  0.091278  0  3.949408  0
C  C77  1  0.04734528  0.33274067  0.23042613  1  0  0.12735  0  3.709017  0  0  0.096005  0  3.961616  0  0  0.102989  0  3.979797  0  0  0.043982  0.091337  0  3.94935  0
C  C78  1  0.95388708  0.69943995  0.27490280  1  0  0.144227  0  3.707072  0  0  0.111192  0  3.963344  0  0  0.119136  0  3.981369  0  0  0.052052  0.105863  0  3.951529  0
C  C79  1  0.04610942  0.30055656  0.72509468  1  0  0.14407  0  3.706986  0  0  0.111025  0  3.963242  0  0  0.118967  0  3.981269  0  0  0.052011  0.10569  0  3.951431  0
C  C80  1  0.95879056  0.70104649  0.15725443  1  0  -0.157399  0  3.694931  0  0  -0.174828  0  3.940907  0  0  -0.181856  0  3.960689  0  0  -0.081637  -0.17037  0  3.927489  0
C  C81  1  0.04121172  0.29895432  0.84274880  1  0  -0.157253  0  3.694913  0  0  -0.174629  0  3.94091  0  0  -0.181662  0  3.960691  0  0  -0.081556  -0.170167  0  3.927489  0
C  C82  1  0.84430462  0.63150660  0.05491463  1  0  0.093729  0  3.762936  0  0  0.106172  0  3.990323  0  0  0.110231  0  4.011512  0  0  0.012302  0.103717  0  3.975929  0
C  C83  1  0.15569540  0.36849313  0.94508365  1  0  0.093583  0  3.762928  0  0  0.10594  0  3.990422  0  0  0.109997  0  4.011609  0  0  0.012243  0.10348  0  3.976032  0
C  C84  1  0.73144443  0.55862425  0.07606911  1  0  -0.163026  0  3.691463  0  0  -0.181838  0  3.942262  0  0  -0.189421  0  3.961988  0  0  -0.081401  -0.177283  0  3.929405  0
C  C85  1  0.26855795  0.44137762  0.92393112  1  0  -0.162937  0  3.691367  0  0  -0.181717  0  3.942169  0  0  -0.189298  0  3.961895  0  0  -0.081362  -0.177163  0  3.929317  0
C  C86  1  0.73467655  0.56335053  0.19718530  1  0  0.144692  0  3.69586  0  0  0.113772  0  3.948035  0  0  0.121485  0  3.966484  0  0  0.051752  0.10885  0  3.935134  0
C  C87  1  0.26532124  0.43664812  0.80281232  1  0  0.14464  0  3.696017  0  0  0.113726  0  3.948177  0  0  0.121438  0  3.966629  0  0  0.051742  0.108811  0  3.935269  0
N  N88  1  0.34809786  0.87182058  0.38303612  1  0  -0.443375  0  3.284585  0  0  -0.390871  0  3.536087  0  0  -0.412507  0  3.543881  0  0  -0.420191  -0.37602  0  3.530408  0
N  N89  1  0.65190133  0.12818130  0.61696635  1  0  -0.443205  0  3.28467  0  0  -0.390663  0  3.536151  0  0  -0.412296  0  3.543951  0  0  -0.42007  -0.37582  0  3.530469  0
N  N90  1  0.82538501  0.65432056  0.69627624  1  0  -0.337158  0  3.261116  0  0  -0.255517  0  3.52399  0  0  -0.276023  0  3.542387  0  0  -0.327966  -0.241523  0  3.511373  0
N  N91  1  0.17461608  0.34567917  0.30372387  1  0  -0.337115  0  3.260975  0  0  -0.255479  0  3.523851  0  0  -0.275985  0  3.542246  0  0  -0.327946  -0.241483  0  3.511237  0
N  N92  1  0.84335408  0.63360093  0.29596506  1  0  -0.334386  0  3.23747  0  0  -0.257185  0  3.500239  0  0  -0.277686  0  3.519663  0  0  -0.326213  -0.242891  0  3.487005  0
N  N93  1  0.15664595  0.36639880  0.70403494  1  0  -0.334364  0  3.237418  0  0  -0.257167  0  3.500185  0  0  -0.277667  0  3.519609  0  0  -0.326234  -0.242874  0  3.48695  0
O  O94  1  0.62041207  0.81676839  0.48195473  1  0  -0.634157  0  2.014027  0  0  -0.561416  0  2.256886  0  0  -0.590547  0  2.248622  0  0  -0.323244  -0.540305  0  2.262205  0
O  O95  1  0.37958851  0.18323670  0.51804659  1  0  -0.634242  0  2.013992  0  0  -0.561539  0  2.256836  0  0  -0.590669  0  2.248573  0  0  -0.323296  -0.540413  0  2.262123  0
O  O96  1  0.50835883  0.64106786  0.50596070  1  0  -0.639476  0  2.031146  0  0  -0.57079  0  2.262245  0  0  -0.598454  0  2.253961  0  0  -0.313171  -0.550846  0  2.266944  0
O  O97  1  0.49164877  0.35893294  0.49404053  1  0  -0.639506  0  2.031322  0  0  -0.570848  0  2.262408  0  0  -0.598508  0  2.254127  0  0  -0.313214  -0.550906  0  2.267104  0
O  O98  1  0.40426685  0.66801375  0.22057637  1  0  -0.565584  0  1.939621  0  0  -0.523212  0  2.171898  0  0  -0.544927  0  2.16801  0  0  -0.301843  -0.507753  0  2.17342  0
O  O99  1  0.59573192  0.33199457  0.77942517  1  0  -0.565642  0  1.939313  0  0  -0.52322  0  2.171566  0  0  -0.544937  0  2.167684  0  0  -0.301829  -0.507759  0  2.173085  0
O  O100  1  0.94023470  0.90117195  0.59334372  1  0  -0.641966  0  1.98076  0  0  -0.579327  0  2.22884  0  0  -0.60801  0  2.220087  0  0  -0.33016  -0.559551  0  2.235314  0
O  O101  1  0.05976618  0.09882564  0.40665638  1  0  -0.641937  0  1.980658  0  0  -0.579304  0  2.228716  0  0  -0.607998  0  2.219991  0  0  -0.330153  -0.559535  0  2.235194  0
O  O102  1  0.08111244  0.72525569  0.56053569  1  0  -0.674331  0  1.989003  0  0  -0.60492  0  2.220877  0  0  -0.632737  0  2.210391  0  0  -0.326393  -0.584795  0  2.227197  0
O  O103  1  0.91888726  0.27474082  0.43946213  1  0  -0.674311  0  1.989124  0  0  -0.604882  0  2.220984  0  0  -0.6327  0  2.210498  0  0  -0.326363  -0.584766  0  2.2273  0
O  O104  1  0.71451281  0.42879088  0.40013477  1  0  -0.849828  0  1.858995  0  0  -0.793497  0  2.063516  0  0  -0.816694  0  2.028495  0  0  -0.598341  -0.776779  0  2.087912  0
O  O105  1  0.28548711  0.57120778  0.59986307  1  0  -0.849793  0  1.859016  0  0  -0.793457  0  2.063535  0  0  -0.816652  0  2.02851  0  0  -0.598329  -0.776738  0  2.087935  0
