# generated using pymatgen
data_Zn2H24C25N4(ClO)4
_symmetry_space_group_name_H-M   'P 1'
_cell_length_a   12.14643320
_cell_length_b   12.14641200
_cell_length_c   16.20994683
_cell_angle_alpha   89.99977111
_cell_angle_beta   90.00001930
_cell_angle_gamma   89.99999999
_symmetry_Int_Tables_number   1
_chemical_formula_structural   Zn2H24C25N4(ClO)4
_chemical_formula_sum   'Zn4 H48 C50 N8 Cl8 O8'
_cell_volume   2391.54393909
_cell_formula_units_Z   2
loop_
 _symmetry_equiv_pos_site_id
 _symmetry_equiv_pos_as_xyz
  1  'x, y, z'
loop_
 _atom_site_type_symbol
 _atom_site_label
 _atom_site_symmetry_multiplicity
 _atom_site_fract_x
 _atom_site_fract_y
 _atom_site_fract_z
 _atom_site_occupancy
 _atom_site_pbe_bader_charge
 _atom_site_pbe_bader_spin_density
 _atom_site_pbe_cm5_charge
 _atom_site_pbe_ddec_charge
 _atom_site_pbe_ddec_spin_density
 _atom_site_pbe_ddec_sum_bond_order
 _atom_site_pbe_magmom
Zn  Zn0  1  0.49999963  0.00000019  0.86432616  1  1.123474  0  0.5389  0.630104  0  2.722439  0
Zn  Zn1  1  0.99999976  0.49999997  0.13567410  1  1.123442  0  0.538923  0.63011  0  2.722419  0
Zn  Zn2  1  0.99999904  0.50000030  0.63567266  1  1.123494  0  0.538951  0.630105  0  2.722392  0
Zn  Zn3  1  0.49999871  0.99999970  0.36432424  1  1.123479  0  0.53891  0.630132  0  2.722454  0
H  H4  1  0.66979515  0.82836426  0.82202251  1  0.099222  0  0.107159  0.081908  0  1.022277  0
H  H5  1  0.33020492  0.17163864  0.82202531  1  0.099186  0  0.107149  0.081911  0  1.02228  0
H  H6  1  0.82836338  0.33020404  0.17797923  1  0.099213  0  0.107162  0.081936  0  1.022306  0
H  H7  1  0.17163643  0.66979733  0.17797800  1  0.099182  0  0.107152  0.081919  0  1.0223  0
H  H8  1  0.83020270  0.32836514  0.67797655  1  0.099187  0  0.107143  0.081917  0  1.022339  0
H  H9  1  0.16979648  0.67163688  0.67797717  1  0.099171  0  0.107148  0.081938  0  1.022305  0
H  H10  1  0.67163592  0.83020481  0.32202210  1  0.099199  0  0.107163  0.0819  0  1.022318  0
H  H11  1  0.32836148  0.16979662  0.32202305  1  0.099188  0  0.10716  0.081937  0  1.022313  0
H  H12  1  0.69324563  0.67536216  0.71717725  1  0.119309  0  0.111334  0.132919  0  1.010885  0
H  H13  1  0.30675686  0.32464295  0.71717834  1  0.119271  0  0.111314  0.132906  0  1.010879  0
H  H14  1  0.67536293  0.30675404  0.28282412  1  0.119301  0  0.111337  0.132904  0  1.010911  0
H  H15  1  0.32463939  0.69324513  0.28282473  1  0.119278  0  0.111319  0.132889  0  1.010914  0
H  H16  1  0.80675139  0.17536165  0.78282290  1  0.119255  0  0.111313  0.132909  0  1.010927  0
H  H17  1  0.19324701  0.82463734  0.78282306  1  0.119276  0  0.111315  0.132911  0  1.010897  0
H  H18  1  0.82464131  0.80675125  0.21717851  1  0.11924  0  0.111304  0.132874  0  1.010884  0
H  H19  1  0.17535605  0.19324415  0.21717873  1  0.119239  0  0.111295  0.13288  0  1.010923  0
H  H20  1  0.37344309  0.76536512  0.62010087  1  0.099607  0  0.11693  0.140918  0  0.997161  0
H  H21  1  0.62655443  0.23463308  0.62010047  1  0.099638  0  0.116945  0.140968  0  0.997171  0
H  H22  1  0.76536715  0.62655604  0.37989923  1  0.099621  0  0.116955  0.140932  0  0.997171  0
H  H23  1  0.23463356  0.37344179  0.37990016  1  0.099596  0  0.116928  0.14092  0  0.997164  0
H  H24  1  0.12655749  0.26536493  0.87989640  1  0.099702  0  0.11695  0.140936  0  0.997139  0
H  H25  1  0.87344424  0.73463355  0.87990011  1  0.099635  0  0.116945  0.140931  0  0.997162  0
H  H26  1  0.73464038  0.12655887  0.12010518  1  0.099698  0  0.116958  0.140933  0  0.997149  0
H  H27  1  0.26536352  0.87344610  0.12010028  1  0.099665  0  0.116951  0.140941  0  0.997163  0
H  H28  1  0.36479942  0.91114040  0.72772839  1  0.087203  0  0.118492  0.087085  0  0.984641  0
H  H29  1  0.63519814  0.08885889  0.72772844  1  0.087237  0  0.118523  0.08711  0  0.98464  0
H  H30  1  0.91113914  0.63519674  0.27227273  1  0.087257  0  0.118533  0.087122  0  0.984654  0
H  H31  1  0.08885824  0.36480166  0.27227179  1  0.087218  0  0.118524  0.087093  0  0.984657  0
H  H32  1  0.13519622  0.41113995  0.77226967  1  0.087232  0  0.118553  0.087117  0  0.984675  0
H  H33  1  0.86480300  0.58885992  0.77227197  1  0.087244  0  0.118531  0.087092  0  0.98467  0
H  H34  1  0.58886263  0.13519817  0.22772610  1  0.087268  0  0.11852  0.087111  0  0.984642  0
H  H35  1  0.41114132  0.86480293  0.22772498  1  0.087259  0  0.118517  0.087093  0  0.984638  0
H  H36  1  0.44059282  0.66757521  0.51455349  1  0.137332  0  0.098986  0.094251  0  1.020989  0
H  H37  1  0.55940795  0.33242521  0.51455401  1  0.137341  0  0.098983  0.094221  0  1.021025  0
H  H38  1  0.66757303  0.55940918  0.48544501  1  0.137366  0  0.098977  0.094196  0  1.021094  0
H  H39  1  0.33242773  0.44059220  0.48544699  1  0.137371  0  0.098967  0.094211  0  1.021057  0
H  H40  1  0.05940611  0.16757363  0.98544654  1  0.137353  0  0.098975  0.094205  0  1.021035  0
H  H41  1  0.94059237  0.83242429  0.98544628  1  0.137329  0  0.098985  0.094212  0  1.02103  0
H  H42  1  0.83242380  0.05940681  0.01455467  1  0.137361  0  0.098975  0.094223  0  1.020975  0
H  H43  1  0.16757430  0.94059295  0.01455325  1  0.137345  0  0.098973  0.094214  0  1.021056  0
H  H44  1  0.38745378  0.57125932  0.58915350  1  0.094492  0  0.10142  0.08382  0  1.010412  0
H  H45  1  0.61254784  0.42874069  0.58915436  1  0.094465  0  0.101408  0.083795  0  1.010424  0
H  H46  1  0.57125749  0.61254771  0.41084381  1  0.094428  0  0.101394  0.083776  0  1.010426  0
H  H47  1  0.42873994  0.38745161  0.41084598  1  0.094466  0  0.101408  0.083791  0  1.010425  0
H  H48  1  0.11254680  0.07125979  0.91084620  1  0.094475  0  0.101425  0.083814  0  1.010394  0
H  H49  1  0.88745330  0.92874017  0.91084440  1  0.094464  0  0.101418  0.08381  0  1.010379  0
H  H50  1  0.92874262  0.11254740  0.08915324  1  0.094478  0  0.101399  0.083815  0  1.010431  0
H  H51  1  0.07126044  0.88745114  0.08915380  1  0.094455  0  0.101405  0.083794  0  1.010412  0
C  C52  1  0.60657328  0.80923034  0.77633762  1  0.426878  0  0.040015  0.103505  0  3.977192  0
C  C53  1  0.39342594  0.19076951  0.77634161  1  0.427182  0  0.040056  0.103561  0  3.976988  0
C  C54  1  0.80923267  0.39342588  0.22366157  1  0.426867  0  0.040064  0.103518  0  3.977077  0
C  C55  1  0.19076716  0.60657442  0.22366055  1  0.427192  0  0.040083  0.103509  0  3.977023  0
C  C56  1  0.89342374  0.30923427  0.72365965  1  0.427282  0  0.040076  0.103486  0  3.977  0
C  C57  1  0.10657546  0.69076669  0.72366020  1  0.427198  0  0.040052  0.103458  0  3.976931  0
C  C58  1  0.69076992  0.89342442  0.27633833  1  0.426891  0  0.039996  0.103507  0  3.977068  0
C  C59  1  0.30923075  0.10657560  0.27634009  1  0.427293  0  0.039997  0.103411  0  3.977014  0
C  C60  1  0.61911934  0.72573258  0.71924564  1  0.034414  0  -0.094686  -0.242031  0  3.945214  0
C  C61  1  0.38087986  0.27426922  0.71924753  1  0.034333  0  -0.094693  -0.242054  0  3.944933  0
C  C62  1  0.72573162  0.38088046  0.28075430  1  0.034411  0  -0.094672  -0.241976  0  3.945178  0
C  C63  1  0.27426823  0.61911954  0.28075326  1  0.034318  0  -0.094667  -0.241967  0  3.945122  0
C  C64  1  0.88087768  0.22573127  0.78075311  1  0.034285  0  -0.094694  -0.24203  0  3.945062  0
C  C65  1  0.11912319  0.77426609  0.78075465  1  0.034175  0  -0.094665  -0.242018  0  3.94494  0
C  C66  1  0.77427096  0.88088095  0.21924811  1  0.034445  0  -0.094647  -0.241953  0  3.945187  0
C  C67  1  0.22573051  0.11912184  0.21924548  1  0.034128  0  -0.094666  -0.241988  0  3.944912  0
C  C68  1  0.53401863  0.70646614  0.66218378  1  0.536698  0  0.11461  0.321886  0  4.036961  0
C  C69  1  0.46598137  0.29353350  0.66218440  1  0.536535  0  0.114563  0.321803  0  4.037016  0
C  C70  1  0.70646590  0.46598034  0.33781482  1  0.536687  0  0.114498  0.321697  0  4.037138  0
C  C71  1  0.29353233  0.53401854  0.33781527  1  0.536527  0  0.11452  0.321741  0  4.037133  0
C  C72  1  0.96597922  0.20646864  0.83781380  1  0.53653  0  0.114534  0.321712  0  4.037044  0
C  C73  1  0.03401921  0.79353171  0.83781463  1  0.536645  0  0.1145  0.321725  0  4.037017  0
C  C74  1  0.79353751  0.96597866  0.16218549  1  0.536314  0  0.114565  0.32182  0  4.03701  0
C  C75  1  0.20646640  0.03401949  0.16218435  1  0.536907  0  0.11459  0.321823  0  4.037017  0
C  C76  1  0.44012852  0.77408363  0.66437491  1  -0.015249  0  -0.099472  -0.262055  0  3.955042  0
C  C77  1  0.55986984  0.22591599  0.66437514  1  -0.01527  0  -0.099467  -0.262074  0  3.95501  0
C  C78  1  0.77408328  0.55986980  0.33562529  1  -0.015029  0  -0.099435  -0.261955  0  3.954978  0
C  C79  1  0.22591577  0.44012991  0.33562601  1  -0.015013  0  -0.099451  -0.262011  0  3.954996  0
C  C80  1  0.05987042  0.27408285  0.83562232  1  -0.015281  0  -0.099475  -0.261985  0  3.954969  0
C  C81  1  0.94013048  0.72591587  0.83562423  1  -0.015263  0  -0.099472  -0.262041  0  3.955064  0
C  C82  1  0.72591849  0.05987074  0.16437624  1  -0.014922  0  -0.099473  -0.26199  0  3.954864  0
C  C83  1  0.27408461  0.94013316  0.16437423  1  -0.015284  0  -0.099464  -0.262044  0  3.955067  0
C  C84  1  0.43552800  0.85593892  0.72386542  1  0.494426  0  0.04678  0.113364  0  3.975144  0
C  C85  1  0.56446956  0.14406121  0.72386590  1  0.494278  0  0.046762  0.113353  0  3.975136  0
C  C86  1  0.85593857  0.56446967  0.27613651  1  0.494141  0  0.046745  0.113299  0  3.97519  0
C  C87  1  0.14405963  0.43552953  0.27613537  1  0.494189  0  0.046716  0.113271  0  3.975199  0
C  C88  1  0.06447011  0.35593845  0.77613280  1  0.494265  0  0.046711  0.113294  0  3.975183  0
C  C89  1  0.93552994  0.64406058  0.77613495  1  0.494395  0  0.046761  0.113364  0  3.975203  0
C  C90  1  0.64406319  0.06447030  0.22386563  1  0.494254  0  0.046749  0.113317  0  3.975182  0
C  C91  1  0.35593910  0.93553165  0.22386365  1  0.494189  0  0.04675  0.113349  0  3.975204  0
C  C92  1  0.46033031  0.59603052  0.55336927  1  0.325548  0  -0.064999  -0.042283  0  3.806096  0
C  C93  1  0.53967130  0.40397051  0.55336895  1  0.325657  0  -0.064984  -0.04223  0  3.806086  0
C  C94  1  0.59602938  0.53967095  0.44662936  1  0.325664  0  -0.064964  -0.042187  0  3.806  0
C  C95  1  0.40397053  0.46032900  0.44663068  1  0.325614  0  -0.064973  -0.042221  0  3.806118  0
C  C96  1  0.03967027  0.09602998  0.94663036  1  0.32566  0  -0.064981  -0.04218  0  3.806073  0
C  C97  1  0.96032984  0.90396980  0.94662988  1  0.325667  0  -0.065005  -0.04222  0  3.805969  0
C  C98  1  0.90397156  0.03966919  0.05336977  1  0.325688  0  -0.065022  -0.042253  0  3.8059  0
C  C99  1  0.09602902  0.96032872  0.05336950  1  0.325649  0  -0.06498  -0.042218  0  3.806156  0
C  C100  1  0.49999956  0.50000066  0.49999972  1  0.053767  0  -0.017495  0.066237  0  3.810833  0
C  C101  1  0.99999994  0.99999884  0.99999944  1  0.053662  0  -0.017443  0.06617  0  3.810994  0
N  N102  1  0.51588823  0.87348717  0.77944054  1  -1.259991  0  -0.345629  -0.245528  0  3.60181  0
N  N103  1  0.48411017  0.12651432  0.77944229  1  -1.259929  0  -0.345646  -0.245548  0  3.601892  0
N  N104  1  0.87348692  0.48411110  0.22056150  1  -1.259995  0  -0.345701  -0.245574  0  3.601913  0
N  N105  1  0.12651208  0.51589004  0.22056011  1  -1.259998  0  -0.345616  -0.245422  0  3.601849  0
N  N106  1  0.98410962  0.37348617  0.72055838  1  -1.260041  0  -0.345627  -0.245445  0  3.601788  0
N  N107  1  0.01589041  0.62651398  0.72055910  1  -1.26002  0  -0.345657  -0.245485  0  3.601776  0
N  N108  1  0.62651320  0.98411210  0.27944245  1  -1.259881  0  -0.345625  -0.245548  0  3.601808  0
N  N109  1  0.37348665  0.01589120  0.27943956  1  -1.260084  0  -0.34561  -0.24545  0  3.601892  0
Cl  Cl110  1  0.33512079  0.98762667  0.92369313  1  -0.677377  0  -0.35723  -0.530695  0  1.153505  0
Cl  Cl111  1  0.66487520  0.01236829  0.92369712  1  -0.677357  0  -0.357235  -0.53069  0  1.153539  0
Cl  Cl112  1  0.98762657  0.66487598  0.07630413  1  -0.677365  0  -0.35724  -0.530691  0  1.153519  0
Cl  Cl113  1  0.01237072  0.33512181  0.07630758  1  -0.67736  0  -0.357236  -0.530696  0  1.153502  0
Cl  Cl114  1  0.16487650  0.48762725  0.57630531  1  -0.677365  0  -0.357234  -0.530687  0  1.153529  0
Cl  Cl115  1  0.83512264  0.51237530  0.57630352  1  -0.677386  0  -0.357251  -0.530693  0  1.153511  0
Cl  Cl116  1  0.51237107  0.16487555  0.42369585  1  -0.67736  0  -0.357242  -0.5307  0  1.153506  0
Cl  Cl117  1  0.48763130  0.83512287  0.42369360  1  -0.677359  0  -0.357242  -0.530714  0  1.153535  0
O  O118  1  0.54926178  0.62342365  0.60887652  1  -1.077757  0  -0.158778  -0.168675  0  2.559585  0
O  O119  1  0.45073903  0.37657627  0.60887688  1  -1.077712  0  -0.158754  -0.168645  0  2.559588  0
O  O120  1  0.62342425  0.45073701  0.39112284  1  -1.077743  0  -0.158751  -0.168613  0  2.559459  0
O  O121  1  0.37657482  0.54926240  0.39112389  1  -1.077705  0  -0.158753  -0.16864  0  2.559553  0
O  O122  1  0.95073772  0.12342504  0.89112255  1  -1.077705  0  -0.158748  -0.168624  0  2.55945  0
O  O123  1  0.04926238  0.87657420  0.89112190  1  -1.077717  0  -0.158724  -0.168567  0  2.559397  0
O  O124  1  0.87658081  0.95073644  0.10887998  1  -1.077811  0  -0.158738  -0.168696  0  2.559488  0
O  O125  1  0.12342226  0.04926035  0.10887754  1  -1.077731  0  -0.158783  -0.168653  0  2.559592  0
