# generated using pymatgen
data_ZnH11C30NO22
_symmetry_space_group_name_H-M   'P 1'
_cell_length_a   10.61997620
_cell_length_b   14.50955658
_cell_length_c   14.86012983
_cell_angle_alpha   91.78511943
_cell_angle_beta   93.27491386
_cell_angle_gamma   91.01941530
_symmetry_Int_Tables_number   1
_chemical_formula_structural   ZnH11C30NO22
_chemical_formula_sum   'Zn2 H22 C60 N2 O44'
_cell_volume   2284.52603125
_cell_formula_units_Z   2
loop_
 _symmetry_equiv_pos_site_id
 _symmetry_equiv_pos_as_xyz
  1  'x, y, z'
loop_
 _atom_site_type_symbol
 _atom_site_label
 _atom_site_symmetry_multiplicity
 _atom_site_fract_x
 _atom_site_fract_y
 _atom_site_fract_z
 _atom_site_occupancy
 _atom_site_pbe_bader_charge
 _atom_site_pbe_bader_spin_density
 _atom_site_pbe_cm5_charge
 _atom_site_pbe_ddec_charge
 _atom_site_pbe_ddec_spin_density
 _atom_site_pbe_ddec_sum_bond_order
 _atom_site_pbe_magmom
Zn  Zn0  1  0.48924058  0.61259743  0.50739953  1  1.3278  0  0.697659  0.90845  0  2.190804  0
Zn  Zn1  1  0.49360058  0.40070073  0.49924569  1  1.324357  0  0.687054  0.887157  0  2.30863  0
H  H2  1  0.10589288  0.52353655  0.39835694  1  0.165987  0  0.114822  0.130601  0  1.012982  0
H  H3  1  0.06123251  0.51719722  0.17364858  1  0.657024  0  0.320999  0.378736  0  0.923787  0
H  H4  1  0.15637658  0.28868144  0.77482026  1  0.647675  0  0.332244  0.382917  0  0.886106  0
H  H5  1  0.91759608  0.38486779  0.20803995  1  0.661523  0  0.307947  0.366939  0  0.97501  0
H  H6  1  0.17805265  0.25266773  0.14465790  1  0.635143  0  0.341906  0.399022  0  0.847736  0
H  H7  1  0.96185299  0.42602264  0.85825827  1  0.676219  0  0.315869  0.382273  0  0.939129  0
H  H8  1  0.74035941  0.67768285  0.66154157  1  0.652877  0  0.318434  0.376953  0  0.938008  0
H  H9  1  0.37166890  0.29714752  0.22822004  1  0.630024  0  0.32534  0.379933  0  0.905775  0
H  H10  1  0.24228750  0.63363741  0.35283372  1  0.657466  0  0.323492  0.384325  0  0.934885  0
H  H11  1  0.64102547  0.29671239  0.73111111  1  0.640366  0  0.357402  0.403721  0  0.82067  0
H  H12  1  0.08900436  0.88635858  0.22946860  1  0.638154  0  0.363062  0.401607  0  0.817036  0
H  H13  1  0.88798546  0.44651073  0.66532966  1  0.148503  0  0.111229  0.123064  0  0.992637  0
H  H14  1  0.94347531  0.15820212  0.50705028  1  0.667485  0  0.311876  0.370091  0  0.96761  0
H  H15  1  0.89326542  0.87296575  0.71891715  1  0.637247  0  0.362052  0.405417  0  0.812234  0
H  H16  1  0.04676848  0.13986983  0.31620719  1  0.630199  0  0.353191  0.390108  0  0.834209  0
H  H17  1  0.34149587  0.45484548  0.75559942  1  0.076111  0  0.11136  0.121381  0  1.006293  0
H  H18  1  0.67105537  0.52009230  0.25248986  1  0.090121  0  0.116622  0.132634  0  0.976432  0
H  H19  1  0.95925780  0.76613065  0.41091212  1  0.633004  0  0.33305  0.389033  0  0.875908  0
H  H20  1  0.00052439  0.20866146  0.66119165  1  0.672322  0  0.316661  0.373306  0  0.929123  0
H  H21  1  0.23704241  0.65600891  0.73922992  1  0.631405  0  0.356224  0.394802  0  0.824047  0
H  H22  1  0.81708928  0.27228306  0.33112536  1  0.601934  0  0.351676  0.380177  0  0.842833  0
H  H23  1  0.89946877  0.63782862  0.81095111  1  0.66371  0  0.325262  0.398603  0  0.901155  0
C  C24  1  0.46076190  0.51451135  0.33595543  1  1.612366  0  0.222769  0.607011  0  4.189449  0
C  C25  1  0.74462608  0.49865601  0.98428281  1  0.03575  0  0.002595  -0.078626  0  3.899418  0
C  C26  1  0.55277658  0.81965253  0.55975594  1  0.509765  0  0.143058  0.109667  0  3.860516  0
C  C27  1  0.42716090  0.20197529  0.41812863  1  0.500179  0  0.143924  0.108575  0  3.832027  0
C  C28  1  0.39705232  0.81008957  0.44209437  1  0.540184  0  0.147338  0.117178  0  3.833277  0
C  C29  1  0.58310556  0.20412545  0.53500907  1  0.537336  0  0.140458  0.103004  0  3.87962  0
C  C30  1  0.39351259  0.90743294  0.43589077  1  0.023097  0  0.019584  0.010503  0  3.927134  0
C  C31  1  0.59244567  0.10758384  0.53052789  1  0.030119  0  0.013578  0.008161  0  3.977244  0
C  C32  1  0.57366998  0.91454008  0.54785573  1  -0.028982  0  0.016173  0.006492  0  3.937969  0
C  C33  1  0.41036645  0.10472919  0.42039032  1  0.037065  0  0.017612  0.004161  0  3.916677  0
C  C34  1  0.48758670  0.95976146  0.48747392  1  0.072625  0  0.023562  0.038417  0  3.931671  0
C  C35  1  0.52973207  0.52056570  0.67270952  1  1.668986  0  0.220079  0.610519  0  4.201643  0
C  C36  1  0.49588326  0.05728119  0.47936566  1  -0.018666  0  0.024312  0.041999  0  3.930691  0
C  C37  1  0.30310823  0.95610035  0.37929698  1  0.075764  0  0.017521  -0.048968  0  3.846822  0
C  C38  1  0.69408865  0.05838269  0.57427149  1  0.032132  0  0.002891  -0.077793  0  3.899947  0
C  C39  1  0.68321040  0.96534168  0.58621556  1  0.06822  0  0.017396  -0.043453  0  3.86101  0
C  C40  1  0.31260256  0.05040902  0.37024233  1  0.023934  0  0.016085  -0.04684  0  3.829422  0
C  C41  1  0.73139771  0.50531169  0.49662419  1  1.615123  0  0.214708  0.59936  0  4.179964  0
C  C42  1  0.26489909  0.46605182  0.54068794  1  1.619805  0  0.211857  0.598259  0  4.185601  0
C  C43  1  0.97835754  0.57588747  0.51435643  1  0.028172  0  0.015307  -0.03434  0  3.5691  0
C  C44  1  0.01926587  0.39507233  0.55263763  1  0.039697  0  0.009283  -0.050416  0  3.605556  0
C  C45  1  0.04373811  0.54031896  0.60442700  1  0.004711  0  0.007732  -0.05587  0  3.59858  0
C  C46  1  0.51593669  0.47832349  0.95688959  1  0.005763  0  0.007892  0.000902  0  3.945099  0
C  C47  1  0.95671295  0.42921572  0.46060661  1  0.019128  0  0.008177  -0.046934  0  3.601818  0
C  C48  1  0.05734207  0.50690733  0.45852752  1  -0.014048  0  -0.062083  -0.073229  0  3.588964  0
C  C49  1  0.93819053  0.46392050  0.60613945  1  0.014607  0  -0.055827  -0.059722  0  3.567563  0
C  C50  1  0.12538147  0.47282450  0.54686814  1  0.002027  0  0.013122  -0.019947  0  3.558886  0
C  C51  1  0.87166531  0.49787507  0.51536625  1  0.043999  0  0.023539  -0.008395  0  3.501746  0
C  C52  1  0.63696741  0.52778862  0.83153617  1  0.027792  0  -0.003942  -0.10508  0  3.908953  0
C  C53  1  0.36368276  0.48226847  0.17663567  1  0.000454  0  -0.007469  -0.119426  0  3.893667  0
C  C54  1  0.53026462  0.50888402  0.77293151  1  -0.03348  0  0.007114  -0.001439  0  3.936648  0
C  C55  1  0.46992257  0.50331615  0.23550531  1  0.051859  0  0.010239  0.006337  0  3.921907  0
C  C56  1  0.41991177  0.47186787  0.80409603  1  0.027623  0  -0.078172  -0.144177  0  3.930154  0
C  C57  1  0.50241027  0.47572715  0.05135381  1  -0.054859  0  0.008049  0.000121  0  3.949445  0
C  C58  1  0.59097719  0.50584429  0.20451082  1  -0.041089  0  -0.073249  -0.137778  0  3.896053  0
C  C59  1  0.40905557  0.45920424  0.89624958  1  0.036551  0  0.004189  0.063696  0  4.017025  0
C  C60  1  0.60868121  0.49596295  0.11206018  1  0.07475  0  0.009454  0.075254  0  4.008194  0
C  C61  1  0.98219064  0.67718830  0.49927074  1  1.53627  0  0.233789  0.592866  0  4.101117  0
C  C62  1  0.03537966  0.29644088  0.57200517  1  1.512877  0  0.253024  0.619887  0  4.03845  0
C  C63  1  0.08788928  0.60181478  0.68301158  1  1.580889  0  0.246802  0.615426  0  4.095375  0
C  C64  1  0.92398978  0.36894976  0.37977897  1  1.518393  0  0.25254  0.610182  0  4.056655  0
C  C65  1  0.74335299  0.57618061  0.79157117  1  1.477234  0  0.241738  0.58463  0  4.105586  0
C  C66  1  0.23793768  0.50557555  0.21012299  1  1.57892  0  0.246275  0.599922  0  4.093683  0
C  C67  1  0.19911623  0.38320918  0.86172934  1  1.54756  0  0.253184  0.609654  0  4.108337  0
C  C68  1  0.63442924  0.50366687  0.92311686  1  0.04005  0  0.014872  0.065903  0  3.932971  0
C  C69  1  0.84216622  0.48344495  0.14100756  1  1.555903  0  0.244096  0.606034  0  4.115541  0
C  C70  1  0.19549689  0.34219281  0.05258523  1  1.532913  0  0.236177  0.588353  0  4.107788  0
C  C71  1  0.87381844  0.48170321  0.95251874  1  1.574886  0  0.226255  0.577725  0  4.143408  0
C  C72  1  0.61406089  0.77246556  0.64013598  1  1.626414  0  0.227478  0.544988  0  4.197344  0
C  C73  1  0.35648936  0.25803814  0.34797333  1  1.612827  0  0.233366  0.551987  0  4.154811  0
C  C74  1  0.32921045  0.74945857  0.36991878  1  1.591562  0  0.228311  0.543605  0  4.192871  0
C  C75  1  0.65713584  0.25894357  0.60945674  1  1.585166  0  0.242927  0.547603  0  4.130954  0
C  C76  1  0.18727030  0.90562009  0.33865705  1  1.558505  0  0.236503  0.574446  0  4.152345  0
C  C77  1  0.82358408  0.10378066  0.58413100  1  1.580315  0  0.236856  0.5865  0  4.140306  0
C  C78  1  0.80347090  0.91865519  0.61748436  1  1.566345  0  0.234363  0.571142  0  4.160974  0
C  C79  1  0.38195566  0.45668414  0.08522358  1  0.029295  0  0.01491  0.06331  0  3.919571  0
C  C80  1  0.21321609  0.09681650  0.31117845  1  1.571575  0  0.23652  0.579285  0  4.149384  0
C  C81  1  0.29879549  0.41796571  0.93141882  1  -0.029796  0  0.017142  -0.057061  0  3.867895  0
C  C82  1  0.73110896  0.49741272  0.07564289  1  -0.035997  0  0.013138  -0.06194  0  3.885313  0
C  C83  1  0.28822094  0.41176547  0.02300543  1  0.084765  0  0.005647  -0.071328  0  3.888203  0
N  N84  1  0.47135910  0.76817684  0.50478595  1  -1.149267  0  -0.270072  -0.234501  0  3.351099  0
N  N85  1  0.50453601  0.24976771  0.47885773  1  -1.192147  0  -0.278642  -0.230654  0  3.410549  0
O  O86  1  0.48859716  0.59295307  0.37238441  1  -1.145145  0  -0.306187  -0.534094  0  2.360924  0
O  O87  1  0.93463648  0.70094965  0.41732427  1  -1.118296  0  -0.335529  -0.473005  0  2.200854  0
O  O88  1  0.04367870  0.23739392  0.51097841  1  -1.148697  0  -0.274299  -0.490947  0  2.236416  0
O  O89  1  0.03209228  0.27464333  0.65944805  1  -1.176755  0  -0.325335  -0.490704  0  2.271666  0
O  O90  1  0.02076322  0.63730431  0.73875415  1  -1.16752  0  -0.291223  -0.526367  0  2.194525  0
O  O91  1  0.21406949  0.61306164  0.68842991  1  -1.133863  0  -0.308801  -0.450072  0  2.294199  0
O  O92  1  0.97875281  0.37652355  0.30909003  1  -1.150822  0  -0.274941  -0.498423  0  2.223537  0
O  O93  1  0.83286455  0.30531534  0.38933193  1  -1.09347  0  -0.30967  -0.438163  0  2.315378  0
O  O94  1  0.75075210  0.57734477  0.70865206  1  -1.11853  0  -0.26275  -0.482642  0  2.295404  0
O  O95  1  0.82621435  0.62199145  0.84785260  1  -1.150596  0  -0.314366  -0.462077  0  2.268202  0
O  O96  1  0.22630461  0.54148263  0.28572395  1  -1.163457  0  -0.267607  -0.489898  0  2.271322  0
O  O97  1  0.54894037  0.44606164  0.62929155  1  -1.174007  0  -0.313818  -0.567913  0  2.394653  0
O  O98  1  0.14149186  0.49213826  0.15034712  1  -1.148109  0  -0.304415  -0.448874  0  2.378867  0
O  O99  1  0.11546470  0.43383414  0.83285177  1  -1.140317  0  -0.271146  -0.491537  0  2.195746  0
O  O100  1  0.21975668  0.29955478  0.82578210  1  -1.123541  0  -0.316328  -0.451239  0  2.22039  0
O  O101  1  0.90404392  0.54576143  0.18175668  1  -1.141088  0  -0.279637  -0.485279  0  2.125718  0
O  O102  1  0.85789641  0.39356459  0.15362973  1  -1.14389  0  -0.337644  -0.49163  0  2.259847  0
O  O103  1  0.10312071  0.31324017  0.00723107  1  -1.111827  0  -0.273509  -0.456346  0  2.108611  0
O  O104  1  0.23454001  0.30472154  0.13275624  1  -1.125481  0  -0.326764  -0.509145  0  2.307676  0
O  O105  1  0.97010521  0.50601920  0.99625786  1  -1.116065  0  -0.274081  -0.457675  0  2.159431  0
O  O106  1  0.87206017  0.43160954  0.87425552  1  -1.174524  0  -0.34299  -0.501567  0  2.261781  0
O  O107  1  0.56644685  0.77919762  0.71274805  1  -1.086943  0  -0.278294  -0.442238  0  2.054623  0
O  O108  1  0.49974897  0.59823627  0.64251008  1  -1.150241  0  -0.304069  -0.52513  0  2.388659  0
O  O109  1  0.71690712  0.72853547  0.61899575  1  -1.13579  0  -0.316658  -0.460112  0  2.390291  0
O  O110  1  0.25140334  0.28735287  0.35795771  1  -1.091989  0  -0.261489  -0.429418  0  2.141323  0
O  O111  1  0.42390067  0.26594829  0.27509437  1  -1.111887  0  -0.329997  -0.465071  0  2.269554  0
O  O112  1  0.34135970  0.76565077  0.29034855  1  -1.091463  0  -0.284087  -0.463095  0  2.070143  0
O  O113  1  0.26352406  0.68120386  0.40223332  1  -1.133134  0  -0.311877  -0.449969  0  2.388296  0
O  O114  1  0.75835987  0.29735281  0.60191308  1  -1.101023  0  -0.242667  -0.424512  0  2.215085  0
O  O115  1  0.59520840  0.25589818  0.68588769  1  -1.104801  0  -0.315532  -0.452219  0  2.217936  0
O  O116  1  0.11858514  0.85887919  0.38294477  1  -1.116666  0  -0.258368  -0.465063  0  2.152881  0
O  O117  1  0.16565204  0.92133635  0.25022109  1  -1.121214  0  -0.312928  -0.453957  0  2.250215  0
O  O118  1  0.88560793  0.11911693  0.65598887  1  -1.136126  0  -0.279931  -0.487223  0  2.126132  0
O  O119  1  0.43666489  0.44021408  0.37455326  1  -1.163228  0  -0.309437  -0.551295  0  2.430745  0
O  O120  1  0.86003038  0.12162714  0.50271370  1  -1.15003  0  -0.321504  -0.468185  0  2.300724  0
O  O121  1  0.88413753  0.90226986  0.56470622  1  -1.088381  0  -0.258828  -0.435671  0  2.104209  0
O  O122  1  0.81278927  0.90385143  0.70649490  1  -1.103021  0  -0.316357  -0.457236  0  2.229655  0
O  O123  1  0.22915086  0.12471111  0.23606258  1  -1.1178  0  -0.273205  -0.47457  0  2.136194  0
O  O124  1  0.10463155  0.10304083  0.35354021  1  -1.10895  0  -0.314015  -0.449492  0  2.257375  0
O  O125  1  0.68350192  0.58350823  0.50726321  1  -1.150724  0  -0.303046  -0.527286  0  2.35946  0
O  O126  1  0.31625809  0.38755849  0.54753770  1  -1.141585  0  -0.322078  -0.539851  0  2.251893  0
O  O127  1  0.31716253  0.54062824  0.51977957  1  -1.17277  0  -0.30868  -0.548851  0  2.401667  0
O  O128  1  0.67465073  0.42992886  0.47146235  1  -1.160369  0  -0.325267  -0.558345  0  2.38266  0
O  O129  1  0.03458558  0.73111390  0.55472035  1  -1.106431  0  -0.282136  -0.470009  0  2.119034  0
