# generated using pymatgen
data_ZnH28C28(N2O3)2
_symmetry_space_group_name_H-M   'P 1'
_cell_length_a   9.33263533
_cell_length_b   11.47633397
_cell_length_c   13.09001763
_cell_angle_alpha   90.00068455
_cell_angle_beta   89.99882944
_cell_angle_gamma   97.95981882
_symmetry_Int_Tables_number   1
_chemical_formula_structural   ZnH28C28(N2O3)2
_chemical_formula_sum   'Zn2 H56 C56 N8 O12'
_cell_volume   1388.49134304
_cell_formula_units_Z   2
loop_
 _symmetry_equiv_pos_site_id
 _symmetry_equiv_pos_as_xyz
  1  'x, y, z'
loop_
 _atom_site_type_symbol
 _atom_site_label
 _atom_site_symmetry_multiplicity
 _atom_site_fract_x
 _atom_site_fract_y
 _atom_site_fract_z
 _atom_site_occupancy
 _atom_site_hle17_bader_spin_density
 _atom_site_hle17_ddec_charge
 _atom_site_hle17_ddec_spin_density
 _atom_site_hle17_ddec_sum_bond_order
 _atom_site_hle17_magmom
 _atom_site_hse06_10hf_bader_spin_density
 _atom_site_hse06_10hf_ddec_charge
 _atom_site_hse06_10hf_ddec_spin_density
 _atom_site_hse06_10hf_ddec_sum_bond_order
 _atom_site_hse06_10hf_magmom
 _atom_site_hse06_bader_spin_density
 _atom_site_hse06_ddec_charge
 _atom_site_hse06_ddec_spin_density
 _atom_site_hse06_ddec_sum_bond_order
 _atom_site_hse06_magmom
 _atom_site_pbe_bader_spin_density
 _atom_site_pbe_cm5_charge
 _atom_site_pbe_ddec_charge
 _atom_site_pbe_ddec_spin_density
 _atom_site_pbe_ddec_sum_bond_order
 _atom_site_pbe_magmom
Zn  Zn0  1  0.76907889  0.85130317  0.99280115  1  0  0.915222  0  1.951462  0  0  0.736693  0  2.399122  0  0  0.778213  0  2.356864  0  0  0.662787  0.707615  0  2.427981  0
Zn  Zn1  1  0.23092481  0.14869629  0.49280285  1  0  0.915211  0  1.951396  0  0  0.736724  0  2.39904  0  0  0.778239  0  2.356783  0  0  0.662761  0.707649  0  2.427891  0
H  H2  1  0.98380144  0.07667737  0.97561755  1  0  0.085392  0  0.928428  0  0  0.094354  0  0.9905  0  0  0.097131  0  0.987643  0  0  0.12143  0.092238  0  0.99269  0
H  H3  1  0.01620084  0.92331752  0.47561675  1  0  0.08543  0  0.928445  0  0  0.094389  0  0.990495  0  0  0.097167  0  0.987637  0  0  0.12144  0.09226  0  0.992695  0
H  H4  1  0.99300767  0.29374730  0.98956512  1  0  0.103452  0  0.976406  0  0  0.114462  0  1.038554  0  0  0.117008  0  1.038681  0  0  0.107347  0.11248  0  1.038989  0
H  H5  1  0.00700114  0.70625031  0.48956830  1  0  0.1034  0  0.976449  0  0  0.114438  0  1.038585  0  0  0.116982  0  1.038713  0  0  0.107305  0.112434  0  1.039049  0
H  H6  1  0.52852989  0.23666197  0.02993163  1  0  0.116586  0  0.945453  0  0  0.126621  0  1.006411  0  0  0.130218  0  1.004548  0  0  0.112123  0.124071  0  1.00777  0
H  H7  1  0.47147356  0.76333974  0.52992878  1  0  0.116644  0  0.945404  0  0  0.12666  0  1.00639  0  0  0.130258  0  1.004523  0  0  0.112123  0.124108  0  1.007754  0
H  H8  1  0.53825467  0.02300292  0.00568983  1  0  0.081278  0  0.9213  0  0  0.092341  0  0.977939  0  0  0.095174  0  0.9755  0  0  0.120957  0.090292  0  0.979746  0
H  H9  1  0.46174375  0.97699684  0.50568783  1  0  0.08134  0  0.921336  0  0  0.0924  0  0.977959  0  0  0.095234  0  0.97552  0  0  0.120995  0.090348  0  0.979762  0
H  H10  1  0.98134244  0.45513118  0.07200120  1  0  0.099988  0  0.9989  0  0  0.107065  0  1.066022  0  0  0.108511  0  1.068691  0  0  0.103493  0.10636  0  1.063658  0
H  H11  1  0.01866688  0.54486827  0.57201340  1  0  0.10011  0  0.99885  0  0  0.107189  0  1.065923  0  0  0.108619  0  1.068637  0  0  0.103562  0.106483  0  1.06356  0
H  H12  1  0.97772023  0.67190796  0.06222698  1  0  0.083514  0  0.950913  0  0  0.089114  0  1.017848  0  0  0.092222  0  1.015128  0  0  0.114235  0.08679  0  1.019984  0
H  H13  1  0.02228368  0.32808968  0.56223762  1  0  0.083464  0  0.950961  0  0  0.089062  0  1.017889  0  0  0.092165  0  1.01518  0  0  0.114249  0.086738  0  1.020017  0
H  H14  1  0.55998081  0.62783043  0.95060982  1  0  0.087298  0  0.957444  0  0  0.094197  0  1.021911  0  0  0.096998  0  1.019663  0  0  0.116955  0.092233  0  1.023335  0
H  H15  1  0.44002074  0.37216244  0.45060087  1  0  0.087204  0  0.957486  0  0  0.094143  0  1.021943  0  0  0.096932  0  1.019677  0  0  0.116975  0.0922  0  1.023369  0
H  H16  1  0.54270807  0.40971825  0.95671422  1  0  0.101323  0  0.98124  0  0  0.11114  0  1.044794  0  0  0.113275  0  1.045593  0  0  0.105532  0.109508  0  1.044739  0
H  H17  1  0.45729776  0.59027552  0.45670806  1  0  0.101232  0  0.981317  0  0  0.111076  0  1.044862  0  0  0.113211  0  1.045667  0  0  0.105515  0.10945  0  1.044802  0
H  H18  1  0.70642065  0.97875231  0.22699200  1  0  0.072935  0  0.891177  0  0  0.090509  0  0.937138  0  0  0.091923  0  0.93724  0  0  0.118402  0.089358  0  0.937403  0
H  H19  1  0.29358479  0.02124437  0.72699087  1  0  0.07284  0  0.891221  0  0  0.090454  0  0.937191  0  0  0.091871  0  0.937292  0  0  0.118344  0.089298  0  0.937454  0
H  H20  1  0.54138583  0.87116357  0.12565054  1  0  0.291725  0  0.883881  0  0  0.289068  0  0.929976  0  0  0.294454  0  0.926132  0  0  0.302017  0.285381  0  0.932535  0
H  H21  1  0.45861967  0.12884088  0.62564964  1  0  0.29166  0  0.883941  0  0  0.289007  0  0.930041  0  0  0.29439  0  0.926205  0  0  0.301984  0.285321  0  0.932593  0
H  H22  1  0.61024396  0.74891997  0.13946297  1  0  0.283232  0  0.922733  0  0  0.275735  0  0.979091  0  0  0.28047  0  0.977013  0  0  0.289254  0.272427  0  0.980471  0
H  H23  1  0.38975147  0.25107856  0.63946742  1  0  0.28321  0  0.92271  0  0  0.275692  0  0.979107  0  0  0.280427  0  0.977029  0  0  0.289258  0.272382  0  0.980493  0
H  H24  1  0.75156350  0.85594765  0.37776852  1  0  0.088701  0  0.93709  0  0  0.103853  0  0.999456  0  0  0.106017  0  0.997612  0  0  0.094234  0.102274  0  1.000787  0
H  H25  1  0.24842683  0.14404282  0.87777544  1  0  0.088697  0  0.937211  0  0  0.103845  0  0.999558  0  0  0.106014  0  0.997702  0  0  0.094209  0.102263  0  1.000894  0
H  H26  1  0.56873104  0.83312141  0.33593099  1  0  0.074281  0  0.944494  0  0  0.08854  0  1.0106  0  0  0.090065  0  1.010142  0  0  0.087664  0.087549  0  1.010678  0
H  H27  1  0.43127233  0.16686938  0.83594006  1  0  0.074302  0  0.944505  0  0  0.088518  0  1.01065  0  0  0.090039  0  1.01019  0  0  0.087614  0.087518  0  1.01074  0
H  H28  1  0.91218223  0.69872172  0.33868177  1  0  0.083526  0  0.982282  0  0  0.093368  0  1.048386  0  0  0.095903  0  1.047428  0  0  0.092013  0.091485  0  1.049212  0
H  H29  1  0.08781439  0.30127357  0.83868353  1  0  0.083592  0  0.982166  0  0  0.093466  0  1.048227  0  0  0.096005  0  1.047263  0  0  0.092061  0.091585  0  1.049045  0
H  H30  1  0.91830161  0.48348207  0.31935901  1  0  0.09354  0  0.987163  0  0  0.104185  0  1.051366  0  0  0.106979  0  1.050656  0  0  0.093235  0.102269  0  1.052113  0
H  H31  1  0.08170178  0.51651207  0.81935471  1  0  0.093505  0  0.987254  0  0  0.104187  0  1.051423  0  0  0.106958  0  1.050738  0  0  0.093183  0.102272  0  1.052164  0
H  H32  1  0.46905993  0.43363832  0.23520936  1  0  0.105356  0  0.990293  0  0  0.113404  0  1.056199  0  0  0.115488  0  1.057903  0  0  0.095425  0.111669  0  1.055698  0
H  H33  1  0.53094926  0.56634519  0.73521657  1  0  0.105409  0  0.990103  0  0  0.113447  0  1.056027  0  0  0.11553  0  1.05773  0  0  0.095456  0.111717  0  1.055525  0
H  H34  1  0.45977465  0.64478436  0.26469407  1  0  0.077081  0  0.986641  0  0  0.085704  0  1.054653  0  0  0.088332  0  1.053075  0  0  0.089564  0.083908  0  1.055831  0
H  H35  1  0.54022981  0.35520127  0.76470581  1  0  0.077052  0  0.986561  0  0  0.085638  0  1.054603  0  0  0.088265  0  1.053023  0  0  0.089573  0.083855  0  1.055779  0
H  H36  1  0.61018086  0.27895280  0.25017847  1  0  0.38252  0  0.912029  0  0  0.355296  0  0.988471  0  0  0.367728  0  0.974451  0  0  0.285969  0.346716  0  0.997914  0
H  H37  1  0.38982940  0.72103879  0.75018172  1  0  0.382529  0  0.912039  0  0  0.355291  0  0.988504  0  0  0.367723  0  0.97448  0  0  0.285925  0.346708  0  0.997951  0
H  H38  1  0.79220228  0.95381002  0.74353982  1  0  0.079502  0  0.901669  0  0  0.092237  0  0.955698  0  0  0.095009  0  0.953638  0  0  0.117768  0.090168  0  0.957223  0
H  H39  1  0.20780007  0.04619569  0.24352475  1  0  0.079406  0  0.901775  0  0  0.092194  0  0.955729  0  0  0.094918  0  0.953728  0  0  0.117694  0.090123  0  0.95726  0
H  H40  1  0.96424231  0.93645117  0.84373314  1  0  0.311836  0  0.916176  0  0  0.299931  0  0.977116  0  0  0.30699  0  0.971281  0  0  0.289992  0.294953  0  0.981207  0
H  H41  1  0.03576744  0.06354052  0.34373299  1  0  0.311823  0  0.916286  0  0  0.299938  0  0.977191  0  0  0.306998  0  0.971354  0  0  0.290013  0.294961  0  0.981276  0
H  H42  1  0.94599861  0.79217593  0.84940631  1  0  0.285792  0  0.902612  0  0  0.285536  0  0.944749  0  0  0.290439  0  0.941672  0  0  0.297905  0.282458  0  0.946261  0
H  H43  1  0.05399692  0.20781508  0.34941275  1  0  0.285856  0  0.902551  0  0  0.285575  0  0.944721  0  0  0.29048  0  0.941642  0  0  0.297947  0.282498  0  0.946235  0
H  H44  1  0.78405329  0.83226889  0.60314065  1  0  0.086718  0  0.927881  0  0  0.104059  0  0.987403  0  0  0.10573  0  0.986076  0  0  0.09778  0.102758  0  0.988522  0
H  H45  1  0.21595335  0.16775559  0.10314125  1  0  0.086611  0  0.927917  0  0  0.103976  0  0.98745  0  0  0.105641  0  0.986121  0  0  0.097751  0.102671  0  0.988575  0
H  H46  1  0.95288821  0.82649547  0.66073824  1  0  0.084709  0  0.940426  0  0  0.101744  0  1.001426  0  0  0.102616  0  1.002012  0  0  0.095138  0.101099  0  1.000994  0
H  H47  1  0.04711600  0.17351905  0.16074366  1  0  0.084642  0  0.940358  0  0  0.101755  0  1.001283  0  0  0.102635  0  1.00186  0  0  0.095099  0.101107  0  1.000861  0
H  H48  1  0.70894046  0.66494338  0.51582188  1  0  0.084007  0  0.97381  0  0  0.095324  0  1.037911  0  0  0.097309  0  1.037453  0  0  0.096314  0.093721  0  1.038746  0
H  H49  1  0.29104851  0.33508214  0.01583459  1  0  0.083742  0  0.973997  0  0  0.095085  0  1.038068  0  0  0.097054  0  1.037652  0  0  0.096203  0.093481  0  1.038899  0
H  H50  1  0.67431980  0.44886973  0.49426412  1  0  0.115537  0  0.952264  0  0  0.128599  0  1.006648  0  0  0.131309  0  1.006322  0  0  0.107514  0.126613  0  1.006779  0
H  H51  1  0.32565913  0.55115820  0.99428869  1  0  0.115477  0  0.952364  0  0  0.128567  0  1.006706  0  0  0.131276  0  1.006381  0  0  0.107547  0.12658  0  1.006834  0
H  H52  1  0.85626211  0.41221410  0.79233477  1  0  0.098862  0  0.961947  0  0  0.111785  0  1.021182  0  0  0.114234  0  1.021153  0  0  0.100809  0.109853  0  1.02162  0
H  H53  1  0.14372258  0.58779053  0.29236985  1  0  0.098906  0  0.961695  0  0  0.111712  0  1.021123  0  0  0.114161  0  1.021094  0  0  0.100827  0.109779  0  1.021566  0
H  H54  1  0.89821215  0.62613009  0.81181837  1  0  0.081614  0  0.973142  0  0  0.095207  0  1.031325  0  0  0.09763  0  1.030333  0  0  0.098829  0.093334  0  1.032494  0
H  H55  1  0.10179399  0.37387188  0.31184647  1  0  0.081435  0  0.973396  0  0  0.09508  0  1.031537  0  0  0.097494  0  1.030568  0  0  0.098812  0.093208  0  1.032708  0
H  H56  1  0.79735245  0.25798154  0.67579139  1  0  0.389806  0  0.814183  0  0  0.376358  0  0.869149  0  0  0.384899  0  0.859106  0  0  0.33549  0.370648  0  0.875681  0
H  H57  1  0.20260809  0.74203094  0.17582646  1  0  0.389299  0  0.814785  0  0  0.375913  0  0.8696  0  0  0.384442  0  0.859594  0  0  0.335366  0.370214  0  0.876101  0
C  C58  1  0.88516614  0.11605838  0.98622427  1  0  0.14492  0  3.705961  0  0  0.111672  0  3.962753  0  0  0.119049  0  3.979429  0  0  0.052546  0.107144  0  3.950963  0
C  C59  1  0.11483634  0.88393926  0.48622620  1  0  0.144886  0  3.705961  0  0  0.111689  0  3.962758  0  0  0.119063  0  3.97943  0  0  0.052618  0.107172  0  3.95095  0
C  C60  1  0.88959848  0.23704974  0.99450140  1  0  -0.158555  0  3.703586  0  0  -0.177304  0  3.949593  0  0  -0.18439  0  3.969621  0  0  -0.080495  -0.172701  0  3.936049  0
C  C61  1  0.11040806  0.76294795  0.49450443  1  0  -0.158484  0  3.703479  0  0  -0.177295  0  3.949468  0  0  -0.184377  0  3.969492  0  0  -0.080459  -0.172668  0  3.935933  0
C  C62  1  0.76070151  0.28467710  0.00869109  1  0  0.099317  0  3.762276  0  0  0.109753  0  3.992464  0  0  0.114325  0  4.012685  0  0  0.014705  0.106724  0  3.978723  0
C  C63  1  0.23930276  0.71531998  0.50869726  1  0  0.099126  0  3.762201  0  0  0.1096  0  3.992365  0  0  0.114172  0  4.012583  0  0  0.014533  0.106567  0  3.978627  0
C  C64  1  0.63150060  0.20612240  0.01387955  1  0  -0.138567  0  3.689287  0  0  -0.159196  0  3.940387  0  0  -0.165286  0  3.959287  0  0  -0.075258  -0.155259  0  3.927555  0
C  C65  1  0.36850360  0.79388091  0.51388006  1  0  -0.138485  0  3.689265  0  0  -0.159107  0  3.940347  0  0  -0.165195  0  3.959248  0  0  -0.075151  -0.15517  0  3.927516  0
C  C66  1  0.63679149  0.08648702  0.00346713  1  0  0.126352  0  3.716829  0  0  0.093832  0  3.973913  0  0  0.10018  0  3.991755  0  0  0.04924  0.089667  0  3.961792  0
C  C67  1  0.36321110  0.91351179  0.50346974  1  0  0.126188  0  3.716924  0  0  0.093697  0  3.974018  0  0  0.100038  0  3.991857  0  0  0.049191  0.089537  0  3.961885  0
C  C68  1  0.76203467  0.41292694  0.01332353  1  0  0.095878  0  3.755513  0  0  0.107086  0  3.98385  0  0  0.110749  0  4.004013  0  0  0.01363  0.105056  0  3.969742  0
C  C69  1  0.23797178  0.58707105  0.51332684  1  0  0.095973  0  3.755308  0  0  0.107185  0  3.983638  0  0  0.110848  0  4.003795  0  0  0.013724  0.105151  0  3.969544  0
C  C70  1  0.88554284  0.48893882  0.04362932  1  0  -0.144987  0  3.689644  0  0  -0.16317  0  3.936811  0  0  -0.17005  0  3.959437  0  0  -0.078539  -0.158385  0  3.920828  0
C  C71  1  0.11446403  0.51106036  0.54363747  1  0  -0.14532  0  3.689498  0  0  -0.163484  0  3.936654  0  0  -0.170365  0  3.959267  0  0  -0.078706  -0.158685  0  3.920658  0
C  C72  1  0.88440633  0.60970490  0.03891492  1  0  0.125499  0  3.705055  0  0  0.09577  0  3.958661  0  0  0.10149  0  3.97677  0  0  0.045349  0.091702  0  3.946816  0
C  C73  1  0.11559960  0.39029424  0.53892255  1  0  0.125694  0  3.704925  0  0  0.095981  0  3.958521  0  0  0.101701  0  3.976622  0  0  0.045398  0.091916  0  3.946663  0
C  C74  1  0.64965005  0.58512296  0.97852105  1  0  0.12453  0  3.709121  0  0  0.093946  0  3.963378  0  0  0.099969  0  3.981521  0  0  0.045263  0.090293  0  3.950414  0
C  C75  1  0.35035306  0.41487107  0.47851768  1  0  0.124663  0  3.708957  0  0  0.09402  0  3.963303  0  0  0.100068  0  3.981425  0  0  0.045314  0.090336  0  3.950379  0
C  C76  1  0.64112866  0.46363044  0.98238372  1  0  -0.146857  0  3.701895  0  0  -0.166824  0  3.950725  0  0  -0.174121  0  3.973166  0  0  -0.078472  -0.161793  0  3.934945  0
C  C77  1  0.35887483  0.53636627  0.48238226  1  0  -0.14676  0  3.701812  0  0  -0.166753  0  3.950687  0  0  -0.174056  0  3.973131  0  0  -0.078525  -0.161722  0  3.934923  0
C  C78  1  0.89015978  0.89246168  0.19664112  1  0  0.628808  0  3.879543  0  0  0.582207  0  4.188097  0  0  0.614538  0  4.182104  0  0  0.195572  0.560249  0  4.191533  0
C  C79  1  0.10984007  0.10752329  0.69665123  1  0  0.629  0  3.879404  0  0  0.582371  0  4.188036  0  0  0.614702  0  4.182045  0  0  0.195759  0.560406  0  4.191472  0
C  C80  1  0.72474868  0.88658944  0.21711439  1  0  0.061852  0  3.590095  0  0  0.047683  0  3.833707  0  0  0.04649  0  3.847176  0  0  -0.002083  0.048109  0  3.825182  0
C  C81  1  0.27524905  0.11340458  0.71711526  1  0  0.061861  0  3.590063  0  0  0.047561  0  3.833912  0  0  0.046353  0  3.847402  0  0  -0.002124  0.047994  0  3.825371  0
C  C82  1  0.67944524  0.81816494  0.31632737  1  0  -0.193576  0  3.727953  0  0  -0.245509  0  3.984792  0  0  -0.245756  0  3.996393  0  0  -0.16413  -0.245227  0  3.976709  0
C  C83  1  0.32055026  0.18182660  0.81633440  1  0  -0.1936  0  3.728056  0  0  -0.245432  0  3.984837  0  0  -0.24566  0  3.996422  0  0  -0.163983  -0.245143  0  3.976753  0
C  C84  1  0.68495397  0.68811585  0.30484920  1  0  0.04299  0  3.793096  0  0  0.064997  0  4.030865  0  0  0.062465  0  4.056193  0  0  -0.040656  0.066817  0  4.013399  0
C  C85  1  0.31504570  0.31187906  0.80485462  1  0  0.043  0  3.79328  0  0  0.064993  0  4.031029  0  0  0.062456  0  4.056353  0  0  -0.040675  0.066821  0  4.013558  0
C  C86  1  0.81422050  0.64011213  0.31822079  1  0  -0.110725  0  3.791345  0  0  -0.130108  0  4.041634  0  0  -0.13069  0  4.063329  0  0  -0.104645  -0.129458  0  4.026698  0
C  C87  1  0.18578020  0.35988467  0.81822326  1  0  -0.110873  0  3.791434  0  0  -0.13028  0  4.04175  0  0  -0.130866  0  4.063444  0  0  -0.104743  -0.129623  0  4.026798  0
C  C88  1  0.81890313  0.52050763  0.30589089  1  0  -0.199727  0  3.771029  0  0  -0.218764  0  4.023903  0  0  -0.224812  0  4.044612  0  0  -0.116196  -0.214248  0  4.009578  0
C  C89  1  0.18110384  0.47948634  0.80589162  1  0  -0.199647  0  3.771246  0  0  -0.218771  0  4.024115  0  0  -0.224802  0  4.044834  0  0  -0.11613  -0.214265  0  4.009794  0
C  C90  1  0.69537301  0.44357399  0.27574475  1  0  0.339458  0  3.849901  0  0  0.333737  0  4.107448  0  0  0.346204  0  4.122437  0  0  0.075915  0.325139  0  4.096946  0
C  C91  1  0.30463378  0.55641438  0.77574601  1  0  0.339274  0  3.849835  0  0  0.333663  0  4.107227  0  0  0.346133  0  4.122207  0  0  0.075863  0.325069  0  4.096726  0
C  C92  1  0.56602312  0.49079848  0.25956186  1  0  -0.217605  0  3.758087  0  0  -0.236048  0  4.008635  0  0  -0.243039  0  4.031281  0  0  -0.119516  -0.230893  0  3.993306  0
C  C93  1  0.43398361  0.50918707  0.75956760  1  0  -0.217458  0  3.757987  0  0  -0.235953  0  4.008577  0  0  -0.242941  0  4.031209  0  0  -0.11947  -0.230808  0  3.993269  0
C  C94  1  0.56229678  0.61071760  0.27527220  1  0  -0.127226  0  3.82403  0  0  -0.143195  0  4.07208  0  0  -0.142918  0  4.09248  0  0  -0.108709  -0.143357  0  4.058192  0
C  C95  1  0.43770854  0.38927430  0.77527815  1  0  -0.127214  0  3.824133  0  0  -0.14315  0  4.072176  0  0  -0.142866  0  4.092569  0  0  -0.108709  -0.143334  0  4.058313  0
C  C96  1  0.62900009  0.82012088  0.79505438  1  0  0.629785  0  3.867767  0  0  0.579477  0  4.17663  0  0  0.611666  0  4.170843  0  0  0.201951  0.557532  0  4.180101  0
C  C97  1  0.37100616  0.17987914  0.29504825  1  0  0.629808  0  3.867715  0  0  0.579437  0  4.176646  0  0  0.611628  0  4.170849  0  0  0.201891  0.557499  0  4.180101  0
C  C98  1  0.78809317  0.86052159  0.76508861  1  0  0.062821  0  3.587005  0  0  0.049146  0  3.829648  0  0  0.047938  0  3.842792  0  0  -0.002362  0.049917  0  3.820817  0
C  C99  1  0.21191536  0.13948604  0.26508897  1  0  0.062663  0  3.587198  0  0  0.049038  0  3.829817  0  0  0.047855  0  3.842946  0  0  -0.002333  0.04981  0  3.820979  0
C  C100  1  0.83597366  0.79758722  0.66968699  1  0  -0.186161  0  3.701131  0  0  -0.239506  0  3.958014  0  0  -0.239822  0  3.970279  0  0  -0.158041  -0.239113  0  3.94962  0
C  C101  1  0.16402792  0.20243183  0.16969252  1  0  -0.185827  0  3.700886  0  0  -0.239229  0  3.957813  0  0  -0.239543  0  3.970099  0  0  -0.157852  -0.238833  0  3.949421  0
C  C102  1  0.80602097  0.66462389  0.66520218  1  0  0.069726  0  3.74942  0  0  0.086879  0  3.994638  0  0  0.086083  0  4.018266  0  0  -0.022836  0.087847  0  3.979527  0
C  C103  1  0.19397268  0.33538638  0.16522013  1  0  0.069876  0  3.749187  0  0  0.086825  0  3.994714  0  0  0.086031  0  4.018342  0  0  -0.022942  0.087807  0  3.979586  0
C  C104  1  0.74106298  0.61014060  0.57750653  1  0  -0.107103  0  3.769149  0  0  -0.126737  0  4.0217  0  0  -0.127019  0  4.041593  0  0  -0.093463  -0.128073  0  4.009658  0
C  C105  1  0.25892353  0.38988117  0.07752105  1  0  -0.107222  0  3.768549  0  0  -0.126781  0  4.02118  0  0  -0.127063  0  4.041063  0  0  -0.093566  -0.128119  0  4.009134  0
C  C106  1  0.71982590  0.48837411  0.56479560  1  0  -0.177367  0  3.730022  0  0  -0.19635  0  3.977653  0  0  -0.201323  0  3.998116  0  0  -0.101802  -0.19222  0  3.963231  0
C  C107  1  0.28015346  0.51164760  0.06481796  1  0  -0.176855  0  3.730147  0  0  -0.195863  0  3.977697  0  0  -0.200835  0  3.998164  0  0  -0.101646  -0.191733  0  3.963269  0
C  C108  1  0.76227982  0.41637850  0.64208435  1  0  0.310808  0  3.84334  0  0  0.304736  0  4.106852  0  0  0.314589  0  4.123025  0  0  0.073021  0.298029  0  4.095931  0
C  C109  1  0.23769486  0.58364142  0.14211113  1  0  0.310532  0  3.843888  0  0  0.3045  0  4.107324  0  0  0.314359  0  4.123492  0  0  0.073159  0.297795  0  4.096399  0
C  C110  1  0.82384804  0.46794712  0.73141101  1  0  -0.214626  0  3.79036  0  0  -0.232975  0  4.043211  0  0  -0.238502  0  4.06441  0  0  -0.110548  -0.22931  0  4.030206  0
C  C111  1  0.17613685  0.53206657  0.23143892  1  0  -0.214429  0  3.790015  0  0  -0.232731  0  4.042881  0  0  -0.238255  0  4.064075  0  0  -0.110573  -0.229071  0  4.029886  0
C  C112  1  0.84644935  0.59019945  0.74187671  1  0  -0.090137  0  3.74055  0  0  -0.109234  0  3.989991  0  0  -0.109576  0  4.010122  0  0  -0.093716  -0.110376  0  3.97822  0
C  C113  1  0.15354802  0.40980806  0.24189603  1  0  -0.090142  0  3.740762  0  0  -0.109216  0  3.990248  0  0  -0.10956  0  4.010386  0  0  -0.093685  -0.110366  0  3.978481  0
N  N114  1  0.76111776  0.04153388  0.99018811  1  0  -0.313951  0  3.262054  0  0  -0.240228  0  3.525931  0  0  -0.257051  0  3.544128  0  0  -0.322102  -0.228778  0  3.513285  0
N  N115  1  0.23888075  0.95846032  0.49018824  1  0  -0.313901  0  3.261954  0  0  -0.240255  0  3.525899  0  0  -0.257065  0  3.54409  0  0  -0.322195  -0.228808  0  3.513237  0
N  N116  1  0.76944220  0.65757927  0.00524531  1  0  -0.326589  0  3.261773  0  0  -0.252195  0  3.523073  0  0  -0.26846  0  3.540893  0  0  -0.323607  -0.241293  0  3.511146  0
N  N117  1  0.23056290  0.34241601  0.50524541  1  0  -0.326617  0  3.26179  0  0  -0.252211  0  3.523111  0  0  -0.268468  0  3.540915  0  0  -0.323604  -0.24131  0  3.511199  0
N  N118  1  0.63715265  0.83783033  0.12908205  1  0  -0.62537  0  3.122471  0  0  -0.585829  0  3.372287  0  0  -0.601858  0  3.370601  0  0  -0.619189  -0.574556  0  3.373165  0
N  N119  1  0.36284840  0.16216803  0.62908367  1  0  -0.625162  0  3.122375  0  0  -0.585601  0  3.372283  0  0  -0.601632  0  3.370605  0  0  -0.619137  -0.574325  0  3.373155  0
N  N120  1  0.88956001  0.86210056  0.85277148  1  0  -0.634583  0  3.077156  0  0  -0.592816  0  3.324371  0  0  -0.609655  0  3.320941  0  0  -0.62103  -0.581044  0  3.326015  0
N  N121  1  0.11044142  0.13789395  0.35277178  1  0  -0.634615  0  3.077337  0  0  -0.592879  0  3.3246  0  0  -0.609708  0  3.321153  0  0  -0.621078  -0.581106  0  3.326245  0
O  O122  1  0.93242639  0.87525872  0.10547507  1  0  -0.640935  0  2.011689  0  0  -0.582082  0  2.26821  0  0  -0.607927  0  2.255487  0  0  -0.341575  -0.563881  0  2.276123  0
O  O123  1  0.06758081  0.12474022  0.60548063  1  0  -0.641159  0  2.011505  0  0  -0.582282  0  2.268019  0  0  -0.608137  0  2.255303  0  0  -0.341814  -0.564082  0  2.275931  0
O  O124  1  0.97275191  0.91630522  0.27201029  1  0  -0.646522  0  1.943048  0  0  -0.608467  0  2.178394  0  0  -0.631652  0  2.168631  0  0  -0.343631  -0.592433  0  2.184234  0
O  O125  1  0.02725317  0.08368489  0.77201371  1  0  -0.646468  0  1.943292  0  0  -0.608358  0  2.178625  0  0  -0.631541  0  2.168865  0  0  -0.343561  -0.592324  0  2.184461  0
O  O126  1  0.70817304  0.32869219  0.26376394  1  0  -0.540384  0  2.079791  0  0  -0.493038  0  2.281252  0  0  -0.511897  0  2.270368  0  0  -0.372312  -0.47911  0  2.287389  0
O  O127  1  0.29183819  0.67129512  0.76376582  1  0  -0.540375  0  2.07971  0  0  -0.493052  0  2.281144  0  0  -0.511912  0  2.270257  0  0  -0.37233  -0.479125  0  2.287281  0
O  O128  1  0.59445885  0.81707870  0.88932111  1  0  -0.626797  0  2.032194  0  0  -0.567734  0  2.286726  0  0  -0.592875  0  2.274309  0  0  -0.334002  -0.550495  0  2.294825  0
O  O129  1  0.40553899  0.18291357  0.38932214  1  0  -0.626846  0  2.03181  0  0  -0.567765  0  2.286357  0  0  -0.592905  0  2.273939  0  0  -0.33395  -0.550538  0  2.294463  0
O  O130  1  0.54091325  0.79627968  0.72195645  1  0  -0.623736  0  1.97097  0  0  -0.577422  0  2.196523  0  0  -0.601849  0  2.188609  0  0  -0.327352  -0.560531  0  2.20158  0
O  O131  1  0.45908937  0.20371258  0.22195462  1  0  -0.623577  0  1.971096  0  0  -0.57727  0  2.196688  0  0  -0.601693  0  2.188772  0  0  -0.327329  -0.560385  0  2.20174  0
O  O132  1  0.74061453  0.29643477  0.62664539  1  0  -0.516005  0  2.040024  0  0  -0.472674  0  2.231753  0  0  -0.487518  0  2.220373  0  0  -0.361037  -0.461971  0  2.238745  0
O  O133  1  0.25935193  0.70357891  0.12668534  1  0  -0.51552  0  2.040578  0  0  -0.472203  0  2.232337  0  0  -0.48705  0  2.220953  0  0  -0.361031  -0.4615  0  2.239326  0
