# generated using pymatgen
data_ZnH14C18I2(N2O)2
_symmetry_space_group_name_H-M   'P 1'
_cell_length_a   6.69008125
_cell_length_b   12.37553529
_cell_length_c   13.47147631
_cell_angle_alpha   114.44489804
_cell_angle_beta   90.00016889
_cell_angle_gamma   89.99981250
_symmetry_Int_Tables_number   1
_chemical_formula_structural   ZnH14C18I2(N2O)2
_chemical_formula_sum   'Zn2 H28 C36 I4 N8 O4'
_cell_volume   1015.36826203
_cell_formula_units_Z   2
loop_
 _symmetry_equiv_pos_site_id
 _symmetry_equiv_pos_as_xyz
  1  'x, y, z'
loop_
 _atom_site_type_symbol
 _atom_site_label
 _atom_site_symmetry_multiplicity
 _atom_site_fract_x
 _atom_site_fract_y
 _atom_site_fract_z
 _atom_site_occupancy
 _atom_site_hle17_bader_spin_density
 _atom_site_hle17_ddec_charge
 _atom_site_hle17_ddec_spin_density
 _atom_site_hle17_ddec_sum_bond_order
 _atom_site_hle17_magmom
 _atom_site_hse06_10hf_bader_spin_density
 _atom_site_hse06_10hf_ddec_charge
 _atom_site_hse06_10hf_ddec_spin_density
 _atom_site_hse06_10hf_ddec_sum_bond_order
 _atom_site_hse06_10hf_magmom
 _atom_site_hse06_bader_spin_density
 _atom_site_hse06_ddec_charge
 _atom_site_hse06_ddec_spin_density
 _atom_site_hse06_ddec_sum_bond_order
 _atom_site_hse06_magmom
 _atom_site_pbe_bader_spin_density
 _atom_site_pbe_cm5_charge
 _atom_site_pbe_ddec_charge
 _atom_site_pbe_ddec_spin_density
 _atom_site_pbe_ddec_sum_bond_order
 _atom_site_pbe_magmom
Zn  Zn0  1  0.60585589  0.49999880  0.74999840  1  0  0.631317  0  2.321938  0  0  0.471947  0  2.784544  0  0  0.512612  0  2.745679  0  0  0.44343  0.444526  0  2.810201  0
Zn  Zn1  1  0.39414691  0.50000041  0.25000061  1  0  0.631203  0  2.322063  0  0  0.47184  0  2.784669  0  0  0.51251  0  2.745806  0  0  0.443395  0.444427  0  2.810314  0
H  H2  1  0.55200915  0.84943575  0.65818036  1  0  0.2942  0  0.876448  0  0  0.286063  0  0.926329  0  0  0.291952  0  0.922617  0  0  0.323572  0.281876  0  0.92906  0
H  H3  1  0.55200438  0.15056637  0.84182179  1  0  0.294193  0  0.876602  0  0  0.286058  0  0.926463  0  0  0.291945  0  0.922752  0  0  0.323549  0.281872  0  0.929187  0
H  H4  1  0.44799813  0.15056258  0.34181980  1  0  0.294181  0  0.876664  0  0  0.286073  0  0.926479  0  0  0.291962  0  0.922766  0  0  0.323612  0.281885  0  0.929202  0
H  H5  1  0.44799991  0.84943462  0.15817789  1  0  0.294159  0  0.876714  0  0  0.286058  0  0.926525  0  0  0.291943  0  0.922813  0  0  0.323588  0.281875  0  0.929239  0
H  H6  1  0.48771152  0.65816537  0.64205791  1  0  0.069014  0  0.998248  0  0  0.070378  0  1.078792  0  0  0.074066  0  1.074739  0  0  0.095429  0.06767  0  1.081694  0
H  H7  1  0.48770717  0.34183506  0.85794128  1  0  0.069015  0  0.998274  0  0  0.070376  0  1.078818  0  0  0.074063  0  1.074767  0  0  0.095432  0.067668  0  1.081721  0
H  H8  1  0.51229129  0.34183207  0.35794043  1  0  0.068971  0  0.998205  0  0  0.07037  0  1.078723  0  0  0.074057  0  1.07467  0  0  0.095436  0.067665  0  1.081617  0
H  H9  1  0.51228966  0.65816948  0.14205975  1  0  0.068991  0  0.99823  0  0  0.0704  0  1.078726  0  0  0.074089  0  1.074671  0  0  0.095444  0.067691  0  1.081624  0
H  H10  1  0.29955034  0.62160698  0.91951229  1  0  0.080132  0  0.944344  0  0  0.083245  0  1.019198  0  0  0.086659  0  1.015259  0  0  0.105959  0.080604  0  1.022248  0
H  H11  1  0.29955005  0.37839193  0.58048531  1  0  0.080102  0  0.94431  0  0  0.083233  0  1.019166  0  0  0.086649  0  1.015225  0  0  0.105932  0.08059  0  1.022214  0
H  H12  1  0.70045994  0.37839579  0.08049029  1  0  0.080134  0  0.944352  0  0  0.083268  0  1.019194  0  0  0.086687  0  1.015246  0  0  0.105946  0.080627  0  1.022247  0
H  H13  1  0.70045575  0.62160551  0.41951154  1  0  0.080165  0  0.944324  0  0  0.0833  0  1.019163  0  0  0.086717  0  1.015219  0  0  0.105966  0.08066  0  1.022217  0
H  H14  1  0.05845574  0.78959724  0.96781839  1  0  0.116454  0  0.976515  0  0  0.124509  0  1.037704  0  0  0.128283  0  1.035885  0  0  0.104618  0.121768  0  1.039259  0
H  H15  1  0.05846216  0.21040287  0.53217933  1  0  0.116456  0  0.976603  0  0  0.124532  0  1.037769  0  0  0.128315  0  1.035933  0  0  0.104577  0.121789  0  1.039324  0
H  H16  1  0.94154706  0.21040730  0.03218412  1  0  0.116455  0  0.976538  0  0  0.124506  0  1.037732  0  0  0.128286  0  1.035901  0  0  0.104611  0.121767  0  1.039291  0
H  H17  1  0.94154513  0.78959279  0.46781908  1  0  0.116487  0  0.976447  0  0  0.124537  0  1.03765  0  0  0.128322  0  1.035806  0  0  0.104621  0.121794  0  1.039214  0
H  H18  1  0.03462124  0.89704266  0.84302049  1  0  0.105216  0  0.947191  0  0  0.114552  0  1.010747  0  0  0.117705  0  1.007796  0  0  0.110428  0.112219  0  1.012896  0
H  H19  1  0.03462161  0.10295749  0.65697647  1  0  0.105124  0  0.947206  0  0  0.114445  0  1.01079  0  0  0.117601  0  1.007842  0  0  0.110403  0.112112  0  1.012939  0
H  H20  1  0.96538007  0.10295566  0.15697670  1  0  0.105197  0  0.947193  0  0  0.114534  0  1.010751  0  0  0.117688  0  1.007798  0  0  0.110427  0.112199  0  1.012899  0
H  H21  1  0.96538120  0.89704085  0.34302444  1  0  0.105191  0  0.947183  0  0  0.114535  0  1.010741  0  0  0.117689  0  1.007789  0  0  0.110429  0.112198  0  1.012891  0
H  H22  1  0.21968518  0.85564795  0.44950160  1  0  0.109159  0  0.972455  0  0  0.118929  0  1.034186  0  0  0.121441  0  1.033092  0  0  0.106783  0.117094  0  1.035061  0
H  H23  1  0.21967567  0.14435221  0.05049763  1  0  0.109091  0  0.972475  0  0  0.118909  0  1.034145  0  0  0.121428  0  1.033035  0  0  0.106784  0.117068  0  1.035041  0
H  H24  1  0.78031613  0.14435037  0.55049633  1  0  0.10915  0  0.972296  0  0  0.118906  0  1.034061  0  0  0.121421  0  1.032959  0  0  0.106773  0.117071  0  1.034934  0
H  H25  1  0.78031667  0.85565144  0.94950231  1  0  0.109093  0  0.972194  0  0  0.118874  0  1.033934  0  0  0.121394  0  1.032822  0  0  0.106772  0.117036  0  1.03482  0
H  H26  1  0.72177494  0.02261567  0.65537475  1  0  0.10442  0  0.944988  0  0  0.116626  0  1.004526  0  0  0.120041  0  1.001917  0  0  0.105428  0.114084  0  1.006608  0
H  H27  1  0.72176960  0.97738978  0.84462741  1  0  0.104381  0  0.945105  0  0  0.116573  0  1.004648  0  0  0.119995  0  1.002029  0  0  0.105406  0.114031  0  1.006729  0
H  H28  1  0.27822637  0.97738177  0.34462433  1  0  0.104523  0  0.945001  0  0  0.116666  0  1.004602  0  0  0.120101  0  1.001968  0  0  0.105461  0.11412  0  1.006681  0
H  H29  1  0.27821975  0.02261653  0.15537280  1  0  0.104502  0  0.945083  0  0  0.116666  0  1.004669  0  0  0.120065  0  1.002078  0  0  0.105429  0.11412  0  1.006746  0
C  C30  1  0.25854528  0.78630165  0.73367590  1  0  -0.103503  0  3.768067  0  0  -0.079432  0  4.005092  0  0  -0.090578  0  4.028047  0  0  -0.009753  -0.072506  0  3.990017  0
C  C31  1  0.25853518  0.21369731  0.76632093  1  0  -0.103544  0  3.768065  0  0  -0.079476  0  4.005094  0  0  -0.090608  0  4.028012  0  0  -0.009821  -0.072546  0  3.990033  0
C  C32  1  0.74145603  0.21369402  0.26632326  1  0  -0.103531  0  3.768218  0  0  -0.079401  0  4.005247  0  0  -0.090552  0  4.028206  0  0  -0.009766  -0.072463  0  3.990138  0
C  C33  1  0.74145268  0.78630190  0.23367808  1  0  -0.103574  0  3.767926  0  0  -0.079448  0  4.004982  0  0  -0.090596  0  4.027938  0  0  -0.009795  -0.072521  0  3.98989  0
C  C34  1  0.39094300  0.69261420  0.71386246  1  0  0.101892  0  3.685082  0  0  0.061473  0  3.927889  0  0  0.069955  0  3.945032  0  0  0.041429  0.055416  0  3.917592  0
C  C35  1  0.39094440  0.30738725  0.78613846  1  0  0.101896  0  3.684884  0  0  0.061475  0  3.927693  0  0  0.069953  0  3.944829  0  0  0.041457  0.055417  0  3.917397  0
C  C36  1  0.60905980  0.30738412  0.28613473  1  0  0.101938  0  3.685081  0  0  0.061472  0  3.927883  0  0  0.069955  0  3.945027  0  0  0.041416  0.055395  0  3.917597  0
C  C37  1  0.60905691  0.69261641  0.21386520  1  0  0.101873  0  3.685105  0  0  0.061406  0  3.927908  0  0  0.069887  0  3.945052  0  0  0.041371  0.05533  0  3.917645  0
C  C38  1  0.28390598  0.67050564  0.86853365  1  0  0.151161  0  3.653581  0  0  0.113917  0  3.905464  0  0  0.123251  0  3.920921  0  0  0.052388  0.10792  0  3.895149  0
C  C39  1  0.28391228  0.32949329  0.63146617  1  0  0.151143  0  3.653691  0  0  0.113876  0  3.905561  0  0  0.123204  0  3.921025  0  0  0.052383  0.107885  0  3.895237  0
C  C40  1  0.71609832  0.32949712  0.13146671  1  0  0.151147  0  3.653458  0  0  0.113878  0  3.905324  0  0  0.12321  0  3.920782  0  0  0.052397  0.107878  0  3.895017  0
C  C41  1  0.71609202  0.67050593  0.36853581  1  0  0.151124  0  3.653415  0  0  0.113851  0  3.905299  0  0  0.123182  0  3.920759  0  0  0.052359  0.107854  0  3.894987  0
C  C42  1  0.14855316  0.76357340  0.89412456  1  0  -0.116986  0  3.719206  0  0  -0.126614  0  3.968543  0  0  -0.134619  0  3.988871  0  0  -0.081005  -0.121717  0  3.955206  0
C  C43  1  0.14855837  0.23642215  0.60586859  1  0  -0.117051  0  3.71922  0  0  -0.126695  0  3.968534  0  0  -0.134698  0  3.988865  0  0  -0.080973  -0.121799  0  3.955195  0
C  C44  1  0.85144965  0.23642493  0.10587560  1  0  -0.117045  0  3.719231  0  0  -0.126663  0  3.968552  0  0  -0.134668  0  3.988881  0  0  -0.081012  -0.121771  0  3.955226  0
C  C45  1  0.85144443  0.76357351  0.39412610  1  0  -0.117072  0  3.71928  0  0  -0.126692  0  3.968612  0  0  -0.134695  0  3.988942  0  0  -0.081017  -0.121801  0  3.955279  0
C  C46  1  0.13479509  0.82195580  0.82553354  1  0  0.000415  0  3.663716  0  0  -0.029081  0  3.908778  0  0  -0.02278  0  3.924732  0  0  -0.054477  -0.032856  0  3.89792  0
C  C47  1  0.13479959  0.17804600  0.67446789  1  0  0.000554  0  3.663832  0  0  -0.02893  0  3.908892  0  0  -0.022644  0  3.924858  0  0  -0.054467  -0.032702  0  3.898029  0
C  C48  1  0.86520473  0.17804341  0.17446472  1  0  0.000522  0  3.663734  0  0  -0.028992  0  3.908791  0  0  -0.022689  0  3.924744  0  0  -0.054442  -0.032769  0  3.897926  0
C  C49  1  0.86520621  0.82195501  0.32553774  1  0  0.000577  0  3.663582  0  0  -0.02894  0  3.908623  0  0  -0.022644  0  3.924589  0  0  -0.054409  -0.032709  0  3.897755  0
C  C50  1  0.24657939  0.84826649  0.65932771  1  0  0.557279  0  3.832744  0  0  0.508813  0  4.12611  0  0  0.539074  0  4.12398  0  0  0.240944  0.488413  0  4.127003  0
C  C51  1  0.24655517  0.15173428  0.84067795  1  0  0.557178  0  3.833666  0  0  0.508717  0  4.127015  0  0  0.538987  0  4.124846  0  0  0.240883  0.488286  0  4.127963  0
C  C52  1  0.75341594  0.15173271  0.34066684  1  0  0.557179  0  3.832488  0  0  0.508594  0  4.126037  0  0  0.538861  0  4.123906  0  0  0.24081  0.4882  0  4.126893  0
C  C53  1  0.75343418  0.84826673  0.15932916  1  0  0.557218  0  3.832847  0  0  0.508641  0  4.126391  0  0  0.538894  0  4.124256  0  0  0.240869  0.488248  0  4.127266  0
C  C54  1  0.46370922  0.93316393  0.56030268  1  0  0.237848  0  3.809056  0  0  0.232073  0  4.060268  0  0  0.237915  0  4.083405  0  0  0.088426  0.228012  0  4.044545  0
C  C55  1  0.46369958  0.06684098  0.93970114  1  0  0.237844  0  3.808985  0  0  0.231974  0  4.060313  0  0  0.237809  0  4.083462  0  0  0.08838  0.227918  0  4.044586  0
C  C56  1  0.53629657  0.06683440  0.43969748  1  0  0.237837  0  3.809004  0  0  0.232056  0  4.060202  0  0  0.237896  0  4.083349  0  0  0.08843  0.228001  0  4.044471  0
C  C57  1  0.53630172  0.93316445  0.06029874  1  0  0.237847  0  3.80897  0  0  0.232015  0  4.060266  0  0  0.237846  0  4.083406  0  0  0.088423  0.227961  0  4.044537  0
C  C58  1  0.34029644  0.91993223  0.47208548  1  0  -0.127838  0  3.726265  0  0  -0.147081  0  3.973772  0  0  -0.150213  0  3.995281  0  0  -0.088692  -0.144891  0  3.95921  0
C  C59  1  0.34029466  0.08006866  0.02791272  1  0  -0.127914  0  3.72643  0  0  -0.147155  0  3.973967  0  0  -0.150285  0  3.99547  0  0  -0.08876  -0.144965  0  3.9594  0
C  C60  1  0.65969441  0.08006078  0.52791118  1  0  -0.127863  0  3.726565  0  0  -0.147105  0  3.974092  0  0  -0.150234  0  3.995597  0  0  -0.088721  -0.144917  0  3.959529  0
C  C61  1  0.65969020  0.91994298  0.97209025  1  0  -0.127814  0  3.726696  0  0  -0.147057  0  3.974244  0  0  -0.150189  0  3.995761  0  0  -0.088705  -0.144868  0  3.95968  0
C  C62  1  0.62392841  0.01316044  0.58738269  1  0  -0.156292  0  3.748917  0  0  -0.176255  0  4.002975  0  0  -0.180387  0  4.024497  0  0  -0.094506  -0.17327  0  3.988299  0
C  C63  1  0.62392792  0.98684247  0.91261763  1  0  -0.156273  0  3.748964  0  0  -0.176189  0  4.003023  0  0  -0.180328  0  4.024546  0  0  -0.094488  -0.173202  0  3.988343  0
C  C64  1  0.37607140  0.98683699  0.41261045  1  0  -0.156348  0  3.748644  0  0  -0.17627  0  4.002737  0  0  -0.180414  0  4.024247  0  0  -0.09452  -0.173282  0  3.988049  0
C  C65  1  0.37606143  0.01316119  0.08738826  1  0  -0.156309  0  3.748535  0  0  -0.176228  0  4.002633  0  0  -0.180346  0  4.024158  0  0  -0.094507  -0.173238  0  3.987944  0
I  I66  1  0.79051689  0.46704928  0.57536629  1  0  -0.462053  0  1.165858  0  0  -0.409823  0  1.506615  0  0  -0.428093  0  1.483088  0  0  -0.244369  -0.396138  0  1.522402  0
I  I67  1  0.79051626  0.53294897  0.92463176  1  0  -0.462053  0  1.165821  0  0  -0.409824  0  1.506571  0  0  -0.428092  0  1.483044  0  0  -0.244369  -0.396132  0  1.522358  0
I  I68  1  0.20947993  0.53295082  0.42463157  1  0  -0.462039  0  1.165875  0  0  -0.409809  0  1.506628  0  0  -0.428081  0  1.483102  0  0  -0.244356  -0.396114  0  1.522402  0
I  I69  1  0.20947608  0.46704759  0.07536921  1  0  -0.462044  0  1.16585  0  0  -0.409817  0  1.506595  0  0  -0.428088  0  1.483069  0  0  -0.244362  -0.396122  0  1.522372  0
N  N70  1  0.42974739  0.86792329  0.62320149  1  0  -0.45443  0  3.33624  0  0  -0.405177  0  3.580944  0  0  -0.426598  0  3.590171  0  0  -0.39955  -0.390366  0  3.574165  0
N  N71  1  0.42974594  0.13208255  0.87680115  1  0  -0.454462  0  3.336013  0  0  -0.405165  0  3.580707  0  0  -0.426584  0  3.589922  0  0  -0.399484  -0.390338  0  3.573936  0
N  N72  1  0.57024644  0.13207414  0.37679388  1  0  -0.454313  0  3.336039  0  0  -0.405027  0  3.580742  0  0  -0.426447  0  3.589972  0  0  -0.399504  -0.390225  0  3.573956  0
N  N73  1  0.57024341  0.86792378  0.12320575  1  0  -0.454388  0  3.335908  0  0  -0.40509  0  3.580623  0  0  -0.426489  0  3.589835  0  0  -0.399506  -0.39028  0  3.573835  0
N  N74  1  0.40291334  0.63644159  0.78029075  1  0  -0.285065  0  3.335026  0  0  -0.194008  0  3.594321  0  0  -0.214265  0  3.612208  0  0  -0.331919  -0.180503  0  3.582057  0
N  N75  1  0.40291249  0.36355629  0.71970512  1  0  -0.285061  0  3.335176  0  0  -0.194003  0  3.594473  0  0  -0.21426  0  3.612364  0  0  -0.33194  -0.180502  0  3.582208  0
N  N76  1  0.59708947  0.36355763  0.21970975  1  0  -0.284992  0  3.334942  0  0  -0.193946  0  3.594269  0  0  -0.214204  0  3.612159  0  0  -0.331913  -0.180441  0  3.582008  0
N  N77  1  0.59708583  0.63644292  0.28029091  1  0  -0.285053  0  3.334841  0  0  -0.193993  0  3.594163  0  0  -0.214252  0  3.612055  0  0  -0.331934  -0.180487  0  3.581895  0
O  O78  1  0.08558117  0.88139187  0.63605211  1  0  -0.53666  0  1.908922  0  0  -0.499037  0  2.12975  0  0  -0.519081  0  2.123154  0  0  -0.292813  -0.485045  0  2.133915  0
O  O79  1  0.08559616  0.11861264  0.86394434  1  0  -0.536361  0  1.910154  0  0  -0.498778  0  2.131019  0  0  -0.518827  0  2.124415  0  0  -0.292648  -0.48478  0  2.135203  0
O  O80  1  0.91443210  0.11860202  0.36394712  1  0  -0.536722  0  1.908679  0  0  -0.499049  0  2.129526  0  0  -0.519104  0  2.122936  0  0  -0.292789  -0.485066  0  2.133679  0
O  O81  1  0.91441710  0.88139013  0.13605972  1  0  -0.536494  0  1.909324  0  0  -0.498889  0  2.130274  0  0  -0.51893  0  2.123675  0  0  -0.292716  -0.484907  0  2.134434  0
