# generated using pymatgen
data_CuH18C18N2O3
_symmetry_space_group_name_H-M   'P 1'
_cell_length_a   5.42717807
_cell_length_b   9.09432611
_cell_length_c   15.82469998
_cell_angle_alpha   90.00024957
_cell_angle_beta   95.85769817
_cell_angle_gamma   90.00109408
_symmetry_Int_Tables_number   1
_chemical_formula_structural   CuH18C18N2O3
_chemical_formula_sum   'Cu2 H36 C36 N4 O6'
_cell_volume   776.97392360
_cell_formula_units_Z   2
loop_
 _symmetry_equiv_pos_site_id
 _symmetry_equiv_pos_as_xyz
  1  'x, y, z'
loop_
 _atom_site_type_symbol
 _atom_site_label
 _atom_site_symmetry_multiplicity
 _atom_site_fract_x
 _atom_site_fract_y
 _atom_site_fract_z
 _atom_site_occupancy
 _atom_site_hle17_ddec_charge
 _atom_site_hle17_ddec_spin_density
 _atom_site_hle17_ddec_sum_bond_order
 _atom_site_hle17_magmom
 _atom_site_hse06_10hf_ddec_charge
 _atom_site_hse06_10hf_ddec_spin_density
 _atom_site_hse06_10hf_ddec_sum_bond_order
 _atom_site_hse06_10hf_magmom
 _atom_site_hse06_ddec_charge
 _atom_site_hse06_ddec_spin_density
 _atom_site_hse06_ddec_sum_bond_order
 _atom_site_hse06_magmom
 _atom_site_pbe_cm5_charge
 _atom_site_pbe_ddec_charge
 _atom_site_pbe_ddec_spin_density
 _atom_site_pbe_ddec_sum_bond_order
 _atom_site_pbe_magmom
Cu  Cu0  1  0.91770980  0.37376896  0.91770619  1  0.857406  -0.682156  1.79686  -0.48  0.836824  -0.778817  2.202506  -0.6  0.928154  -0.856502  2.129545  -0.683  0.731725  0.778266  -0.720745  2.25657  -0.544
Cu  Cu1  1  0.08226140  0.87377761  0.08228690  1  0.85731  0.682172  1.796645  0.48  0.836962  0.778841  2.20217  0.6  0.928185  0.856506  2.129284  0.683  0.73174  0.778311  0.720728  2.25624  0.544
H  H2  1  0.85059450  0.62101350  0.83355189  1  0.291537  -0.000218  0.924191  0.001  0.282329  -0.000935  0.98504  0.0  0.287882  -0.000533  0.983183  0.0  0.292302  0.278565  -0.00113  0.986618  -0.001
H  H3  1  0.14937312  0.12101459  0.16645763  1  0.291551  0.00022  0.92413  -0.001  0.282306  0.000936  0.985016  0.0  0.287861  0.000534  0.983151  0.0  0.292251  0.278538  0.001131  0.986596  0.001
H  H4  1  0.88854106  0.47082808  0.77601606  1  0.29825  0.000964  0.900546  0.002  0.289213  -0.000167  0.960632  0.001  0.295756  0.000162  0.957207  0.001  0.295014  0.284466  -0.00048  0.963407  0.0
H  H5  1  0.11143178  0.97081094  0.22398161  1  0.298193  -0.000964  0.90057  -0.002  0.289119  0.000166  0.960688  -0.001  0.295661  -0.000162  0.957263  -0.001  0.294911  0.284366  0.00048  0.963459  0.0
H  H6  1  0.41498617  0.17605750  0.97652649  1  0.087047  -0.000875  0.903476  -0.001  0.097855  -0.00074  0.963136  -0.001  0.098582  -0.000598  0.962492  -0.001  0.117618  0.097347  -0.000784  0.963911  -0.001
H  H7  1  0.58501500  0.67606010  0.02347851  1  0.086983  0.000877  0.903333  0.001  0.097867  0.000739  0.962934  0.001  0.098591  0.000598  0.962285  0.001  0.117623  0.097354  0.000784  0.96372  0.001
H  H8  1  0.41546156  0.92844998  0.92449009  1  0.08907  -0.001006  0.932428  -0.001  0.100232  -0.000681  1.004894  -0.001  0.100998  -0.000521  1.003577  -0.001  0.094739  0.099306  -0.000847  1.00633  -0.001
H  H9  1  0.58450543  0.42845599  0.07551019  1  0.089004  0.001006  0.932299  0.001  0.100157  0.00068  1.004801  0.001  0.100923  0.000521  1.00349  0.001  0.094648  0.099229  0.000847  1.006239  0.001
H  H10  1  0.25959474  0.05243307  0.85016103  1  0.099311  0.000141  0.958995  0.0  0.11232  -2.7e-05  1.024657  0.0  0.114045  -6e-06  1.02474  0.0  0.096815  0.110872  -6.4e-05  1.024809  0.0
H  H11  1  0.74038579  0.55243696  0.14983716  1  0.099242  -0.000141  0.95906  0.0  0.112225  2.6e-05  1.024755  0.0  0.113951  6e-06  1.024843  0.0  0.09679  0.110776  6.4e-05  1.02491  0.0
H  H12  1  0.87393519  0.85870798  0.89812923  1  0.101468  -0.000147  0.999962  0.0  0.108615  -0.000133  1.066782  0.0  0.111152  -0.00013  1.066004  0.0  0.097114  0.106622  -0.000106  1.067732  0.0
H  H13  1  0.12605546  0.35868132  0.10187707  1  0.101557  0.000147  0.99985  0.0  0.108662  0.000134  1.06669  0.0  0.111196  0.00013  1.065909  0.0  0.097212  0.106677  0.000106  1.067615  0.0
H  H14  1  0.14224611  0.78959724  0.78707875  1  0.079148  1e-05  0.963147  0.0  0.092357  -2e-06  1.022738  0.0  0.094291  3e-06  1.022714  0.0  0.097124  0.091061  -8e-06  1.0227  0.0
H  H15  1  0.85774965  0.28956302  0.21293246  1  0.079398  -7e-06  0.96297  0.0  0.092521  1e-06  1.022682  0.0  0.094398  -3e-06  1.022731  0.0  0.097157  0.091247  8e-06  1.022619  0.0
H  H16  1  0.01456146  0.84930786  0.63557348  1  0.076105  5.9e-05  0.980169  0.0  0.08858  -1.4e-05  1.041698  0.0  0.090957  -6e-06  1.040794  0.0  0.09481  0.086861  -5e-06  1.042452  0.0
H  H17  1  0.98546061  0.34927522  0.36443428  1  0.076137  -5.9e-05  0.98024  0.0  0.088589  1.3e-05  1.041801  0.0  0.090957  6e-06  1.040898  0.0  0.094876  0.086885  5e-06  1.042545  0.0
H  H18  1  0.61184435  0.97400132  0.59588511  1  0.077031  -7e-06  0.988147  0.0  0.087826  1.2e-05  1.051122  0.0  0.089773  7e-06  1.051605  0.0  0.093204  0.086506  6e-06  1.050695  0.0
H  H19  1  0.38817739  0.47398562  0.40412197  1  0.077045  7e-06  0.988045  0.0  0.087792  -1.2e-05  1.051075  0.0  0.08974  -7e-06  1.051559  0.0  0.0932  0.086473  -6e-06  1.050642  0.0
H  H20  1  0.35321175  0.05537307  0.70856143  1  0.095212  0.000116  0.957138  0.0  0.108296  4e-06  1.015453  0.0  0.11111  4e-06  1.014643  0.0  0.101118  0.106201  1.4e-05  1.016154  0.0
H  H21  1  0.64679120  0.55536546  0.29143920  1  0.095142  -0.000114  0.957353  0.0  0.108272  -4e-06  1.015617  0.0  0.111079  -4e-06  1.014814  0.0  0.101124  0.106177  -1.4e-05  1.016308  0.0
H  H22  1  0.44666527  0.57994276  0.84934611  1  0.067978  0.000321  0.898718  0.0  0.084269  0.000263  0.951786  0.0  0.08488  0.000231  0.952129  0.0  0.116955  0.083559  0.000275  0.951664  0.0
H  H23  1  0.55328558  0.07993630  0.15064677  1  0.067783  -0.00032  0.898964  0.0  0.084231  -0.000264  0.951891  0.0  0.084837  -0.000231  0.952223  0.0  0.116932  0.0835  -0.000275  0.951794  0.0
H  H24  1  0.22788590  0.52788304  0.70863283  1  0.083314  -0.000982  0.960143  -0.001  0.09754  -0.000866  1.030542  -0.001  0.098894  -0.000585  1.029647  -0.001  0.095007  0.096374  -0.001103  1.031424  -0.001
H  H25  1  0.77212374  0.02787725  0.29134282  1  0.083302  0.000981  0.960263  0.001  0.097551  0.000865  1.030591  0.001  0.098895  0.000584  1.029714  0.001  0.09506  0.096418  0.001102  1.031443  0.001
H  H26  1  0.46143880  0.66477486  0.70724469  1  0.085031  0.000105  0.949034  0.0  0.098775  -0.000121  1.016808  0.0  0.099155  -0.000107  1.01862  0.0  0.09328  0.098883  -0.000127  1.014917  0.0
H  H27  1  0.53858333  0.16477043  0.29274824  1  0.085011  -0.000103  0.949116  0.0  0.098767  0.000121  1.016836  0.0  0.099145  0.000108  1.018641  0.0  0.093287  0.098874  0.000126  1.014951  0.0
H  H28  1  0.26813971  0.28987566  0.63884320  1  0.09841  2.5e-05  0.955507  0.0  0.110232  1.2e-05  1.014352  0.0  0.113287  9e-06  1.013317  0.0  0.102162  0.107878  1.2e-05  1.015293  0.0
H  H29  1  0.73185791  0.78986079  0.36114720  1  0.098515  -2.3e-05  0.955567  0.0  0.110352  -1.3e-05  1.014397  0.0  0.113405  -9e-06  1.013367  0.0  0.102268  0.107995  -1.2e-05  1.015334  0.0
H  H30  1  0.44605470  0.15647135  0.52200615  1  0.079271  7e-06  0.986768  0.0  0.091412  -9e-06  1.046437  0.0  0.093178  -7e-06  1.047115  0.0  0.094111  0.089823  -1.2e-05  1.04656  0.0
H  H31  1  0.55397052  0.65649217  0.47800208  1  0.079338  -7e-06  0.986762  0.0  0.091458  8e-06  1.046443  0.0  0.093226  7e-06  1.047118  0.0  0.094211  0.089874  1.2e-05  1.046572  0.0
H  H32  1  0.82764492  0.24788692  0.46594749  1  0.080681  -5e-06  0.964953  0.0  0.09447  -1e-06  1.022567  0.0  0.09684  -2e-06  1.02188  0.0  0.096504  0.092726  2e-06  1.023318  0.0
H  H33  1  0.17240991  0.74792357  0.53406920  1  0.080448  8e-06  0.964705  0.0  0.094165  -0.0  1.022465  0.0  0.096535  2e-06  1.021777  0.0  0.09643  0.092429  -2e-06  1.023209  0.0
H  H34  1  0.02288258  0.48150319  0.52255359  1  0.08405  1.4e-05  0.959539  0.0  0.09643  -4e-06  1.018218  0.0  0.098526  -1e-06  1.018377  0.0  0.098393  0.094793  -7e-06  1.018525  0.0
H  H35  1  0.97717745  0.98152279  0.47744682  1  0.084097  -1.6e-05  0.959364  0.0  0.096437  4e-06  1.018086  0.0  0.098551  1e-06  1.018221  0.0  0.098414  0.094797  7e-06  1.018398  0.0
H  H36  1  0.83310987  0.61935862  0.63536806  1  0.077681  -0.000136  1.002934  0.0  0.086115  -0.000181  1.07297  0.0  0.088311  -0.000135  1.072844  0.0  0.091269  0.08474  -0.000224  1.072837  0.0
H  H37  1  0.16694710  0.11935860  0.36462851  1  0.077737  0.000136  1.003115  0.0  0.08623  0.00018  1.073086  0.0  0.088429  0.000135  1.072958  0.0  0.091298  0.084853  0.000224  1.072957  0.0
C  C38  1  0.79170933  0.10654298  0.98773285  1  0.634677  -0.001051  3.805027  -0.002  0.59214  -0.001382  4.103675  -0.002  0.630189  -0.000948  4.096102  -0.001  0.217862  0.566324  -0.001626  4.107496  -0.002
C  C39  1  0.20827780  0.60654838  0.01226965  1  0.634737  0.001039  3.805155  0.002  0.592251  0.001394  4.103685  0.002  0.6303  0.000947  4.096106  0.001  0.2179  0.566435  0.001624  4.107502  0.002
C  C40  1  0.55330267  0.14845841  0.93208136  1  0.043838  0.00199  3.66109  0.005  0.036643  4.9e-05  3.897331  0.003  0.038473  0.000116  3.912847  0.003  0.007469  0.03559  0.000229  3.886895  0.003
C  C41  1  0.44666478  0.64846324  0.06792232  1  0.043843  -0.001994  3.661218  -0.005  0.036561  -4.5e-05  3.897515  -0.003  0.038402  -0.000113  3.913013  -0.003  0.007389  0.035504  -0.000227  3.887067  -0.003
C  C42  1  0.44187543  0.01735725  0.87908416  1  -0.196719  -0.003508  3.684734  -0.004  -0.246845  -0.001935  3.926542  -0.002  -0.247867  -0.001521  3.938939  -0.002  -0.162695  -0.245847  -0.002245  3.918056  -0.002
C  C43  1  0.55810114  0.51736025  0.12091602  1  -0.196485  0.003515  3.684465  0.004  -0.246552  0.00194  3.926261  0.002  -0.247584  0.001521  3.938673  0.002  -0.162551  -0.245559  0.002247  3.917776  0.002
C  C44  1  0.59669615  0.96504296  0.81130661  1  0.113009  0.001792  3.723323  0.002  0.135797  0.000551  3.957425  0.001  0.136391  0.000577  3.981943  0.001  -0.00879  0.135604  0.000299  3.939849  0.0
C  C45  1  0.40329215  0.46503721  0.18869970  1  0.113092  -0.001809  3.722982  -0.002  0.135861  -0.000551  3.957144  -0.001  0.136454  -0.000578  3.98167  -0.001  -0.008664  0.135668  -0.0003  3.939563  0.0
C  C46  1  0.81749285  0.88669202  0.83212447  1  -0.143974  -0.000556  3.729857  -0.001  -0.159389  -0.000208  3.966599  0.0  -0.16332  -0.000279  3.98834  0.0  -0.102414  -0.156937  -0.001091  3.951942  -0.001
C  C47  1  0.18248715  0.38668385  0.16788268  1  -0.144072  0.00058  3.729924  0.001  -0.159445  0.000206  3.96674  0.0  -0.163364  0.00028  3.988456  0.0  -0.102616  -0.157  0.001092  3.952088  0.001
C  C48  1  0.96684956  0.84579543  0.76936895  1  -0.080653  0.00022  3.819476  0.0  -0.090359  -8e-06  4.065535  0.0  -0.091197  0.000192  4.086286  0.0  -0.099138  -0.089705  -0.000345  4.051878  0.0
C  C49  1  0.03315003  0.34576348  0.23063573  1  -0.080793  -0.000249  3.819486  0.0  -0.090446  1e-05  4.065583  0.0  -0.091248  -0.000192  4.086342  0.0  -0.099069  -0.089809  0.000344  4.051923  0.0
C  C50  1  0.89529802  0.87884372  0.68427931  1  -0.092578  -0.003001  3.817461  -0.003  -0.105851  -0.001356  4.06339  -0.001  -0.108172  -0.001014  4.084273  -0.001  -0.102553  -0.104474  -0.000799  4.049357  -0.001
C  C51  1  0.10470191  0.37884104  0.31572458  1  -0.092798  0.003022  3.817406  0.003  -0.106077  0.001356  4.063386  0.001  -0.10838  0.001015  4.084242  0.001  -0.102722  -0.10472  0.000799  4.049374  0.001
C  C52  1  0.67169075  0.95147017  0.66234318  1  -0.073015  0.001453  3.801915  0.002  -0.084046  0.000287  4.047321  0.0  -0.085581  0.000372  4.069781  0.0  -0.097356  -0.082439  8.2e-05  4.031  0.0
C  C53  1  0.32831573  0.45145900  0.33766175  1  -0.072912  -0.001465  3.801904  -0.002  -0.083889  -0.000288  4.04735  0.0  -0.085416  -0.000372  4.069793  0.0  -0.097298  -0.082285  -8.2e-05  4.031031  0.0
C  C54  1  0.52544578  0.99569084  0.72546323  1  -0.117116  -0.00398  3.72379  -0.004  -0.138182  -0.001681  3.968074  -0.002  -0.141496  -0.001196  3.989878  -0.001  -0.090317  -0.135773  -0.001  3.952208  -0.001
C  C55  1  0.47455254  0.49568688  0.27454759  1  -0.117111  0.003989  3.723982  0.004  -0.138209  0.001682  3.968287  0.002  -0.141515  0.001197  3.990091  0.001  -0.090357  -0.1358  0.001  3.952413  0.001
C  C56  1  0.43704740  0.35109206  0.83426982  1  0.512601  0.007039  3.84656  0.007  0.479115  0.000838  4.143493  0.001  0.511502  0.001516  4.147036  0.002  0.214807  0.457196  0.000255  4.139724  0.001
C  C57  1  0.56292572  0.85108117  0.16572723  1  0.512283  -0.007026  3.846751  -0.007  0.478877  -0.00083  4.14366  -0.001  0.511241  -0.001515  4.147225  -0.002  0.214795  0.456976  -0.000253  4.139838  -0.001
C  C58  1  0.52685009  0.50239554  0.80603218  1  0.093458  0.003067  3.590887  0.005  0.078377  0.000366  3.836165  0.002  0.080256  0.000424  3.849313  0.002  0.005395  0.0777  0.000226  3.826957  0.002
C  C59  1  0.47312181  0.00238681  0.19395911  1  0.093903  -0.00307  3.590749  -0.005  0.0786  -0.000358  3.83608  -0.002  0.080506  -0.000427  3.849216  -0.002  0.005423  0.077932  -0.000228  3.826859  -0.002
C  C60  1  0.42911478  0.54620955  0.71470743  1  -0.199228  -0.00423  3.690954  -0.004  -0.250542  -0.003099  3.938881  -0.003  -0.251275  -0.002124  3.949953  -0.002  -0.161051  -0.249988  -0.003808  3.931002  -0.003
C  C61  1  0.57089783  0.04620107  0.28527831  1  -0.199417  0.004226  3.69146  0.004  -0.250679  0.003098  3.939224  0.003  -0.251407  0.002123  3.950309  0.002  -0.16121  -0.250161  0.003807  3.931325  0.003
C  C62  1  0.54110036  0.46249024  0.64593428  1  0.09696  0.000183  3.741427  0.0  0.123356  -0.00012  3.968029  0.0  0.123579  -0.000119  3.992344  0.0  -0.014859  0.123484  -0.000149  3.951065  0.0
C  C63  1  0.45891838  0.96249114  0.35406141  1  0.096912  -0.000164  3.741764  0.0  0.123402  0.000119  3.968168  0.0  0.123623  0.000118  3.992487  0.0  -0.014776  0.123533  0.000149  3.951196  0.0
C  C64  1  0.43385476  0.33134325  0.61335904  1  -0.119228  -7.9e-05  3.730866  0.0  -0.138567  0.000126  3.972418  0.0  -0.141912  0.000164  3.99433  0.0  -0.091319  -0.135955  7.2e-05  3.956857  0.0
C  C65  1  0.56616738  0.83135261  0.38663111  1  -0.119289  5.5e-05  3.730558  0.0  -0.138683  -0.000128  3.972124  0.0  -0.142023  -0.000163  3.99403  0.0  -0.091492  -0.13607  -7.3e-05  3.956555  0.0
C  C66  1  0.53509818  0.25603574  0.54838177  1  -0.065816  -0.000414  3.792074  0.0  -0.07732  -0.000358  4.039079  0.0  -0.078932  -0.000271  4.061561  0.0  -0.092694  -0.076296  -0.000379  4.023815  0.0
C  C67  1  0.46494261  0.75603874  0.45162125  1  -0.065975  0.000432  3.791496  0.0  -0.077476  0.000358  4.038542  0.0  -0.079089  0.000271  4.061016  0.0  -0.092745  -0.076468  0.000379  4.023295  0.0
C  C68  1  0.74841513  0.30848303  0.51611422  1  -0.083448  0.000155  3.790546  0.0  -0.098635  0.000104  4.041048  0.0  -0.101133  0.000123  4.062753  0.0  -0.095952  -0.096788  3.2e-05  4.026446  0.0
C  C69  1  0.25164700  0.80850302  0.48389285  1  -0.082994  -0.000181  3.790086  0.0  -0.098105  -0.000104  4.040546  0.0  -0.100602  -0.000123  4.062258  0.0  -0.095853  -0.096263  -3.2e-05  4.025954  0.0
C  C70  1  0.85782813  0.43864369  0.54796097  1  -0.073054  -0.000567  3.808322  -0.001  -0.085525  -0.00035  4.058142  0.0  -0.087102  -0.000257  4.079481  0.0  -0.094662  -0.084667  -0.000376  4.044082  0.0
C  C71  1  0.14221691  0.93864972  0.45204308  1  -0.073147  0.000592  3.808  0.001  -0.085598  0.000349  4.057835  0.0  -0.087188  0.000257  4.079167  0.0  -0.094705  -0.084739  0.000376  4.043779  0.0
C  C72  1  0.75353061  0.51503865  0.61217935  1  -0.147004  0.000124  3.770047  0.0  -0.162367  -9e-05  4.010713  0.0  -0.164896  -2.1e-05  4.031138  0.0  -0.102878  -0.160392  -0.000256  3.996579  0.0
C  C73  1  0.24649581  0.01504739  0.38782080  1  -0.147121  -0.000141  3.7702  0.0  -0.162586  9e-05  4.010804  0.0  -0.165122  2.2e-05  4.031241  0.0  -0.102948  -0.160612  0.000256  3.996662  0.0
N  N74  1  0.60739930  0.27850516  0.88431509  1  -0.520768  -0.130803  3.253638  -0.16  -0.501218  -0.082101  3.591133  -0.106  -0.547801  -0.067468  3.611072  -0.092  -0.429132  -0.473272  -0.088646  3.579827  -0.111
N  N75  1  0.39255077  0.77849953  0.11568241  1  -0.52071  0.13076  3.253777  0.16  -0.501218  0.082073  3.591262  0.106  -0.54776  0.067453  3.611189  0.092  -0.429153  -0.473256  0.088635  3.579906  0.111
N  N76  1  0.79754585  0.51385485  0.82421993  1  -0.6072  -0.099691  3.180105  -0.121  -0.593916  -0.072933  3.452863  -0.093  -0.625428  -0.060131  3.454619  -0.081  -0.635378  -0.575288  -0.078929  3.453723  -0.096
N  N77  1  0.20241368  0.01385279  0.17577605  1  -0.607295  0.099682  3.180065  0.121  -0.593926  0.072919  3.452924  0.093  -0.625413  0.060127  3.454654  0.081  -0.635182  -0.57527  0.078928  3.453745  0.096
O  O78  1  0.79533699  0.98262018  0.02488434  1  -0.597882  0.025877  2.138751  0.034  -0.555153  0.021139  2.424064  0.03  -0.593042  0.019302  2.411775  0.028  -0.320568  -0.528841  0.021323  2.43239  0.029
O  O79  1  0.20461949  0.48262806  0.97511476  1  -0.598297  -0.025842  2.139268  -0.034  -0.555333  -0.021131  2.424332  -0.03  -0.593246  -0.019293  2.412042  -0.028  -0.320682  -0.529045  -0.021302  2.432682  -0.029
O  O80  1  0.97221184  0.19775544  0.99524045  1  -0.591332  -0.05999  2.050298  -0.078  -0.554547  -0.047082  2.330898  -0.066  -0.590529  -0.038728  2.316522  -0.057  -0.316654  -0.53053  -0.051862  2.341384  -0.07
O  O81  1  0.02778910  0.69776505  0.00473788  1  -0.591185  0.060017  2.049914  0.078  -0.554611  0.047086  2.33067  0.066  -0.590563  0.038736  2.316264  0.057  -0.316647  -0.530575  0.051881  2.34114  0.07
O  O82  1  0.21488762  0.31335413  0.81388262  1  -0.593362  -0.030453  1.935899  -0.039  -0.566586  -0.011081  2.182872  -0.016  -0.596406  -0.004507  2.173735  -0.007  -0.326354  -0.543443  -0.018621  2.187566  -0.025
O  O83  1  0.78508117  0.81335886  0.18611262  1  -0.59313  0.030426  1.936041  0.039  -0.566448  0.011062  2.183088  0.016  -0.596247  0.004504  2.173972  0.007  -0.3263  -0.5433  0.018609  2.187747  0.025
