# generated using pymatgen
data_KCd2BH6C8O13
_symmetry_space_group_name_H-M   'P 1'
_cell_length_a   7.93229012
_cell_length_b   11.96732949
_cell_length_c   14.78520784
_cell_angle_alpha   102.75876636
_cell_angle_beta   89.99998936
_cell_angle_gamma   90.00028246
_symmetry_Int_Tables_number   1
_chemical_formula_structural   KCd2BH6C8O13
_chemical_formula_sum   'K4 Cd8 B4 H24 C32 O52'
_cell_volume   1368.87975443
_cell_formula_units_Z   4
loop_
 _symmetry_equiv_pos_site_id
 _symmetry_equiv_pos_as_xyz
  1  'x, y, z'
loop_
 _atom_site_type_symbol
 _atom_site_label
 _atom_site_symmetry_multiplicity
 _atom_site_fract_x
 _atom_site_fract_y
 _atom_site_fract_z
 _atom_site_occupancy
 _atom_site_hle17_bader_spin_density
 _atom_site_hle17_ddec_charge
 _atom_site_hle17_ddec_spin_density
 _atom_site_hle17_ddec_sum_bond_order
 _atom_site_hle17_magmom
 _atom_site_hse06_10hf_bader_spin_density
 _atom_site_hse06_10hf_ddec_charge
 _atom_site_hse06_10hf_ddec_spin_density
 _atom_site_hse06_10hf_ddec_sum_bond_order
 _atom_site_hse06_10hf_magmom
 _atom_site_hse06_bader_spin_density
 _atom_site_hse06_ddec_charge
 _atom_site_hse06_ddec_spin_density
 _atom_site_hse06_ddec_sum_bond_order
 _atom_site_hse06_magmom
 _atom_site_pbe_bader_spin_density
 _atom_site_pbe_cm5_charge
 _atom_site_pbe_ddec_charge
 _atom_site_pbe_ddec_spin_density
 _atom_site_pbe_ddec_sum_bond_order
 _atom_site_pbe_magmom
K  K0  1  0.73518603  0.98019299  0.03700895  1  0  0.960146  0  0.374512  0  0  0.915693  0  0.528405  0  0  0.929627  0  0.508098  0  0  0.733936  0.904965  0  0.543237  0
K  K1  1  0.26481055  0.48019405  0.03701253  1  0  0.960168  0  0.374508  0  0  0.915692  0  0.528411  0  0  0.929619  0  0.50811  0  0  0.733952  0.904972  0  0.543245  0
K  K2  1  0.25386791  0.83273970  0.47120462  1  0  0.966309  0  0.33407  0  0  0.923347  0  0.479704  0  0  0.9376  0  0.458833  0  0  0.696903  0.912511  0  0.494735  0
K  K3  1  0.74610221  0.33272183  0.47120813  1  0  0.966317  0  0.334073  0  0  0.923364  0  0.479705  0  0  0.937622  0  0.458836  0  0  0.696876  0.912507  0  0.494739  0
Cd  Cd4  1  0.29669550  0.52978207  0.61393397  1  0  1.256716  0  1.607142  0  0  1.078559  0  2.05262  0  0  1.138072  0  1.991481  0  0  0.827333  1.035442  0  2.095216  0
Cd  Cd5  1  0.70330005  0.02978035  0.61393362  1  0  1.25667  0  1.607226  0  0  1.078519  0  2.0527  0  0  1.13803  0  1.991565  0  0  0.827309  1.03541  0  2.095287  0
Cd  Cd6  1  0.79109649  0.61444671  0.90186685  1  0  1.264385  0  1.590594  0  0  1.084945  0  2.033231  0  0  1.144583  0  1.972311  0  0  0.828362  1.04174  0  2.07563  0
Cd  Cd7  1  0.20890715  0.11444758  0.90187040  1  0  1.264369  0  1.590633  0  0  1.084938  0  2.033287  0  0  1.144577  0  1.972363  0  0  0.828372  1.041725  0  2.075724  0
Cd  Cd8  1  0.70625602  0.61470435  0.37766307  1  0  1.262719  0  1.575572  0  0  1.083977  0  2.023448  0  0  1.147555  0  1.95987  0  0  0.824638  1.037747  0  2.067749  0
Cd  Cd9  1  0.29374025  0.11470638  0.37766276  1  0  1.262716  0  1.575589  0  0  1.083984  0  2.023452  0  0  1.147561  0  1.959877  0  0  0.824636  1.037755  0  2.067746  0
Cd  Cd10  1  0.15966434  0.81434438  0.12747682  1  0  1.23979  0  1.573672  0  0  1.06281  0  2.010307  0  0  1.127699  0  1.948173  0  0  0.809666  1.015856  0  2.053242  0
Cd  Cd11  1  0.84033854  0.31434484  0.12747685  1  0  1.239779  0  1.573721  0  0  1.062797  0  2.010365  0  0  1.127687  0  1.948227  0  0  0.809644  1.015839  0  2.053295  0
B  B12  1  0.49884477  0.72864298  0.02029118  1  0  0.985758  0  2.954424  0  0  0.833211  0  3.295326  0  0  0.863957  0  3.272313  0  0  -0.034338  0.811399  0  3.311884  0
B  B13  1  0.50115624  0.22864228  0.02029104  1  0  0.985776  0  2.954421  0  0  0.833203  0  3.295343  0  0  0.86395  0  3.272332  0  0  -0.034337  0.811394  0  3.311897  0
B  B14  1  0.01898527  0.58872315  0.49157443  1  0  0.982344  0  2.961732  0  0  0.827915  0  3.306159  0  0  0.858014  0  3.285099  0  0  -0.030886  0.806791  0  3.321159  0
B  B15  1  0.98101454  0.08872151  0.49157542  1  0  0.982224  0  2.961915  0  0  0.827754  0  3.306454  0  0  0.857856  0  3.285393  0  0  -0.030912  0.806645  0  3.321417  0
H  H16  1  0.20598081  0.70208270  0.86378374  1  0  0.08614  0  0.9374  0  0  0.091916  0  0.999438  0  0  0.094243  0  0.998216  0  0  0.119535  0.090222  0  1.000439  0
H  H17  1  0.79402350  0.20208299  0.86378577  1  0  0.08619  0  0.93755  0  0  0.091978  0  0.999546  0  0  0.094306  0  0.998326  0  0  0.119572  0.090285  0  1.000546  0
H  H18  1  0.47899205  0.84957578  0.84636148  1  0  0.0953  0  0.912647  0  0  0.100826  0  0.97315  0  0  0.104175  0  0.970118  0  0  0.124323  0.098377  0  0.975507  0
H  H19  1  0.52101715  0.34957515  0.84635999  1  0  0.095277  0  0.912594  0  0  0.100748  0  0.973161  0  0  0.104098  0  0.970128  0  0  0.12432  0.098297  0  0.975516  0
H  H20  1  0.67880573  0.82371101  0.21660382  1  0  0.082329  0  0.952763  0  0  0.084373  0  1.024922  0  0  0.087617  0  1.021972  0  0  0.114539  0.081982  0  1.027255  0
H  H21  1  0.32119466  0.32371227  0.21660337  1  0  0.082339  0  0.952778  0  0  0.084385  0  1.02491  0  0  0.087608  0  1.021987  0  0  0.114539  0.081988  0  1.027249  0
H  H22  1  0.66190052  0.58234922  0.15984359  1  0  0.084707  0  0.913125  0  0  0.091657  0  0.975661  0  0  0.0941  0  0.973559  0  0  0.119373  0.089919  0  0.97736  0
H  H23  1  0.33810188  0.08234711  0.15984456  1  0  0.084674  0  0.913112  0  0  0.091645  0  0.975633  0  0  0.094088  0  0.973527  0  0  0.119368  0.089905  0  0.977336  0
H  H24  1  0.21661680  0.60074367  0.30360636  1  0  0.095846  0  0.94447  0  0  0.096639  0  1.013611  0  0  0.100813  0  1.009871  0  0  0.120139  0.093561  0  1.016525  0
H  H25  1  0.78338695  0.10074222  0.30360470  1  0  0.095849  0  0.944425  0  0  0.096649  0  1.013571  0  0  0.100821  0  1.009832  0  0  0.120139  0.093573  0  1.016485  0
H  H26  1  0.19904223  0.38002485  0.34636309  1  0  0.088674  0  0.90864  0  0  0.095994  0  0.970718  0  0  0.098553  0  0.968128  0  0  0.12166  0.094108  0  0.972774  0
H  H27  1  0.80095349  0.88002486  0.34636307  1  0  0.088648  0  0.908709  0  0  0.095982  0  0.970773  0  0  0.098541  0  0.968185  0  0  0.121663  0.094097  0  0.972835  0
H  H28  1  0.71607415  0.63550033  0.64318439  1  0  0.090739  0  0.922736  0  0  0.09721  0  0.984012  0  0  0.099343  0  0.982975  0  0  0.122209  0.095634  0  0.984917  0
H  H29  1  0.28392849  0.13550232  0.64318476  1  0  0.090721  0  0.922709  0  0  0.097168  0  0.984017  0  0  0.099299  0  0.982982  0  0  0.122217  0.095598  0  0.984919  0
H  H30  1  0.98374776  0.79867776  0.66757663  1  0  0.097306  0  0.912225  0  0  0.102108  0  0.972612  0  0  0.10541  0  0.969714  0  0  0.124602  0.099658  0  0.974949  0
H  H31  1  0.01624851  0.29867369  0.66757729  1  0  0.097272  0  0.912265  0  0  0.102091  0  0.97262  0  0  0.10539  0  0.969722  0  0  0.124627  0.099655  0  0.974947  0
H  H32  1  0.84747884  0.98638531  0.81471340  1  0  0.415896  0  0.885903  0  0  0.387664  0  0.946786  0  0  0.397797  0  0.931623  0  0  0.282053  0.38051  0  0.957495  0
H  H33  1  0.15252509  0.48638856  0.81471670  1  0  0.415809  0  0.886009  0  0  0.387557  0  0.946906  0  0  0.397691  0  0.931744  0  0  0.282049  0.380403  0  0.957614  0
H  H34  1  0.83891212  0.86282749  0.83014041  1  0  0.42032  0  0.876002  0  0  0.392335  0  0.936133  0  0  0.402337  0  0.921381  0  0  0.284939  0.385251  0  0.946573  0
H  H35  1  0.16109340  0.36283248  0.83014538  1  0  0.420187  0  0.876209  0  0  0.392231  0  0.936301  0  0  0.402232  0  0.921552  0  0  0.284915  0.385143  0  0.946746  0
H  H36  1  0.34880435  0.95753982  0.69835625  1  0  0.415826  0  0.88542  0  0  0.387931  0  0.945925  0  0  0.397993  0  0.930831  0  0  0.282783  0.380826  0  0.956584  0
H  H37  1  0.65119309  0.45753791  0.69835790  1  0  0.415776  0  0.885498  0  0  0.387918  0  0.945945  0  0  0.397981  0  0.930851  0  0  0.282779  0.380815  0  0.956599  0
H  H38  1  0.34234545  0.82493532  0.67856967  1  0  0.422231  0  0.871944  0  0  0.394933  0  0.930691  0  0  0.404805  0  0.916146  0  0  0.286443  0.387929  0  0.941012  0
H  H39  1  0.65765228  0.32493429  0.67857418  1  0  0.422221  0  0.871963  0  0  0.394934  0  0.930687  0  0  0.404804  0  0.916143  0  0  0.286462  0.387924  0  0.941016  0
C  C40  1  0.20714126  0.87679416  0.93723469  1  0  0.651409  0  3.856606  0  0  0.594506  0  4.161424  0  0  0.629746  0  4.154912  0  0  0.215632  0.57045  0  4.165042  0
C  C41  1  0.79286054  0.37679274  0.93723438  1  0  0.651376  0  3.856612  0  0  0.594442  0  4.161469  0  0  0.62968  0  4.154961  0  0  0.215645  0.570389  0  4.165094  0
C  C42  1  0.29012317  0.75809269  0.91269199  1  0  0.066119  0  3.585509  0  0  0.047083  0  3.820248  0  0  0.048328  0  3.827389  0  0  0.016253  0.046085  0  3.815578  0
C  C43  1  0.70988659  0.25808671  0.91269020  1  0  0.066004  0  3.585733  0  0  0.046974  0  3.820428  0  0  0.048219  0  3.82757  0  0  0.01616  0.04597  0  3.815764  0
C  C44  1  0.46699395  0.76842182  0.86882642  1  0  0.063397  0  3.598299  0  0  0.039415  0  3.837782  0  0  0.041146  0  3.843687  0  0  0.013017  0.038054  0  3.83397  0
C  C45  1  0.53300833  0.26841608  0.86882875  1  0  0.063492  0  3.598384  0  0  0.039599  0  3.837767  0  0  0.041332  0  3.843674  0  0  0.013025  0.03824  0  3.833944  0
C  C46  1  0.49051014  0.67141804  0.78324035  1  0  0.661297  0  3.836771  0  0  0.600017  0  4.14892  0  0  0.634641  0  4.141766  0  0  0.21764  0.576381  0  4.15305  0
C  C47  1  0.50948262  0.17140965  0.78324355  1  0  0.661224  0  3.837212  0  0  0.599919  0  4.149367  0  0  0.63454  0  4.14222  0  0  0.217492  0.576298  0  4.153477  0
C  C48  1  0.45587358  0.73929836  0.24616825  1  0  0.669273  0  3.854469  0  0  0.612528  0  4.161775  0  0  0.648178  0  4.153091  0  0  0.213438  0.588112  0  4.166995  0
C  C49  1  0.54411988  0.23930209  0.24616890  1  0  0.669365  0  3.854376  0  0  0.612602  0  4.161659  0  0  0.648254  0  4.152968  0  0  0.213467  0.588183  0  4.166878  0
C  C50  1  0.58518061  0.76530161  0.17722209  1  0  0.045446  0  3.64141  0  0  0.022894  0  3.885045  0  0  0.024325  0  3.890146  0  0  0.00631  0.021829  0  3.881732  0
C  C51  1  0.41482063  0.26530233  0.17722288  1  0  0.04536  0  3.641513  0  0  0.022867  0  3.885015  0  0  0.02431  0  3.890113  0  0  0.006259  0.021809  0  3.8817  0
C  C52  1  0.67054520  0.65242990  0.12292111  1  0  0.057976  0  3.61931  0  0  0.033329  0  3.866821  0  0  0.034661  0  3.87318  0  0  0.011046  0.032107  0  3.862828  0
C  C53  1  0.32945269  0.15243290  0.12292300  1  0  0.058041  0  3.619302  0  0  0.033356  0  3.86678  0  0  0.034692  0  3.873136  0  0  0.011093  0.032137  0  3.862783  0
C  C54  1  0.85725179  0.67964038  0.11338703  1  0  0.633088  0  3.877344  0  0  0.57919  0  4.180958  0  0  0.614015  0  4.174253  0  0  0.202373  0.555458  0  4.184668  0
C  C55  1  0.14275135  0.17963932  0.11338685  1  0  0.633116  0  3.877251  0  0  0.579237  0  4.180842  0  0  0.614062  0  4.174135  0  0  0.202374  0.555497  0  4.184564  0
C  C56  1  0.00772843  0.49116900  0.25916221  1  0  0.662718  0  3.844584  0  0  0.609901  0  4.142528  0  0  0.644887  0  4.136377  0  0  0.210051  0.585993  0  4.145903  0
C  C57  1  0.99227194  0.99116710  0.25916116  1  0  0.662556  0  3.844924  0  0  0.609859  0  4.142667  0  0  0.644844  0  4.136518  0  0  0.210063  0.585949  0  4.146051  0
C  C58  1  0.12140957  0.55573054  0.33603855  1  0  0.050684  0  3.606458  0  0  0.028393  0  3.849968  0  0  0.029464  0  3.854953  0  0  0.009296  0.027515  0  3.846773  0
C  C59  1  0.87859131  0.05572856  0.33603746  1  0  0.05079  0  3.606274  0  0  0.028444  0  3.849783  0  0  0.029518  0  3.854766  0  0  0.009261  0.027549  0  3.846615  0
C  C60  1  0.20356080  0.46819542  0.38804968  1  0  0.068401  0  3.584207  0  0  0.044644  0  3.830106  0  0  0.046441  0  3.8359  0  0  0.019091  0.04326  0  3.826297  0
C  C61  1  0.79643684  0.96819285  0.38804853  1  0  0.068404  0  3.584332  0  0  0.044652  0  3.830231  0  0  0.04645  0  3.836024  0  0  0.019101  0.043269  0  3.826435  0
C  C62  1  0.38963202  0.50048310  0.40694859  1  0  0.63296  0  3.878746  0  0  0.575717  0  4.189655  0  0  0.610841  0  4.182631  0  0  0.205178  0.551752  0  4.1936  0
C  C63  1  0.61036591  0.00048535  0.40694694  1  0  0.632765  0  3.878754  0  0  0.575549  0  4.189629  0  0  0.610671  0  4.182611  0  0  0.205122  0.551589  0  4.193566  0
C  C64  1  0.71819008  0.77360257  0.57322818  1  0  0.64564  0  3.863277  0  0  0.589993  0  4.166497  0  0  0.62504  0  4.160343  0  0  0.213585  0.566064  0  4.169852  0
C  C65  1  0.28180856  0.27360455  0.57323125  1  0  0.64564  0  3.863525  0  0  0.589966  0  4.166752  0  0  0.625014  0  4.160602  0  0  0.213586  0.566037  0  4.170103  0
C  C66  1  0.80197507  0.66834980  0.59694541  1  0  0.070661  0  3.574645  0  0  0.049224  0  3.812652  0  0  0.050811  0  3.819368  0  0  0.017217  0.048014  0  3.80814  0
C  C67  1  0.19802278  0.16835064  0.59694558  1  0  0.070712  0  3.57461  0  0  0.049307  0  3.812578  0  0  0.050895  0  3.819289  0  0  0.017218  0.048105  0  3.808066  0
C  C68  1  0.97561484  0.70519880  0.64424678  1  0  0.060299  0  3.596467  0  0  0.037728  0  3.836507  0  0  0.039412  0  3.842013  0  0  0.013731  0.036421  0  3.832843  0
C  C69  1  0.02438705  0.20519819  0.64424873  1  0  0.060422  0  3.596153  0  0  0.037858  0  3.836139  0  0  0.039551  0  3.84163  0  0  0.013655  0.036511  0  3.832486  0
C  C70  1  0.99456502  0.65401617  0.72972249  1  0  0.663245  0  3.831918  0  0  0.600654  0  4.146072  0  0  0.635461  0  4.138596  0  0  0.217946  0.576882  0  4.150434  0
C  C71  1  0.00542889  0.15400864  0.72972253  1  0  0.663186  0  3.831949  0  0  0.600608  0  4.146066  0  0  0.635415  0  4.138597  0  0  0.217964  0.576853  0  4.150416  0
O  O72  1  0.20146844  0.92635511  0.86974513  1  0  -0.628019  0  2.053072  0  0  -0.56115  0  2.318669  0  0  -0.591788  0  2.30562  0  0  -0.315963  -0.539651  0  2.326999  0
O  O73  1  0.79853501  0.42635285  0.86974400  1  0  -0.62795  0  2.053019  0  0  -0.561071  0  2.318636  0  0  -0.591711  0  2.305589  0  0  -0.315948  -0.539556  0  2.32692  0
O  O74  1  0.15327819  0.91903898  0.01830155  1  0  -0.63904  0  2.045715  0  0  -0.573754  0  2.30575  0  0  -0.604926  0  2.294255  0  0  -0.315635  -0.551772  0  2.312768  0
O  O75  1  0.84672550  0.41903689  0.01830180  1  0  -0.639054  0  2.045761  0  0  -0.573753  0  2.305804  0  0  -0.604924  0  2.294306  0  0  -0.315645  -0.551778  0  2.312827  0
O  O76  1  0.40811533  0.68381709  0.71194822  1  0  -0.651311  0  2.047016  0  0  -0.577877  0  2.303704  0  0  -0.609113  0  2.291866  0  0  -0.313555  -0.555933  0  2.311235  0
O  O77  1  0.59188007  0.18381414  0.71194563  1  0  -0.651438  0  2.046874  0  0  -0.577969  0  2.303507  0  0  -0.609209  0  2.291673  0  0  -0.31354  -0.556031  0  2.31104  0
O  O78  1  0.58141673  0.58562516  0.78685385  1  0  -0.6338  0  2.040903  0  0  -0.561694  0  2.286855  0  0  -0.590983  0  2.274424  0  0  -0.301869  -0.541135  0  2.294828  0
O  O79  1  0.41858674  0.08562504  0.78685720  1  0  -0.633652  0  2.041426  0  0  -0.561565  0  2.287401  0  0  -0.590852  0  2.274974  0  0  -0.301746  -0.541015  0  2.295374  0
O  O80  1  0.29918616  0.73693312  0.22807666  1  0  -0.638497  0  2.056492  0  0  -0.570167  0  2.317689  0  0  -0.600932  0  2.304447  0  0  -0.316833  -0.548481  0  2.325978  0
O  O81  1  0.70081359  0.23693224  0.22807782  1  0  -0.638535  0  2.056298  0  0  -0.570205  0  2.317499  0  0  -0.600972  0  2.304261  0  0  -0.316817  -0.548512  0  2.325777  0
O  O82  1  0.51083492  0.71919214  0.32150031  1  0  -0.685134  0  2.080185  0  0  -0.623777  0  2.359048  0  0  -0.654902  0  2.346694  0  0  -0.352696  -0.601809  0  2.366885  0
O  O83  1  0.48916214  0.21919568  0.32150026  1  0  -0.685168  0  2.080309  0  0  -0.623825  0  2.359198  0  0  -0.654952  0  2.346847  0  0  -0.352723  -0.60186  0  2.367036  0
O  O84  1  0.94469695  0.69587919  0.18591698  1  0  -0.597045  0  1.958767  0  0  -0.54191  0  2.198191  0  0  -0.570565  0  2.190081  0  0  -0.304099  -0.521755  0  2.203036  0
O  O85  1  0.05530125  0.19587868  0.18592165  1  0  -0.597066  0  1.958496  0  0  -0.541971  0  2.19795  0  0  -0.570627  0  2.189837  0  0  -0.304127  -0.521809  0  2.202788  0
O  O86  1  0.91645797  0.69657732  0.03614120  1  0  -0.687575  0  2.041707  0  0  -0.611761  0  2.308938  0  0  -0.643832  0  2.293393  0  0  -0.329165  -0.589022  0  2.318772  0
O  O87  1  0.08354154  0.19657776  0.03614537  1  0  -0.687598  0  2.041825  0  0  -0.611785  0  2.309048  0  0  -0.643857  0  2.293504  0  0  -0.329168  -0.589029  0  2.318848  0
O  O88  1  0.51474213  0.81534050  0.10728418  1  0  -0.608211  0  2.186321  0  0  -0.533899  0  2.431547  0  0  -0.552231  0  2.42252  0  0  -0.258414  -0.520642  0  2.437369  0
O  O89  1  0.48525950  0.31534060  0.10728418  1  0  -0.608204  0  2.186264  0  0  -0.533884  0  2.431454  0  0  -0.552213  0  2.422419  0  0  -0.258393  -0.520627  0  2.437277  0
O  O90  1  0.57895870  0.62352364  0.03804465  1  0  -0.615975  0  2.194014  0  0  -0.5361  0  2.439681  0  0  -0.55606  0  2.431967  0  0  -0.255024  -0.521693  0  2.444661  0
O  O91  1  0.42104027  0.12352438  0.03804342  1  0  -0.616007  0  2.193976  0  0  -0.536125  0  2.439669  0  0  -0.556088  0  2.431957  0  0  -0.255049  -0.521712  0  2.444641  0
O  O92  1  0.32076733  0.70883164  0.99044500  1  0  -0.622394  0  2.245867  0  0  -0.537384  0  2.492169  0  0  -0.559246  0  2.484931  0  0  -0.255252  -0.521674  0  2.496667  0
O  O93  1  0.67923320  0.20882898  0.99044584  1  0  -0.622406  0  2.245956  0  0  -0.537403  0  2.492264  0  0  -0.559266  0  2.485025  0  0  -0.255258  -0.521694  0  2.496766  0
O  O94  1  0.58304868  0.76576219  0.94154102  1  0  -0.626417  0  2.262894  0  0  -0.53602  0  2.507183  0  0  -0.558444  0  2.500681  0  0  -0.269711  -0.519955  0  2.511264  0
O  O95  1  0.41695734  0.26576378  0.94154198  1  0  -0.626366  0  2.262938  0  0  -0.535972  0  2.507183  0  0  -0.558396  0  2.500682  0  0  -0.269627  -0.51991  0  2.51127  0
O  O96  1  0.07848334  0.43741213  0.18592148  1  0  -0.651792  0  2.000231  0  0  -0.596033  0  2.250839  0  0  -0.626541  0  2.243161  0  0  -0.364226  -0.574565  0  2.255401  0
O  O97  1  0.92151791  0.93741255  0.18592221  1  0  -0.651677  0  2.000344  0  0  -0.595998  0  2.250978  0  0  -0.626513  0  2.243315  0  0  -0.364184  -0.57452  0  2.255532  0
O  O98  1  0.84811244  0.48467799  0.27170337  1  0  -0.671119  0  2.049681  0  0  -0.594164  0  2.315393  0  0  -0.627919  0  2.301837  0  0  -0.319358  -0.570321  0  2.323921  0
O  O99  1  0.15188787  0.98467665  0.27170386  1  0  -0.671097  0  2.049791  0  0  -0.594179  0  2.315449  0  0  -0.627935  0  2.301893  0  0  -0.319382  -0.570339  0  2.323986  0
O  O100  1  0.43985475  0.54873214  0.48832839  1  0  -0.670346  0  2.047472  0  0  -0.602134  0  2.314756  0  0  -0.632478  0  2.300565  0  0  -0.327138  -0.580678  0  2.323741  0
O  O101  1  0.56014854  0.04873936  0.48832967  1  0  -0.670263  0  2.047391  0  0  -0.602071  0  2.314668  0  0  -0.632415  0  2.300478  0  0  -0.327088  -0.580614  0  2.323652  0
O  O102  1  0.48651445  0.48332967  0.33726733  1  0  -0.613015  0  1.992609  0  0  -0.549898  0  2.24204  0  0  -0.580582  0  2.233169  0  0  -0.309232  -0.528329  0  2.24737  0
O  O103  1  0.51348205  0.98333384  0.33726809  1  0  -0.612948  0  1.992621  0  0  -0.54984  0  2.242047  0  0  -0.580523  0  2.23318  0  0  -0.309241  -0.528273  0  2.247376  0
O  O104  1  0.70402423  0.85754459  0.64244494  1  0  -0.628726  0  2.052915  0  0  -0.562136  0  2.31853  0  0  -0.593386  0  2.30605  0  0  -0.315824  -0.540199  0  2.326466  0
O  O105  1  0.29597375  0.35754490  0.64244500  1  0  -0.628705  0  2.05321  0  0  -0.562107  0  2.318845  0  0  -0.593353  0  2.306351  0  0  -0.315795  -0.540171  0  2.326777  0
O  O106  1  0.67304676  0.77410609  0.49130966  1  0  -0.629312  0  2.057193  0  0  -0.564695  0  2.317882  0  0  -0.595816  0  2.307389  0  0  -0.312413  -0.542728  0  2.324244  0
O  O107  1  0.32695443  0.27410823  0.49130937  1  0  -0.629379  0  2.057095  0  0  -0.564758  0  2.317794  0  0  -0.595884  0  2.307307  0  0  -0.31246  -0.542785  0  2.324149  0
O  O108  1  0.08194174  0.56487639  0.72633800  1  0  -0.630732  0  2.042873  0  0  -0.557965  0  2.288047  0  0  -0.587145  0  2.275621  0  0  -0.300341  -0.537508  0  2.296032  0
O  O109  1  0.91805907  0.06487882  0.72633906  1  0  -0.630616  0  2.043335  0  0  -0.557837  0  2.288482  0  0  -0.587017  0  2.276061  0  0  -0.300244  -0.537387  0  2.296462  0
O  O110  1  0.91193333  0.70652212  0.80071466  1  0  -0.657196  0  2.045993  0  0  -0.581781  0  2.304268  0  0  -0.613467  0  2.291975  0  0  -0.313314  -0.559538  0  2.312118  0
O  O111  1  0.08806977  0.20652172  0.80071732  1  0  -0.657215  0  2.04577  0  0  -0.581846  0  2.304085  0  0  -0.613521  0  2.291754  0  0  -0.313342  -0.5596  0  2.311928  0
O  O112  1  0.84027895  0.57935459  0.51818238  1  0  -0.629383  0  2.259224  0  0  -0.54284  0  2.509027  0  0  -0.564769  0  2.501249  0  0  -0.257671  -0.527128  0  2.513917  0
O  O113  1  0.15971953  0.07935444  0.51818237  1  0  -0.629368  0  2.25928  0  0  -0.542828  0  2.509072  0  0  -0.564753  0  2.501292  0  0  -0.257678  -0.527125  0  2.513962  0
O  O114  1  0.09684326  0.66573351  0.57367587  1  0  -0.616536  0  2.255949  0  0  -0.527428  0  2.498947  0  0  -0.549364  0  2.492548  0  0  -0.255319  -0.511759  0  2.502964  0
O  O115  1  0.90315710  0.16572818  0.57367756  1  0  -0.61657  0  2.255848  0  0  -0.527476  0  2.498874  0  0  -0.549415  0  2.492479  0  0  -0.255344  -0.511795  0  2.502882  0
O  O116  1  0.10385190  0.47664105  0.46922901  1  0  -0.600866  0  2.200239  0  0  -0.521053  0  2.445394  0  0  -0.540741  0  2.437376  0  0  -0.233704  -0.506931  0  2.450542  0
O  O117  1  0.89614702  0.97663882  0.46922723  1  0  -0.600837  0  2.200292  0  0  -0.521047  0  2.44545  0  0  -0.540733  0  2.437441  0  0  -0.233759  -0.506935  0  2.450607  0
O  O118  1  0.03385884  0.63494894  0.40654461  1  0  -0.624341  0  2.195461  0  0  -0.545209  0  2.442231  0  0  -0.565004  0  2.43331  0  0  -0.267266  -0.530974  0  2.44804  0
O  O119  1  0.96614008  0.13494811  0.40654575  1  0  -0.624352  0  2.195388  0  0  -0.545196  0  2.442161  0  0  -0.564989  0  2.433243  0  0  -0.26723  -0.530954  0  2.447959  0
O  O120  1  0.80433349  0.94176087  0.85814329  1  0  -0.87944  0  1.751664  0  0  -0.843622  0  1.914985  0  0  -0.860156  0  1.883742  0  0  -0.699189  -0.831693  0  1.936826  0
O  O121  1  0.19567639  0.44176427  0.85814460  1  0  -0.87926  0  1.751918  0  0  -0.843418  0  1.915243  0  0  -0.859955  0  1.883996  0  0  -0.699174  -0.831484  0  1.937094  0
O  O122  1  0.31127396  0.89029221  0.65174460  1  0  -0.879801  0  1.750453  0  0  -0.844722  0  1.913168  0  0  -0.861214  0  1.88193  0  0  -0.696732  -0.832859  0  1.935073  0
O  O123  1  0.68872300  0.39028871  0.65174934  1  0  -0.879772  0  1.750557  0  0  -0.844735  0  1.913242  0  0  -0.861227  0  1.882002  0  0  -0.696785  -0.832875  0  1.935153  0
