# generated using pymatgen
data_Cd2H17C16N10O7
_symmetry_space_group_name_H-M   'P 1'
_cell_length_a   12.44458052
_cell_length_b   15.27617236
_cell_length_c   15.40836536
_cell_angle_alpha   96.58482322
_cell_angle_beta   90.00015954
_cell_angle_gamma   90.00008143
_symmetry_Int_Tables_number   1
_chemical_formula_structural   Cd2H17C16N10O7
_chemical_formula_sum   'Cd8 H68 C64 N40 O28'
_cell_volume   2909.89235650
_cell_formula_units_Z   4
loop_
 _symmetry_equiv_pos_site_id
 _symmetry_equiv_pos_as_xyz
  1  'x, y, z'
loop_
 _atom_site_type_symbol
 _atom_site_label
 _atom_site_symmetry_multiplicity
 _atom_site_fract_x
 _atom_site_fract_y
 _atom_site_fract_z
 _atom_site_occupancy
 _atom_site_pbe_bader_charge
 _atom_site_pbe_bader_spin_density
 _atom_site_pbe_cm5_charge
 _atom_site_pbe_ddec_charge
 _atom_site_pbe_ddec_spin_density
 _atom_site_pbe_ddec_sum_bond_order
 _atom_site_pbe_magmom
Cd  Cd0  1  0.15564529  0.32604094  0.31937616  1  1.30106  0  0.796124  0.933029  0  2.162957  0
Cd  Cd1  1  0.65564775  0.67396037  0.18062515  1  1.30107  0  0.796147  0.933054  0  2.162926  0
Cd  Cd2  1  0.84435324  0.67396092  0.68062227  1  1.301085  0  0.796142  0.933057  0  2.162933  0
Cd  Cd3  1  0.34435320  0.32604019  0.81937703  1  1.301062  0  0.796144  0.933098  0  2.162936  0
Cd  Cd4  1  0.15437262  0.62049965  0.26835868  1  1.251657  0  0.775464  0.812134  0  2.203718  0
Cd  Cd5  1  0.65437956  0.37949639  0.23164270  1  1.251533  0  0.775429  0.812117  0  2.20372  0
Cd  Cd6  1  0.84562029  0.37950025  0.73164278  1  1.251622  0  0.77548  0.81217  0  2.203714  0
Cd  Cd7  1  0.34562943  0.62049956  0.76836027  1  1.251582  0  0.775464  0.812105  0  2.203694  0
H  H8  1  0.02113500  0.95718468  0.26968627  1  0.135203  0  0.108905  0.1177  0  1.033085  0
H  H9  1  0.52113652  0.04281445  0.23031126  1  0.13523  0  0.108879  0.117652  0  1.03313  0
H  H10  1  0.97886354  0.04281652  0.73031079  1  0.134949  0  0.108886  0.117636  0  1.033153  0
H  H11  1  0.47887005  0.95718675  0.76968710  1  0.135142  0  0.108903  0.11768  0  1.033082  0
H  H12  1  0.00304828  0.79694350  0.27338045  1  0.139514  0  0.114314  0.085519  0  1.02692  0
H  H13  1  0.50305650  0.20305758  0.22661789  1  0.139651  0  0.114358  0.085629  0  1.026916  0
H  H14  1  0.99693981  0.20305836  0.72661862  1  0.139696  0  0.114349  0.085599  0  1.027029  0
H  H15  1  0.49695249  0.79694361  0.77337787  1  0.139521  0  0.11429  0.085474  0  1.026953  0
H  H16  1  0.33423338  0.76207540  0.27647443  1  0.106608  0  0.112193  0.081676  0  1.021007  0
H  H17  1  0.83424165  0.23792356  0.22353351  1  0.106613  0  0.112151  0.081621  0  1.020975  0
H  H18  1  0.66575792  0.23792519  0.72353554  1  0.106568  0  0.112143  0.081603  0  1.02091  0
H  H19  1  0.16576975  0.76207503  0.77646975  1  0.106694  0  0.11219  0.081693  0  1.020943  0
H  H20  1  0.36669905  0.92275249  0.26845249  1  0.124527  0  0.112215  0.122121  0  1.008087  0
H  H21  1  0.86669902  0.07724784  0.23155698  1  0.125006  0  0.112212  0.122081  0  1.008055  0
H  H22  1  0.63330110  0.07724942  0.73155698  1  0.125034  0  0.11221  0.122097  0  1.008046  0
H  H23  1  0.13330192  0.92275143  0.76845090  1  0.125046  0  0.112198  0.122125  0  1.008034  0
H  H24  1  0.45522926  0.43889021  0.58088350  1  0.127885  0  0.111977  0.128434  0  1.010486  0
H  H25  1  0.95522913  0.56110577  0.91911159  1  0.127803  0  0.111981  0.128504  0  1.010442  0
H  H26  1  0.54476847  0.56110240  0.41911002  1  0.128136  0  0.11203  0.12859  0  1.010391  0
H  H27  1  0.04477262  0.43888421  0.08087969  1  0.127919  0  0.111982  0.128467  0  1.01047  0
H  H28  1  0.59026737  0.43860285  0.70017792  1  0.107151  0  0.115016  0.090327  0  1.009584  0
H  H29  1  0.09027168  0.56139790  0.79982206  1  0.107133  0  0.115045  0.090381  0  1.009609  0
H  H30  1  0.40972876  0.56139309  0.29982115  1  0.107085  0  0.115049  0.090322  0  1.009613  0
H  H31  1  0.90973248  0.43859605  0.20017550  1  0.10719  0  0.115028  0.090408  0  1.009569  0
H  H32  1  0.81076375  0.30198124  0.53389085  1  0.114231  0  0.120507  0.098859  0  0.97927  0
H  H33  1  0.31076164  0.69802114  0.96610916  1  0.11425  0  0.120535  0.098869  0  0.979331  0
H  H34  1  0.18923961  0.69801467  0.46610368  1  0.114322  0  0.12047  0.098809  0  0.979324  0
H  H35  1  0.68923127  0.30197742  0.03388696  1  0.113998  0  0.120519  0.098786  0  0.979284  0
H  H36  1  0.68346554  0.29371055  0.40851579  1  0.103911  0  0.109926  0.119915  0  1.018936  0
H  H37  1  0.18346056  0.70628880  0.09148018  1  0.103443  0  0.109907  0.119899  0  1.018815  0
H  H38  1  0.31653943  0.70628338  0.59147658  1  0.104082  0  0.109878  0.119899  0  1.018781  0
H  H39  1  0.81652753  0.29371172  0.90851226  1  0.103791  0  0.109929  0.119911  0  1.018948  0
H  H40  1  0.99130333  0.40792057  0.44990384  1  0.039397  0  0.104061  0.096287  0  1.008266  0
H  H41  1  0.49129800  0.59207926  0.05010066  1  0.03946  0  0.104065  0.096382  0  1.008245  0
H  H42  1  0.00870566  0.59208066  0.55010101  1  0.039565  0  0.104065  0.096378  0  1.008238  0
H  H43  1  0.50869571  0.40791869  0.94990642  1  0.039438  0  0.104049  0.096277  0  1.0083  0
H  H44  1  0.81374266  0.48513107  0.50152970  1  0.079146  0  0.106876  0.130712  0  0.991146  0
H  H45  1  0.31374597  0.51487000  0.99847017  1  0.079167  0  0.106876  0.130743  0  0.9911  0
H  H46  1  0.18625668  0.51487080  0.49847132  1  0.079156  0  0.106872  0.130744  0  0.991114  0
H  H47  1  0.68625980  0.48512660  0.00153223  1  0.079059  0  0.106862  0.130694  0  0.991132  0
H  H48  1  0.84975670  0.57007643  0.43890984  1  0.038298  0  0.099815  0.10493  0  1.036799  0
H  H49  1  0.34975996  0.42992381  0.06108465  1  0.03839  0  0.099811  0.104939  0  1.036813  0
H  H50  1  0.15023943  0.42992543  0.56108729  1  0.038556  0  0.09983  0.104977  0  1.036782  0
H  H51  1  0.65024340  0.57007476  0.93891406  1  0.038387  0  0.099838  0.104975  0  1.036796  0
H  H52  1  0.24248119  0.30549237  0.15532279  1  0.611609  0  0.309422  0.381695  0  0.922973  0
H  H53  1  0.74249228  0.69450839  0.34467346  1  0.611562  0  0.30951  0.381791  0  0.922889  0
H  H54  1  0.75750931  0.69450882  0.84467102  1  0.611602  0  0.309533  0.381813  0  0.922866  0
H  H55  1  0.25752554  0.30549214  0.65532028  1  0.611697  0  0.309403  0.381685  0  0.922921  0
H  H56  1  0.13913881  0.29757187  0.51005471  1  0.611854  0  0.315454  0.403055  0  0.886005  0
H  H57  1  0.63913595  0.70244015  0.98994727  1  0.611859  0  0.315485  0.40313  0  0.885922  0
H  H58  1  0.86086133  0.70243855  0.48994336  1  0.611835  0  0.315463  0.403097  0  0.885937  0
H  H59  1  0.36085857  0.29756898  0.01005779  1  0.61185  0  0.315448  0.403077  0  0.885959  0
H  H60  1  0.99228411  0.20559737  0.33969445  1  0.64539  0  0.312251  0.393714  0  0.912475  0
H  H61  1  0.49228997  0.79440770  0.16030609  1  0.645306  0  0.312204  0.393668  0  0.912554  0
H  H62  1  0.00771202  0.79440712  0.66030427  1  0.645329  0  0.312206  0.393681  0  0.912541  0
H  H63  1  0.50771259  0.20559680  0.83969393  1  0.645361  0  0.312229  0.393711  0  0.912506  0
H  H64  1  0.20478054  0.40603668  0.16401213  1  0.652443  0  0.28544  0.383851  0  0.959855  0
H  H65  1  0.70478420  0.59396470  0.33598995  1  0.652465  0  0.285439  0.383872  0  0.959835  0
H  H66  1  0.79521558  0.59396519  0.83598954  1  0.652453  0  0.285427  0.383814  0  0.959902  0
H  H67  1  0.29522398  0.40603652  0.66401360  1  0.652445  0  0.285437  0.383822  0  0.959904  0
H  H68  1  0.26040683  0.31765833  0.48219726  1  0.637499  0  0.287826  0.353683  0  0.998247  0
H  H69  1  0.76040553  0.68234839  0.01780164  1  0.6372  0  0.287871  0.353736  0  0.998187  0
H  H70  1  0.73959331  0.68234549  0.51779814  1  0.63716  0  0.287835  0.3537  0  0.998227  0
H  H71  1  0.23959060  0.31765612  0.98219903  1  0.637473  0  0.287835  0.353676  0  0.99824  0
H  H72  1  0.92900687  0.30035296  0.35209981  1  0.657808  0  0.287584  0.388744  0  0.955577  0
H  H73  1  0.42900448  0.69965333  0.14789877  1  0.657873  0  0.28761  0.388784  0  0.955526  0
H  H74  1  0.07099568  0.69965351  0.64789912  1  0.657884  0  0.287618  0.388785  0  0.955517  0
H  H75  1  0.57099084  0.30035249  0.85210139  1  0.657837  0  0.287568  0.388749  0  0.955571  0
C  C76  1  0.21484261  0.04710530  0.26180257  1  0.956737  0  0.19816  0.216443  0  4.065011  0
C  C77  1  0.71484254  0.95289281  0.23819982  1  0.956705  0  0.198182  0.21655  0  4.064899  0
C  C78  1  0.78515593  0.95289394  0.73819816  1  0.956692  0  0.198155  0.21643  0  4.064921  0
C  C79  1  0.28515841  0.04710578  0.76180474  1  0.956528  0  0.198104  0.216359  0  4.065057  0
C  C80  1  0.19656236  0.95375114  0.26727916  1  -0.023364  0  0.025021  0.098552  0  3.972389  0
C  C81  1  0.69656309  0.04624828  0.23272982  1  -0.023776  0  0.024993  0.098395  0  3.972411  0
C  C82  1  0.80343778  0.04624944  0.73272821  1  -0.02372  0  0.025017  0.098435  0  3.972265  0
C  C83  1  0.30344187  0.95375163  0.76727488  1  -0.023716  0  0.025121  0.09857  0  3.972233  0
C  C84  1  0.09340820  0.91706795  0.27032870  1  -0.014243  0  -0.075366  -0.150173  0  3.893801  0
C  C85  1  0.59340898  0.08293261  0.22967174  1  -0.014022  0  -0.075341  -0.150046  0  3.893772  0
C  C86  1  0.90659034  0.08293459  0.72967305  1  -0.013739  0  -0.075365  -0.150071  0  3.893893  0
C  C87  1  0.40659518  0.91706924  0.77032474  1  -0.013794  0  -0.07537  -0.15013  0  3.893914  0
C  C88  1  0.08277538  0.82676497  0.27292006  1  0.463952  0  0.045381  0.101478  0  3.92935  0
C  C89  1  0.58278194  0.17323556  0.22707775  1  0.464243  0  0.045374  0.10134  0  3.929588  0
C  C90  1  0.91721512  0.17323689  0.72707966  1  0.464235  0  0.045397  0.101421  0  3.92985  0
C  C91  1  0.41722624  0.82676761  0.77291822  1  0.464216  0  0.045374  0.101505  0  3.929591  0
C  C92  1  0.26754736  0.80794973  0.27367081  1  0.46835  0  0.032848  0.078959  0  3.999445  0
C  C93  1  0.76755395  0.19205109  0.22633265  1  0.46826  0  0.032963  0.079126  0  3.999339  0
C  C94  1  0.73244314  0.19205150  0.72633469  1  0.46855  0  0.032989  0.079212  0  3.999161  0
C  C95  1  0.23245584  0.80795145  0.77367040  1  0.468359  0  0.032826  0.078937  0  3.999445  0
C  C96  1  0.28522099  0.89683413  0.26952851  1  -0.066365  0  -0.082068  -0.16586  0  3.93607  0
C  C97  1  0.78522101  0.10316608  0.23048141  1  -0.066953  0  -0.082092  -0.165828  0  3.936001  0
C  C98  1  0.71477835  0.10316647  0.73048341  1  -0.067076  0  -0.082092  -0.165871  0  3.935884  0
C  C99  1  0.21478155  0.89683383  0.76952459  1  -0.066824  0  -0.082092  -0.165879  0  3.93602  0
C  C100  1  0.48138729  0.36989713  0.41326668  1  0.89709  0  0.21725  0.236937  0  4.045422  0
C  C101  1  0.98138453  0.63009868  0.08672892  1  0.89709  0  0.217276  0.23699  0  4.045531  0
C  C102  1  0.51861607  0.63009614  0.58672561  1  0.897027  0  0.217284  0.236924  0  4.045667  0
C  C103  1  0.01861241  0.36989328  0.91326518  1  0.897019  0  0.217251  0.236927  0  4.045454  0
C  C104  1  0.55920442  0.36807308  0.48401968  1  0.00247  0  0.020768  0.079911  0  3.983352  0
C  C105  1  0.05920306  0.63192412  0.01597772  1  0.00251  0  0.020823  0.079976  0  3.98353  0
C  C106  1  0.44079814  0.63192086  0.51597529  1  0.003327  0  0.020904  0.080027  0  3.983543  0
C  C107  1  0.94079307  0.36806587  0.98401681  1  0.002327  0  0.020753  0.079871  0  3.983391  0
C  C108  1  0.53317318  0.40792604  0.56796285  1  0.003331  0  -0.075225  -0.142717  0  3.899171  0
C  C109  1  0.03317319  0.59206935  0.93203382  1  0.003352  0  -0.075287  -0.142875  0  3.899296  0
C  C110  1  0.46682777  0.59207053  0.43202981  1  0.00261  0  -0.075354  -0.142918  0  3.899308  0
C  C111  1  0.96682776  0.40791800  0.06795977  1  0.003271  0  -0.075261  -0.142812  0  3.899441  0
C  C112  1  0.60851292  0.40796692  0.63448703  1  0.491546  0  0.044771  0.102274  0  3.932911  0
C  C113  1  0.10851591  0.59202924  0.86551249  1  0.491456  0  0.044749  0.10225  0  3.933079  0
C  C114  1  0.39148562  0.59202901  0.36551139  1  0.491409  0  0.044799  0.102303  0  3.933064  0
C  C115  1  0.89148665  0.40796470  0.13448248  1  0.491495  0  0.04472  0.102241  0  3.933216  0
C  C116  1  0.73082537  0.33120423  0.54179195  1  0.462697  0  0.044303  0.089574  0  3.955597  0
C  C117  1  0.23082319  0.66880066  0.95820620  1  0.46272  0  0.044268  0.089585  0  3.9557  0
C  C118  1  0.26917638  0.66879366  0.45820409  1  0.462697  0  0.044367  0.089752  0  3.955632  0
C  C119  1  0.76917052  0.33120053  0.04179020  1  0.463179  0  0.044304  0.089684  0  3.955689  0
C  C120  1  0.65985540  0.32739619  0.47169267  1  0.0025  0  -0.080375  -0.156212  0  3.925875  0
C  C121  1  0.15985255  0.67260510  0.02830346  1  0.002987  0  -0.080406  -0.156279  0  3.925881  0
C  C122  1  0.34014715  0.67259774  0.52829970  1  0.001992  0  -0.08041  -0.156343  0  3.925961  0
C  C123  1  0.84013875  0.32739147  0.97169115  1  0.002578  0  -0.080386  -0.156128  0  3.925821  0
C  C124  1  0.04235208  0.51799078  0.38388780  1  1.513913  0  0.20178  0.594241  0  4.134203  0
C  C125  1  0.54234996  0.48201763  0.11611793  1  1.513885  0  0.201808  0.594432  0  4.134115  0
C  C126  1  0.95764967  0.48201900  0.61611474  1  1.513654  0  0.201768  0.594351  0  4.134118  0
C  C127  1  0.45764938  0.51798691  0.88389053  1  1.513673  0  0.201852  0.594439  0  4.133974  0
C  C128  1  0.97924032  0.47941408  0.45506572  1  0.034783  0  -0.091242  -0.113933  0  3.862323  0
C  C129  1  0.47923967  0.52058639  0.04493883  1  0.058119  0  -0.091325  -0.114228  0  3.862794  0
C  C130  1  0.02076063  0.52058846  0.54493798  1  0.05821  0  -0.091371  -0.114284  0  3.862767  0
C  C131  1  0.52075887  0.47941156  0.95506890  1  0.034864  0  -0.091281  -0.114091  0  3.862577  0
C  C132  1  0.85993296  0.49959216  0.44381956  1  -0.01589  0  -0.162806  -0.315519  0  3.908871  0
C  C133  1  0.35993633  0.50041273  0.05618196  1  -0.016427  0  -0.162758  -0.315522  0  3.908907  0
C  C134  1  0.14006558  0.50041433  0.55618327  1  -0.016544  0  -0.162775  -0.315561  0  3.908923  0
C  C135  1  0.64006783  0.49958981  0.94382238  1  -0.015886  0  -0.162832  -0.315564  0  3.908908  0
C  C136  1  0.80539820  0.44879177  0.36596006  1  1.548224  0  0.210408  0.631718  0  4.136062  0
C  C137  1  0.30539791  0.55121372  0.13404335  1  1.548666  0  0.210359  0.631817  0  4.135947  0
C  C138  1  0.19460275  0.55121407  0.63404465  1  1.548626  0  0.210292  0.631675  0  4.136094  0
C  C139  1  0.69460063  0.44879015  0.86596244  1  1.548169  0  0.210383  0.631704  0  4.136233  0
N  N140  1  0.19731462  0.18476919  0.26706375  1  -0.221506  0  -0.141198  -0.099857  0  3.557326  0
N  N141  1  0.69731671  0.81523020  0.23293679  1  -0.22092  0  -0.141204  -0.099854  0  3.557517  0
N  N142  1  0.80268391  0.81523136  0.73293453  1  -0.221555  0  -0.141253  -0.099928  0  3.557471  0
N  N143  1  0.30268505  0.18476969  0.76706466  1  -0.221529  0  -0.14119  -0.099895  0  3.557407  0
N  N144  1  0.29824525  0.16527723  0.24150227  1  -0.132313  0  -0.115828  -0.108141  0  3.272518  0
N  N145  1  0.79824182  0.83472166  0.25850169  1  -0.132329  0  -0.115789  -0.108109  0  3.272535  0
N  N146  1  0.70175892  0.83472201  0.75849976  1  -0.132264  0  -0.115747  -0.108034  0  3.272479  0
N  N147  1  0.20175671  0.16527693  0.74150352  1  -0.132223  0  -0.115863  -0.108157  0  3.272598  0
N  N148  1  0.31108047  0.07876070  0.23800073  1  -0.630646  0  -0.219974  -0.263848  0  3.218498  0
N  N149  1  0.81108123  0.92123953  0.26200406  1  -0.63059  0  -0.219982  -0.263905  0  3.218201  0
N  N150  1  0.68891726  0.92124053  0.76200347  1  -0.630642  0  -0.220008  -0.263897  0  3.218233  0
N  N151  1  0.18891891  0.07875907  0.73800245  1  -0.630474  0  -0.219953  -0.263809  0  3.218476  0
N  N152  1  0.14234126  0.11241487  0.28007165  1  -0.683037  0  -0.228395  -0.277567  0  3.182235  0
N  N153  1  0.64234021  0.88758443  0.21992552  1  -0.683672  0  -0.22841  -0.277561  0  3.182231  0
N  N154  1  0.85765969  0.88758632  0.71992346  1  -0.683042  0  -0.228369  -0.277497  0  3.182152  0
N  N155  1  0.35766074  0.11241546  0.78007334  1  -0.683107  0  -0.228364  -0.277464  0  3.182257  0
N  N156  1  0.16822860  0.77254489  0.27415031  1  -1.258499  0  -0.342175  -0.265713  0  3.548636  0
N  N157  1  0.66823525  0.22745645  0.22585363  1  -1.258493  0  -0.342245  -0.265781  0  3.549013  0
N  N158  1  0.83176271  0.22745700  0.72585461  1  -1.258775  0  -0.342284  -0.265857  0  3.549026  0
N  N159  1  0.33177535  0.77254675  0.77414949  1  -1.258899  0  -0.342144  -0.265718  0  3.548735  0
N  N160  1  0.33214711  0.37371640  0.34701715  1  -0.204465  0  -0.118819  -0.087534  0  3.519692  0
N  N161  1  0.83214779  0.62628053  0.15297954  1  -0.204313  0  -0.118796  -0.0875  0  3.519967  0
N  N162  1  0.66785223  0.62628215  0.65297897  1  -0.204301  0  -0.118802  -0.087522  0  3.51995  0
N  N163  1  0.16784914  0.37371738  0.84701716  1  -0.204294  0  -0.118856  -0.087681  0  3.51987  0
N  N164  1  0.40768672  0.37614435  0.28735648  1  -0.087651  0  -0.097793  -0.077523  0  3.250807  0
N  N165  1  0.90768599  0.62385136  0.21264024  1  -0.088129  0  -0.097772  -0.077476  0  3.250775  0
N  N166  1  0.59231262  0.62385420  0.71263834  1  -0.088114  0  -0.097828  -0.077558  0  3.250593  0
N  N167  1  0.09231335  0.37614850  0.78735407  1  -0.087787  0  -0.097775  -0.077394  0  3.250743  0
N  N168  1  0.50302789  0.37370739  0.32746253  1  -0.683643  0  -0.221679  -0.257009  0  3.381874  0
N  N169  1  0.00303028  0.62628710  0.17253444  1  -0.683038  0  -0.221697  -0.257055  0  3.381645  0
N  N170  1  0.49696743  0.62628654  0.67253114  1  -0.682914  0  -0.221632  -0.256887  0  3.381413  0
N  N171  1  0.99697228  0.37371013  0.82745893  1  -0.683666  0  -0.221657  -0.256999  0  3.381777  0
N  N172  1  0.37478509  0.37024354  0.42648387  1  -0.66944  0  -0.210816  -0.257996  0  3.250954  0
N  N173  1  0.87478549  0.62975410  0.07351170  1  -0.66964  0  -0.210858  -0.258083  0  3.251102  0
N  N174  1  0.62521426  0.62975172  0.57351124  1  -0.669681  0  -0.210877  -0.258089  0  3.251249  0
N  N175  1  0.12521064  0.37023986  0.92648651  1  -0.669491  0  -0.210798  -0.257983  0  3.251093  0
N  N176  1  0.70662063  0.37149746  0.62182644  1  -1.238776  0  -0.326262  -0.254241  0  3.497628  0
N  N177  1  0.20662052  0.62850411  0.87817389  1  -1.23884  0  -0.326209  -0.254173  0  3.497608  0
N  N178  1  0.29337951  0.62849714  0.37817054  1  -1.238887  0  -0.326322  -0.254295  0  3.497567  0
N  N179  1  0.79337722  0.37149510  0.12182230  1  -1.238612  0  -0.326196  -0.254295  0  3.497736  0
O  O180  1  0.09498529  0.46798273  0.32653557  1  -1.179779  0  -0.33269  -0.565766  0  2.296372  0
O  O181  1  0.59498346  0.53202178  0.17346531  1  -1.179948  0  -0.332661  -0.565743  0  2.296537  0
O  O182  1  0.90501726  0.53202308  0.67346265  1  -1.179898  0  -0.332643  -0.565729  0  2.29656  0
O  O183  1  0.40501106  0.46798208  0.82653918  1  -1.179727  0  -0.332667  -0.565778  0  2.296267  0
O  O184  1  0.04026289  0.60109056  0.38413110  1  -1.125334  0  -0.324087  -0.532948  0  2.208934  0
O  O185  1  0.54026143  0.39891258  0.11587405  1  -1.125202  0  -0.32413  -0.533051  0  2.208532  0
O  O186  1  0.95973725  0.39891396  0.61587216  1  -1.125153  0  -0.324096  -0.532992  0  2.208436  0
O  O187  1  0.45974354  0.60108733  0.88413131  1  -1.125173  0  -0.324153  -0.53305  0  2.208736  0
O  O188  1  0.83540391  0.37247701  0.33504202  1  -1.201995  0  -0.312917  -0.570446  0  2.245282  0
O  O189  1  0.33539502  0.62753048  0.16495843  1  -1.202166  0  -0.312872  -0.570478  0  2.245412  0
O  O190  1  0.16460427  0.62753014  0.66496153  1  -1.202182  0  -0.312837  -0.57043  0  2.245347  0
O  O191  1  0.66459548  0.37247468  0.83504036  1  -1.202008  0  -0.312919  -0.570432  0  2.245321  0
O  O192  1  0.72342515  0.48566538  0.33478976  1  -1.171227  0  -0.319897  -0.546397  0  2.295572  0
O  O193  1  0.22342651  0.51433009  0.16521171  1  -1.171212  0  -0.319892  -0.546417  0  2.295341  0
O  O194  1  0.27657420  0.51433056  0.66521127  1  -1.171195  0  -0.319854  -0.54631  0  2.295417  0
O  O195  1  0.77657364  0.48566520  0.83479248  1  -1.171137  0  -0.319833  -0.546332  0  2.295608  0
O  O196  1  0.18070335  0.34403910  0.16826576  1  -1.23503  0  -0.582958  -0.752951  0  2.060426  0
O  O197  1  0.68071192  0.65596290  0.33173568  1  -1.235004  0  -0.583046  -0.75309  0  2.060485  0
O  O198  1  0.81928876  0.65596276  0.83173267  1  -1.23504  0  -0.583066  -0.753049  0  2.060506  0
O  O199  1  0.31930108  0.34404030  0.66826744  1  -1.235134  0  -0.582944  -0.75296  0  2.060252  0
O  O200  1  0.19413536  0.28364459  0.46580470  1  -1.228763  0  -0.581262  -0.739079  0  2.048111  0
O  O201  1  0.69413417  0.71635941  0.03419829  1  -1.228488  0  -0.581339  -0.73923  0  2.047975  0
O  O202  1  0.80586479  0.71635662  0.53419560  1  -1.228424  0  -0.581276  -0.739145  0  2.048028  0
O  O203  1  0.30586035  0.28364445  0.96580685  1  -1.228753  0  -0.581267  -0.739103  0  2.048122  0
O  O204  1  0.99503641  0.26698401  0.36559594  1  -1.270382  0  -0.582223  -0.755003  0  2.085036  0
O  O205  1  0.49503725  0.73302107  0.13440526  1  -1.270399  0  -0.582206  -0.755025  0  2.08495  0
O  O206  1  0.00496293  0.73302049  0.63440408  1  -1.270429  0  -0.5822  -0.755027  0  2.084995  0
O  O207  1  0.50496129  0.26698279  0.86559793  1  -1.270392  0  -0.582197  -0.755043  0  2.085019  0
