# generated using pymatgen
data_CdH16C20N4O5
_symmetry_space_group_name_H-M   'P 1'
_cell_length_a   14.93627549
_cell_length_b   17.79311478
_cell_length_c   17.93136928
_cell_angle_alpha   89.99908942
_cell_angle_beta   89.99837064
_cell_angle_gamma   90.00031822
_symmetry_Int_Tables_number   1
_chemical_formula_structural   CdH16C20N4O5
_chemical_formula_sum   'Cd8 H128 C160 N32 O40'
_cell_volume   4765.49205294
_cell_formula_units_Z   8
loop_
 _symmetry_equiv_pos_site_id
 _symmetry_equiv_pos_as_xyz
  1  'x, y, z'
loop_
 _atom_site_type_symbol
 _atom_site_label
 _atom_site_symmetry_multiplicity
 _atom_site_fract_x
 _atom_site_fract_y
 _atom_site_fract_z
 _atom_site_occupancy
 _atom_site_pbe_bader_charge
 _atom_site_pbe_bader_spin_density
 _atom_site_pbe_cm5_charge
 _atom_site_pbe_ddec_charge
 _atom_site_pbe_ddec_spin_density
 _atom_site_pbe_ddec_sum_bond_order
 _atom_site_pbe_magmom
Cd  Cd0  1  0.15579470  0.48389603  0.55429445  1  1.269963  0  0.768243  0.898253  0  2.194273  0
Cd  Cd1  1  0.34419806  0.01610268  0.05428946  1  1.269834  0  0.768142  0.897994  0  2.194479  0
Cd  Cd2  1  0.65580791  0.01610086  0.44571487  1  1.269663  0  0.768168  0.898046  0  2.194582  0
Cd  Cd3  1  0.84419862  0.48389061  0.94570645  1  1.269816  0  0.768161  0.898042  0  2.194599  0
Cd  Cd4  1  0.84419986  0.51609752  0.44570590  1  1.269876  0  0.768171  0.898045  0  2.194626  0
Cd  Cd5  1  0.65580386  0.98390435  0.94570029  1  1.269912  0  0.768207  0.898124  0  2.194392  0
Cd  Cd6  1  0.34419200  0.98390056  0.55428771  1  1.269697  0  0.768164  0.897994  0  2.194662  0
Cd  Cd7  1  0.15580062  0.51610744  0.05429724  1  1.269823  0  0.768213  0.898255  0  2.19435  0
H  H8  1  0.97696389  0.51607073  0.60268731  1  0.636592  0  0.294863  0.403474  0  0.918573  0
H  H9  1  0.52302204  0.98391472  0.10268928  1  0.636406  0  0.29481  0.403339  0  0.918831  0
H  H10  1  0.47698413  0.98392012  0.39730983  1  0.636587  0  0.294857  0.403445  0  0.91871  0
H  H11  1  0.02302762  0.51607058  0.89731252  1  0.636684  0  0.294884  0.403524  0  0.918504  0
H  H12  1  0.02302263  0.48392001  0.39730746  1  0.636471  0  0.29486  0.403475  0  0.918663  0
H  H13  1  0.47697519  0.01608782  0.89730493  1  0.636401  0  0.294839  0.403308  0  0.918811  0
H  H14  1  0.52302113  0.01607849  0.60269052  1  0.636504  0  0.294826  0.40339  0  0.918784  0
H  H15  1  0.97696827  0.48392522  0.10269117  1  0.636589  0  0.294884  0.403512  0  0.918573  0
H  H16  1  0.97595735  0.43863377  0.56429823  1  0.639671  0  0.283235  0.377108  0  0.973784  0
H  H17  1  0.52403805  0.06135706  0.06431297  1  0.640172  0  0.283218  0.377061  0  0.973833  0
H  H18  1  0.47596687  0.06136240  0.43569120  1  0.64011  0  0.283169  0.376991  0  0.973931  0
H  H19  1  0.02404036  0.43863414  0.93570059  1  0.639754  0  0.283223  0.37711  0  0.973789  0
H  H20  1  0.02403922  0.56136315  0.43568483  1  0.640374  0  0.283215  0.377091  0  0.973803  0
H  H21  1  0.47596320  0.93864436  0.93568403  1  0.640098  0  0.283266  0.37717  0  0.973689  0
H  H22  1  0.52403371  0.93864015  0.56431416  1  0.640144  0  0.283211  0.377041  0  0.973884  0
H  H23  1  0.97595955  0.56136109  0.06430087  1  0.639781  0  0.283207  0.377045  0  0.973864  0
H  H24  1  0.83999134  0.08545586  0.55948760  1  0.128764  0  0.121622  0.121793  0  0.997859  0
H  H25  1  0.66000623  0.41454179  0.05949131  1  0.128692  0  0.121667  0.12181  0  0.997753  0
H  H26  1  0.33998757  0.41454022  0.44051789  1  0.128281  0  0.121615  0.121708  0  0.997865  0
H  H27  1  0.16001079  0.08544950  0.94051456  1  0.128501  0  0.121636  0.121852  0  0.99795  0
H  H28  1  0.16001928  0.91454724  0.44050940  1  0.128544  0  0.121627  0.121838  0  0.997886  0
H  H29  1  0.33999301  0.58546019  0.94052019  1  0.12875  0  0.121643  0.121768  0  0.997864  0
H  H30  1  0.66001167  0.58545221  0.55948803  1  0.128445  0  0.121616  0.121792  0  0.997935  0
H  H31  1  0.83997908  0.91454124  0.05948133  1  0.12829  0  0.121613  0.121728  0  0.997896  0
H  H32  1  0.80068733  0.87612649  0.45540948  1  0.176043  0  0.136997  0.110499  0  1.019304  0
H  H33  1  0.69931606  0.62386905  0.95538453  1  0.175808  0  0.13694  0.110457  0  1.019152  0
H  H34  1  0.30067748  0.62386857  0.54460413  1  0.176164  0  0.136962  0.110527  0  1.019244  0
H  H35  1  0.19931413  0.87612047  0.04460807  1  0.175785  0  0.137012  0.110571  0  1.019167  0
H  H36  1  0.19930522  0.12387774  0.54460258  1  0.175924  0  0.136992  0.110478  0  1.019241  0
H  H37  1  0.30068385  0.37612563  0.04460132  1  0.175959  0  0.136973  0.110497  0  1.019171  0
H  H38  1  0.69931306  0.37612722  0.45539678  1  0.175853  0  0.136967  0.110497  0  1.019195  0
H  H39  1  0.80069180  0.12388038  0.95539841  1  0.175926  0  0.136988  0.110521  0  1.019149  0
H  H40  1  0.98508877  0.99399951  0.59306455  1  0.139547  0  0.126522  0.129474  0  0.996746  0
H  H41  1  0.51492293  0.50600408  0.09306309  1  0.139668  0  0.126511  0.129508  0  0.99697  0
H  H42  1  0.48507548  0.50599812  0.40694411  1  0.13982  0  0.126474  0.129404  0  0.997165  0
H  H43  1  0.01492256  0.99399692  0.90694392  1  0.139801  0  0.126471  0.129395  0  0.99718  0
H  H44  1  0.01493391  0.00600022  0.40692799  1  0.139555  0  0.126485  0.129477  0  0.997078  0
H  H45  1  0.48508636  0.49400183  0.90694060  1  0.139653  0  0.126489  0.129426  0  0.996915  0
H  H46  1  0.51491841  0.49399318  0.59306349  1  0.139622  0  0.126509  0.129491  0  0.996987  0
H  H47  1  0.98507132  0.00599326  0.09306200  1  0.139744  0  0.126469  0.129483  0  0.99713  0
H  H48  1  0.91367364  0.80490002  0.42350371  1  0.069805  0  0.112847  0.122005  0  0.987527  0
H  H49  1  0.58633485  0.69509883  0.92350208  1  0.069647  0  0.112876  0.122002  0  0.987541  0
H  H50  1  0.41366116  0.69509895  0.57650219  1  0.069524  0  0.112867  0.122005  0  0.987405  0
H  H51  1  0.08632803  0.80488790  0.07649041  1  0.069461  0  0.112891  0.122086  0  0.987416  0
H  H52  1  0.08630820  0.19510083  0.57649273  1  0.070074  0  0.112876  0.12198  0  0.987352  0
H  H53  1  0.41367443  0.30489697  0.07649604  1  0.069767  0  0.112849  0.122002  0  0.98754  0
H  H54  1  0.58633005  0.30490022  0.42350597  1  0.069793  0  0.112856  0.122011  0  0.987517  0
H  H55  1  0.91368192  0.19510677  0.92350993  1  0.070075  0  0.11287  0.122025  0  0.987432  0
H  H56  1  0.03121008  0.88093072  0.63033886  1  0.058377  0  0.104759  0.107826  0  1.007292  0
H  H57  1  0.46877862  0.61906538  0.13033263  1  0.058308  0  0.10479  0.107886  0  1.0073  0
H  H58  1  0.53121449  0.61906698  0.36966108  1  0.058305  0  0.104785  0.107872  0  1.007261  0
H  H59  1  0.96877843  0.88094510  0.86966415  1  0.058215  0  0.104759  0.10788  0  1.007119  0
H  H60  1  0.96878247  0.11906395  0.36966204  1  0.058165  0  0.10474  0.107884  0  1.007296  0
H  H61  1  0.53121325  0.38093266  0.86966604  1  0.058434  0  0.10478  0.107839  0  1.007299  0
H  H62  1  0.46878208  0.38093106  0.63033314  1  0.058401  0  0.104766  0.107825  0  1.007332  0
H  H63  1  0.03121545  0.11905857  0.13034512  1  0.05806  0  0.104761  0.107899  0  1.006955  0
H  H64  1  0.11816700  0.76068212  0.63672367  1  0.074016  0  0.100509  0.095425  0  1.051761  0
H  H65  1  0.38182885  0.73931894  0.13671929  1  0.07408  0  0.100554  0.095456  0  1.051686  0
H  H66  1  0.61817039  0.73931769  0.36327977  1  0.074013  0  0.100545  0.095445  0  1.051718  0
H  H67  1  0.88182542  0.76068719  0.86327398  1  0.073673  0  0.100532  0.095455  0  1.051786  0
H  H68  1  0.88182956  0.23931649  0.36326663  1  0.073813  0  0.100485  0.095386  0  1.051773  0
H  H69  1  0.61816437  0.26068191  0.86327325  1  0.073897  0  0.100533  0.095491  0  1.051732  0
H  H70  1  0.38182952  0.26068092  0.63672169  1  0.074007  0  0.100542  0.095391  0  1.051809  0
H  H71  1  0.11816445  0.23931535  0.13673585  1  0.073681  0  0.100495  0.095428  0  1.051861  0
H  H72  1  0.99744765  0.68607890  0.43342314  1  0.108269  0  0.114102  0.119379  0  0.989895  0
H  H73  1  0.50257054  0.81392148  0.93341995  1  0.108133  0  0.114104  0.119477  0  0.989986  0
H  H74  1  0.49743762  0.81391541  0.56658021  1  0.108248  0  0.114188  0.119656  0  0.989821  0
H  H75  1  0.00257133  0.68606597  0.06656394  1  0.108128  0  0.114068  0.119449  0  0.989876  0
H  H76  1  0.00254690  0.31392139  0.56657999  1  0.108495  0  0.114099  0.119374  0  0.9899  0
H  H77  1  0.49744075  0.18608331  0.06657928  1  0.108242  0  0.114174  0.119546  0  0.989851  0
H  H78  1  0.50256096  0.18608263  0.43342237  1  0.108262  0  0.114154  0.119528  0  0.989896  0
H  H79  1  0.99744264  0.31392477  0.93343195  1  0.108381  0  0.114083  0.119475  0  0.989828  0
H  H80  1  0.16950686  0.56046921  0.73162202  1  0.141205  0  0.121074  0.124437  0  1.003536  0
H  H81  1  0.33050049  0.93953539  0.23162017  1  0.141565  0  0.121082  0.124496  0  1.00347  0
H  H82  1  0.66951410  0.93953141  0.26839024  1  0.141489  0  0.121115  0.124513  0  1.003478  0
H  H83  1  0.83049967  0.56046431  0.76837544  1  0.141221  0  0.121073  0.124435  0  1.003646  0
H  H84  1  0.83049037  0.43953277  0.26838167  1  0.141194  0  0.121055  0.124495  0  1.003541  0
H  H85  1  0.66950879  0.06046827  0.76837070  1  0.141153  0  0.121049  0.124463  0  1.003565  0
H  H86  1  0.33049050  0.06046720  0.73161122  1  0.14154  0  0.121151  0.124544  0  1.003431  0
H  H87  1  0.16950828  0.43953767  0.23163048  1  0.141286  0  0.121034  0.124458  0  1.003636  0
H  H88  1  0.25157204  0.34600163  0.65920440  1  0.173779  0  0.137576  0.110522  0  0.998861  0
H  H89  1  0.24842719  0.15400271  0.15920119  1  0.173612  0  0.137595  0.110497  0  0.998912  0
H  H90  1  0.75158167  0.15400077  0.34079706  1  0.173546  0  0.137547  0.110393  0  0.999105  0
H  H91  1  0.74840767  0.34599968  0.84079868  1  0.173205  0  0.137509  0.110377  0  0.999095  0
H  H92  1  0.74841315  0.65400035  0.34079149  1  0.173299  0  0.137525  0.110355  0  0.999143  0
H  H93  1  0.75157874  0.84600208  0.84079637  1  0.173303  0  0.137559  0.110488  0  0.999082  0
H  H94  1  0.24841422  0.84599615  0.65920998  1  0.173144  0  0.13754  0.1104  0  0.998997  0
H  H95  1  0.25157550  0.65400286  0.15919944  1  0.173588  0  0.137572  0.11047  0  0.998935  0
H  H96  1  0.21276023  0.47486329  0.85619382  1  0.119833  0  0.122696  0.13139  0  1.029082  0
H  H97  1  0.28725573  0.02514632  0.35619339  1  0.120026  0  0.122643  0.131347  0  1.029093  0
H  H98  1  0.71275699  0.02513780  0.14381303  1  0.120084  0  0.122649  0.131297  0  1.029094  0
H  H99  1  0.78724909  0.47485737  0.64380109  1  0.119965  0  0.122711  0.131347  0  1.029071  0
H  H100  1  0.78724704  0.52514038  0.14381043  1  0.119967  0  0.12269  0.131348  0  1.029072  0
H  H101  1  0.71276292  0.97486071  0.64379859  1  0.120325  0  0.122681  0.131371  0  1.028976  0
H  H102  1  0.28724493  0.97486586  0.85618676  1  0.120031  0  0.122637  0.131305  0  1.029078  0
H  H103  1  0.21276153  0.52514686  0.35619647  1  0.120159  0  0.122697  0.131329  0  1.029125  0
H  H104  1  0.37517630  0.29522322  0.73904274  1  0.078225  0  0.101336  0.104741  0  1.041361  0
H  H105  1  0.12482223  0.20476748  0.23904669  1  0.078741  0  0.101318  0.104687  0  1.041355  0
H  H106  1  0.87518696  0.20477191  0.26095578  1  0.078648  0  0.101295  0.104658  0  1.041335  0
H  H107  1  0.62480643  0.29523319  0.76096504  1  0.078906  0  0.101316  0.104689  0  1.041261  0
H  H108  1  0.62481089  0.70477202  0.26095761  1  0.078696  0  0.101295  0.104651  0  1.041283  0
H  H109  1  0.87518639  0.79522045  0.76096648  1  0.078192  0  0.10132  0.104735  0  1.041222  0
H  H110  1  0.12481228  0.79522614  0.73904791  1  0.078751  0  0.101335  0.104682  0  1.041376  0
H  H111  1  0.37518344  0.70476373  0.23902583  1  0.07819  0  0.101308  0.104675  0  1.041344  0
H  H112  1  0.17276382  0.35170958  0.90118514  1  0.12966  0  0.105632  0.121596  0  1.039106  0
H  H113  1  0.32724726  0.14830269  0.40118126  1  0.129633  0  0.105654  0.121733  0  1.038852  0
H  H114  1  0.67276558  0.14829020  0.09881987  1  0.129724  0  0.105651  0.121699  0  1.039118  0
H  H115  1  0.82723667  0.35170626  0.59881896  1  0.129789  0  0.105661  0.121705  0  1.038857  0
H  H116  1  0.82723810  0.64829859  0.09881075  1  0.129594  0  0.105641  0.121698  0  1.039076  0
H  H117  1  0.67276805  0.85170547  0.59882355  1  0.129926  0  0.10564  0.121798  0  1.038799  0
H  H118  1  0.32723366  0.85171122  0.90118549  1  0.129736  0  0.10564  0.121619  0  1.039033  0
H  H119  1  0.17276725  0.64829853  0.40118473  1  0.12993  0  0.105683  0.121802  0  1.038861  0
H  H120  1  0.41422725  0.18027545  0.81229581  1  0.095108  0  0.109368  0.115268  0  0.984709  0
H  H121  1  0.08576007  0.31971238  0.31229721  1  0.095002  0  0.109372  0.115284  0  0.984689  0
H  H122  1  0.91423111  0.31972548  0.18770010  1  0.095054  0  0.109366  0.115253  0  0.984667  0
H  H123  1  0.58575942  0.18028361  0.68771489  1  0.094766  0  0.109319  0.115252  0  0.984711  0
H  H124  1  0.58575994  0.81972147  0.18770342  1  0.094938  0  0.109367  0.115319  0  0.9847  0
H  H125  1  0.91423113  0.68027161  0.68770983  1  0.09495  0  0.109318  0.115278  0  0.984628  0
H  H126  1  0.08576947  0.68027594  0.81230080  1  0.095067  0  0.109368  0.115262  0  0.984631  0
H  H127  1  0.41423915  0.81971556  0.31227152  1  0.094681  0  0.109325  0.115299  0  0.984716  0
H  H128  1  0.22003567  0.24131356  0.97773677  1  0.124488  0  0.099142  0.100051  0  1.038648  0
H  H129  1  0.27996947  0.25870253  0.47772056  1  0.124693  0  0.099102  0.099973  0  1.038892  0
H  H130  1  0.72003136  0.25869431  0.02227493  1  0.124685  0  0.099141  0.100045  0  1.038735  0
H  H131  1  0.77995876  0.24130394  0.52228134  1  0.124833  0  0.099161  0.100126  0  1.038854  0
H  H132  1  0.77996358  0.75869909  0.02226525  1  0.124518  0  0.099147  0.100043  0  1.038699  0
H  H133  1  0.72004249  0.74130395  0.52227533  1  0.124774  0  0.09916  0.100106  0  1.038733  0
H  H134  1  0.27996118  0.74130767  0.97772821  1  0.124668  0  0.099132  0.100067  0  1.038729  0
H  H135  1  0.22005119  0.75870253  0.47772514  1  0.124778  0  0.099173  0.100132  0  1.038778  0
C  C136  1  0.85342517  0.02785341  0.54327664  1  0.438536  0  0.000154  -0.025822  0  4.014447  0
C  C137  1  0.64657764  0.47214394  0.04327251  1  0.438954  0  8.1e-05  -0.025796  0  4.014263  0
C  C138  1  0.35341653  0.47214442  0.45672853  1  0.439154  0  8.6e-05  -0.025748  0  4.0142  0
C  C139  1  0.14658061  0.02785009  0.95672587  1  0.439051  0  4.4e-05  -0.025992  0  4.014624  0
C  C140  1  0.14658613  0.97214745  0.45672761  1  0.43879  0  6.3e-05  -0.025989  0  4.014289  0
C  C141  1  0.35342227  0.52785579  0.95672337  1  0.438739  0  0.000161  -0.025683  0  4.014275  0
C  C142  1  0.64658070  0.52785250  0.54327237  1  0.439163  0  -6e-06  -0.02598  0  4.014508  0
C  C143  1  0.85341796  0.97214402  0.04326890  1  0.439297  0  0.000115  -0.025728  0  4.014077  0
C  C144  1  0.83157013  0.92103357  0.48720332  1  0.959838  0  0.143875  0.097061  0  3.912394  0
C  C145  1  0.66842749  0.57896371  0.98719152  1  0.96005  0  0.144022  0.097178  0  3.91219  0
C  C146  1  0.33156309  0.57896221  0.51280565  1  0.960034  0  0.14403  0.097107  0  3.912196  0
C  C147  1  0.16842894  0.92102510  0.01280794  1  0.960428  0  0.143914  0.096975  0  3.911743  0
C  C148  1  0.16842710  0.07897010  0.51280651  1  0.960778  0  0.143977  0.097217  0  3.912071  0
C  C149  1  0.33156907  0.42103490  0.01280492  1  0.960104  0  0.143967  0.097109  0  3.912173  0
C  C150  1  0.66842946  0.42103528  0.48719191  1  0.960166  0  0.143983  0.097101  0  3.912115  0
C  C151  1  0.83157231  0.07896732  0.98719240  1  0.960154  0  0.143955  0.097052  0  3.912087  0
C  C152  1  0.92521558  0.98312463  0.56086982  1  0.22389  0  -0.003539  -0.116639  0  3.942291  0
C  C153  1  0.57478582  0.51686992  0.06086844  1  0.223724  0  -0.003509  -0.116673  0  3.94258  0
C  C154  1  0.42520931  0.51687384  0.43913190  1  0.223996  0  -0.003413  -0.116548  0  3.942469  0
C  C155  1  0.07478228  0.98312406  0.93913604  1  0.223836  0  -0.003376  -0.116482  0  3.942575  0
C  C156  1  0.07478098  0.01687735  0.43913164  1  0.224097  0  -0.003446  -0.116538  0  3.941954  0
C  C157  1  0.42521810  0.48312925  0.93913637  1  0.223837  0  -0.0035  -0.116665  0  3.94253  0
C  C158  1  0.57478324  0.48312196  0.56086900  1  0.224035  0  -0.003459  -0.116632  0  3.942404  0
C  C159  1  0.92521897  0.01687174  0.06086598  1  0.223758  0  -0.003536  -0.116796  0  3.942286  0
C  C160  1  0.96578140  0.85002127  0.52699400  1  0.316476  0  0.100234  0.175723  0  4.023993  0
C  C161  1  0.53421781  0.64997214  0.02698870  1  0.316818  0  0.10023  0.175832  0  4.023598  0
C  C162  1  0.46578420  0.64997009  0.47301401  1  0.316813  0  0.100276  0.175801  0  4.023508  0
C  C163  1  0.03421963  0.85001940  0.97300504  1  0.31912  0  0.100285  0.175616  0  4.024226  0
C  C164  1  0.03420847  0.14997509  0.47301081  1  0.320116  0  0.100148  0.175475  0  4.023725  0
C  C165  1  0.46577942  0.35002309  0.97301109  1  0.316718  0  0.100258  0.175687  0  4.023799  0
C  C166  1  0.53421303  0.35002458  0.52698690  1  0.316679  0  0.100308  0.175827  0  4.023851  0
C  C167  1  0.96578564  0.14997584  0.02699921  1  0.319633  0  0.100182  0.175488  0  4.023945  0
C  C168  1  0.95811829  0.79580185  0.47077014  1  0.055547  0  -0.087713  -0.17016  0  3.972299  0
C  C169  1  0.54188659  0.70419400  0.97076942  1  0.055506  0  -0.087784  -0.17014  0  3.971919  0
C  C170  1  0.45811149  0.70419003  0.52923414  1  0.055449  0  -0.087764  -0.170081  0  3.971846  0
C  C171  1  0.04189671  0.79579027  0.02921632  1  0.053667  0  -0.087852  -0.170251  0  3.972367  0
C  C172  1  0.04186823  0.20419957  0.52922295  1  0.052585  0  -0.087891  -0.170094  0  3.972134  0
C  C173  1  0.45812002  0.29580348  0.02923260  1  0.055477  0  -0.087702  -0.170078  0  3.972171  0
C  C174  1  0.54188239  0.29580127  0.47077234  1  0.055559  0  -0.087812  -0.170274  0  3.972309  0
C  C175  1  0.95812127  0.20420103  0.97077956  1  0.052554  0  -0.087826  -0.170125  0  3.972091  0
C  C176  1  0.02492331  0.83891762  0.58647759  1  -0.075333  0  -0.093465  -0.173538  0  4.006474  0
C  C177  1  0.47507358  0.66107638  0.08647278  1  -0.075261  0  -0.093402  -0.173546  0  4.006186  0
C  C178  1  0.52492047  0.66107556  0.41352306  1  -0.075447  0  -0.093413  -0.173489  0  4.006024  0
C  C179  1  0.97507564  0.83892570  0.91351605  1  -0.075317  0  -0.093415  -0.173495  0  4.005858  0
C  C180  1  0.97506924  0.16107930  0.41351551  1  -0.07594  0  -0.093412  -0.173726  0  4.006131  0
C  C181  1  0.52491964  0.33892167  0.91352534  1  -0.075549  0  -0.093403  -0.173398  0  4.006154  0
C  C182  1  0.47507475  0.33891911  0.58647394  1  -0.075383  0  -0.093439  -0.173546  0  4.00642  0
C  C183  1  0.02492360  0.16107628  0.08648430  1  -0.075176  0  -0.093382  -0.173464  0  4.005872  0
C  C184  1  0.07275891  0.77217615  0.59070310  1  0.068097  0  -0.081038  -0.078622  0  3.994706  0
C  C185  1  0.42723917  0.72782003  0.09069782  1  0.068024  0  -0.081164  -0.078714  0  3.994359  0
C  C186  1  0.57275665  0.72782344  0.40930031  1  0.068411  0  -0.081064  -0.078565  0  3.994159  0
C  C187  1  0.92723961  0.77217789  0.90929326  1  0.068286  0  -0.081115  -0.078763  0  3.994527  0
C  C188  1  0.92723497  0.22782471  0.40929390  1  0.068508  0  -0.080932  -0.078269  0  3.994484  0
C  C189  1  0.57275739  0.27217971  0.90929584  1  0.068147  0  -0.081102  -0.078782  0  3.994428  0
C  C190  1  0.42723791  0.27217854  0.59069892  1  0.068102  0  -0.081083  -0.078483  0  3.994551  0
C  C191  1  0.07276499  0.22782184  0.09070932  1  0.068215  0  -0.081065  -0.078647  0  3.994417  0
C  C192  1  0.00577481  0.72888825  0.47617924  1  -0.094565  0  -0.073157  -0.058516  0  3.955026  0
C  C193  1  0.49422757  0.77111523  0.97617563  1  -0.094415  0  -0.073166  -0.058781  0  3.955055  0
C  C194  1  0.50576893  0.77111214  0.52382576  1  -0.094051  0  -0.073231  -0.05892  0  3.954973  0
C  C195  1  0.99422503  0.72887963  0.02381051  1  -0.093981  0  -0.072984  -0.05863  0  3.955075  0
C  C196  1  0.99422242  0.27111373  0.52381943  1  -0.095312  0  -0.072962  -0.058377  0  3.954921  0
C  C197  1  0.50577502  0.22888675  0.02382081  1  -0.094767  0  -0.073224  -0.058798  0  3.955203  0
C  C198  1  0.49422161  0.22888759  0.47617514  1  -0.094895  0  -0.073089  -0.058595  0  3.955082  0
C  C199  1  0.00577621  0.27111673  0.97619095  1  -0.094069  0  -0.073079  -0.058737  0  3.955248  0
C  C200  1  0.06227778  0.71577047  0.53706415  1  -0.060953  0  -0.017714  -0.040464  0  3.969929  0
C  C201  1  0.43772749  0.78423275  0.03706275  1  -0.060819  0  -0.017687  -0.040375  0  3.969885  0
C  C202  1  0.56227338  0.78423132  0.46294174  1  -0.060945  0  -0.017739  -0.040661  0  3.96976  0
C  C203  1  0.93773912  0.71575510  0.96291469  1  -0.061521  0  -0.017747  -0.040287  0  3.969949  0
C  C204  1  0.93772548  0.28423545  0.46292672  1  -0.060509  0  -0.017742  -0.040677  0  3.970089  0
C  C205  1  0.56227912  0.21576979  0.96293704  1  -0.060213  0  -0.017758  -0.040458  0  3.969962  0
C  C206  1  0.43772251  0.21576504  0.53706530  1  -0.060437  0  -0.017773  -0.040611  0  3.970042  0
C  C207  1  0.06226413  0.28424295  0.03708064  1  -0.061512  0  -0.017694  -0.040373  0  3.970195  0
C  C208  1  0.10954482  0.64232186  0.54817654  1  1.570374  0  0.197889  0.563805  0  4.228923  0
C  C209  1  0.39046140  0.85768287  0.04817566  1  1.570672  0  0.197723  0.563554  0  4.229352  0
C  C210  1  0.60955534  0.85767791  0.45183994  1  1.570398  0  0.198107  0.564286  0  4.22828  0
C  C211  1  0.89046625  0.64230419  0.95181016  1  1.569574  0  0.197595  0.563322  0  4.229256  0
C  C212  1  0.89045776  0.35768181  0.45180820  1  1.568911  0  0.197798  0.56386  0  4.228738  0
C  C213  1  0.60954788  0.14232079  0.95182692  1  1.570175  0  0.197873  0.563885  0  4.228864  0
C  C214  1  0.39044055  0.14232126  0.54816933  1  1.56974  0  0.197852  0.563866  0  4.228912  0
C  C215  1  0.10954036  0.35769104  0.04818852  1  1.56917  0  0.197688  0.563739  0  4.229017  0
C  C216  1  0.19386074  0.50319933  0.73545346  1  0.43026  0  0.002771  -0.017111  0  3.980136  0
C  C217  1  0.30614313  0.99680352  0.23544682  1  0.430092  0  0.002625  -0.017306  0  3.979727  0
C  C218  1  0.69387183  0.99679972  0.26455655  1  0.429679  0  0.002634  -0.017284  0  3.97996  0
C  C219  1  0.80614274  0.50319887  0.76454658  1  0.430288  0  0.002747  -0.017065  0  3.979656  0
C  C220  1  0.80613247  0.49680265  0.26455135  1  0.430043  0  0.002655  -0.017348  0  3.979951  0
C  C221  1  0.69386682  0.00319790  0.76454460  1  0.429751  0  0.002722  -0.017248  0  3.979942  0
C  C222  1  0.30613009  0.00320057  0.73543989  1  0.429699  0  0.002557  -0.017286  0  3.979868  0
C  C223  1  0.19386253  0.49680367  0.23545656  1  0.429586  0  0.00273  -0.017305  0  3.979833  0
C  C224  1  0.23778702  0.39387770  0.69485233  1  0.967058  0  0.13765  0.087721  0  3.912185  0
C  C225  1  0.26221501  0.10613001  0.19485066  1  0.967942  0  0.137647  0.087765  0  3.91211  0
C  C226  1  0.73779354  0.10612857  0.30515058  1  0.967999  0  0.137613  0.087805  0  3.912064  0
C  C227  1  0.76219768  0.39387638  0.80515055  1  0.967643  0  0.137693  0.087923  0  3.912002  0
C  C228  1  0.76220418  0.60612878  0.30514802  1  0.967158  0  0.137662  0.087972  0  3.911998  0
C  C229  1  0.73779896  0.89387591  0.80514969  1  0.967524  0  0.13763  0.087683  0  3.912103  0
C  C230  1  0.26219967  0.89387397  0.69485033  1  0.967886  0  0.137736  0.087952  0  3.911988  0
C  C231  1  0.23779487  0.60612728  0.19485147  1  0.967431  0  0.137641  0.087828  0  3.912092  0
C  C232  1  0.21526583  0.46157155  0.79731663  1  0.295847  0  0.001211  -0.096893  0  3.89466  0
C  C233  1  0.28473942  0.03843339  0.29731438  1  0.295766  0  0.001357  -0.096788  0  3.89447  0
C  C234  1  0.71527205  0.03842844  0.20268960  1  0.296547  0  0.00132  -0.096741  0  3.89461  0
C  C235  1  0.78473471  0.46156917  0.70268072  1  0.295725  0  0.001213  -0.096816  0  3.8945  0
C  C236  1  0.78473274  0.53843100  0.20268651  1  0.296312  0  0.001339  -0.096696  0  3.894691  0
C  C237  1  0.71527924  0.96156859  0.70268207  1  0.296286  0  0.001308  -0.096857  0  3.89448  0
C  C238  1  0.28473255  0.96157354  0.79730907  1  0.296477  0  0.001378  -0.096714  0  3.89444  0
C  C239  1  0.21527257  0.53843337  0.29731851  1  0.296269  0  0.001311  -0.096629  0  3.894566  0
C  C240  1  0.27038192  0.32927430  0.81479867  1  0.301204  0  0.093927  0.172973  0  4.018122  0
C  C241  1  0.22962473  0.17073205  0.31479899  1  0.300614  0  0.09399  0.172907  0  4.01825  0
C  C242  1  0.77037754  0.17072539  0.18520457  1  0.300825  0  0.093915  0.172926  0  4.018342  0
C  C243  1  0.72961508  0.32927138  0.68520522  1  0.301253  0  0.093828  0.172848  0  4.018259  0
C  C244  1  0.72961263  0.67072768  0.18520335  1  0.301152  0  0.093877  0.172899  0  4.018411  0
C  C245  1  0.77038187  0.82926319  0.68521251  1  0.301417  0  0.09396  0.172974  0  4.018243  0
C  C246  1  0.22961300  0.82927210  0.81479800  1  0.301074  0  0.093906  0.172969  0  4.018155  0
C  C247  1  0.27037613  0.67073454  0.31479345  1  0.301086  0  0.094079  0.173192  0  4.018284  0
C  C248  1  0.33901510  0.28181810  0.79003325  1  -0.061273  0  -0.096899  -0.181704  0  3.9981  0
C  C249  1  0.16098169  0.21818077  0.29003501  1  -0.062214  0  -0.09694  -0.181546  0  3.998129  0
C  C250  1  0.83901620  0.21817966  0.20996558  1  -0.061655  0  -0.096833  -0.181509  0  3.998016  0
C  C251  1  0.66097089  0.28182513  0.70996638  1  -0.062752  0  -0.096923  -0.181624  0  3.998162  0
C  C252  1  0.66098012  0.71817995  0.20996041  1  -0.062626  0  -0.096836  -0.181484  0  3.998322  0
C  C253  1  0.83902559  0.78181671  0.70996422  1  -0.061923  0  -0.096896  -0.181614  0  3.998311  0
C  C254  1  0.16098103  0.78181276  0.79003700  1  -0.062268  0  -0.096854  -0.181487  0  3.998271  0
C  C255  1  0.33902768  0.71817685  0.29002449  1  -0.062058  0  -0.097025  -0.181798  0  3.997962  0
C  C256  1  0.22650366  0.31490405  0.88219126  1  -0.007959  0  -0.095684  -0.172301  0  3.969291  0
C  C257  1  0.27351142  0.18511302  0.38218306  1  -0.007159  0  -0.095797  -0.172565  0  3.969483  0
C  C258  1  0.72649899  0.18510048  0.11781638  1  -0.007467  0  -0.095773  -0.172609  0  3.969719  0
C  C259  1  0.77349727  0.31489623  0.61781732  1  -0.007374  0  -0.095691  -0.172382  0  3.969301  0
C  C260  1  0.77349759  0.68510018  0.11780909  1  -0.008173  0  -0.095686  -0.172485  0  3.969294  0
C  C261  1  0.72650590  0.81489233  0.61782064  1  -0.007223  0  -0.095707  -0.172537  0  3.969242  0
C  C262  1  0.27349356  0.81490150  0.88219066  1  -0.007444  0  -0.095689  -0.172352  0  3.969265  0
C  C263  1  0.22651269  0.68510237  0.38218525  1  -0.00835  0  -0.095813  -0.172677  0  3.969638  0
C  C264  1  0.36199248  0.21848040  0.83150604  1  0.035224  0  -0.078815  -0.067687  0  3.971247  0
C  C265  1  0.13801094  0.28152118  0.33149899  1  0.035945  0  -0.078826  -0.067922  0  3.971331  0
C  C266  1  0.86199138  0.28152141  0.16849390  1  0.035543  0  -0.078895  -0.067836  0  3.971379  0
C  C267  1  0.63800582  0.21848068  0.66850406  1  0.036007  0  -0.07876  -0.06779  0  3.971163  0
C  C268  1  0.63799672  0.78151764  0.16849430  1  0.036093  0  -0.0789  -0.067985  0  3.971266  0
C  C269  1  0.86198964  0.71847574  0.66850191  1  0.035798  0  -0.078839  -0.067901  0  3.971386  0
C  C270  1  0.13800786  0.71847776  0.83150867  1  0.035728  0  -0.07896  -0.067997  0  3.971227  0
C  C271  1  0.36199810  0.78152186  0.33149350  1  0.035975  0  -0.078782  -0.067814  0  3.971236  0
C  C272  1  0.25258086  0.25318664  0.92464720  1  -0.083517  0  -0.086872  -0.084999  0  3.981537  0
C  C273  1  0.24742474  0.24682525  0.42463642  1  -0.084105  0  -0.086834  -0.084867  0  3.981712  0
C  C274  1  0.75258070  0.24681802  0.07536260  1  -0.084053  0  -0.086871  -0.084896  0  3.981758  0
C  C275  1  0.74741163  0.25318500  0.57536124  1  -0.084166  0  -0.086943  -0.085193  0  3.98209  0
C  C276  1  0.74742039  0.74682490  0.07535649  1  -0.082936  0  -0.086887  -0.085  0  3.981556  0
C  C277  1  0.75258656  0.75318066  0.57535835  1  -0.084206  0  -0.086989  -0.085146  0  3.981823  0
C  C278  1  0.24741921  0.75318228  0.92464332  1  -0.084013  0  -0.08688  -0.085048  0  3.981711  0
C  C279  1  0.25259497  0.74682316  0.42464357  1  -0.082953  0  -0.086963  -0.085086  0  3.981668  0
C  C280  1  0.31948938  0.20402191  0.89961635  1  -0.109918  0  -0.020342  -0.04036  0  3.972425  0
C  C281  1  0.18051038  0.29598925  0.39960973  1  -0.11029  0  -0.02022  -0.040106  0  3.972293  0
C  C282  1  0.81948735  0.29598700  0.10038907  1  -0.110265  0  -0.020363  -0.040368  0  3.972299  0
C  C283  1  0.68050615  0.20401394  0.60039342  1  -0.110025  0  -0.020202  -0.039997  0  3.972238  0
C  C284  1  0.68049915  0.79598400  0.10038399  1  -0.109895  0  -0.020349  -0.040226  0  3.972358  0
C  C285  1  0.81948819  0.70400655  0.60039396  1  -0.110125  0  -0.020317  -0.040292  0  3.972499  0
C  C286  1  0.18051056  0.70401330  0.89961797  1  -0.109924  0  -0.020389  -0.040353  0  3.972173  0
C  C287  1  0.31950648  0.79598973  0.39960358  1  -0.109571  0  -0.020239  -0.040221  0  3.972549  0
C  C288  1  0.34419065  0.13667533  0.94585846  1  1.581277  0  0.190836  0.560038  0  4.261069  0
C  C289  1  0.15580486  0.36333229  0.44584690  1  1.581205  0  0.190776  0.560115  0  4.261331  0
C  C290  1  0.84418259  0.36332864  0.05413745  1  1.581417  0  0.190844  0.560023  0  4.261001  0
C  C291  1  0.65581449  0.13666572  0.55415572  1  1.581288  0  0.190779  0.559876  0  4.261591  0
C  C292  1  0.65580524  0.86333452  0.05414914  1  1.581213  0  0.190848  0.560127  0  4.261379  0
C  C293  1  0.84418501  0.63665677  0.55415846  1  1.581226  0  0.190857  0.560034  0  4.261179  0
C  C294  1  0.15582134  0.63666940  0.94586401  1  1.581348  0  0.191095  0.560428  0  4.260678  0
C  C295  1  0.34420350  0.86334525  0.44582678  1  1.580019  0  0.190951  0.560283  0  4.261366  0
N  N296  1  0.79569242  0.98820151  0.49770492  1  -1.204921  0  -0.351108  -0.29292  0  3.522798  0
N  N297  1  0.70431154  0.51180009  0.99769946  1  -1.205239  0  -0.351126  -0.293052  0  3.522696  0
N  N298  1  0.29568329  0.51179521  0.50230267  1  -1.205649  0  -0.351158  -0.293068  0  3.522919  0
N  N299  1  0.20430977  0.98819845  0.00230138  1  -1.205733  0  -0.351066  -0.292927  0  3.522712  0
N  N300  1  0.20431218  0.01180496  0.50230100  1  -1.206031  0  -0.350999  -0.29291  0  3.523036  0
N  N301  1  0.29568971  0.48820189  0.00229921  1  -1.205352  0  -0.351165  -0.293148  0  3.522827  0
N  N302  1  0.70431461  0.48820283  0.49769768  1  -1.205618  0  -0.351055  -0.292892  0  3.52285  0
N  N303  1  0.79568680  0.01179904  0.99769618  1  -1.205519  0  -0.351061  -0.292936  0  3.522686  0
N  N304  1  0.91114822  0.91514017  0.52448903  1  -1.261079  0  -0.226685  0.00174  0  3.810882  0
N  N305  1  0.58884840  0.58485216  0.02448234  1  -1.261415  0  -0.226713  0.001706  0  3.810494  0
N  N306  1  0.41114583  0.58485205  0.47551972  1  -1.261738  0  -0.226838  0.001668  0  3.8105  0
N  N307  1  0.08884787  0.91513683  0.97551121  1  -1.261038  0  -0.22679  0.001865  0  3.810601  0
N  N308  1  0.08884366  0.08486350  0.47552024  1  -1.261242  0  -0.226799  0.00174  0  3.810608  0
N  N309  1  0.41115151  0.41514532  0.97551634  1  -1.261381  0  -0.226716  0.001848  0  3.810555  0
N  N310  1  0.58884872  0.41514093  0.52448174  1  -1.261365  0  -0.226735  0.00179  0  3.81077  0
N  N311  1  0.91115003  0.08485616  0.02448021  1  -1.261304  0  -0.226658  0.001934  0  3.810467  0
N  N312  1  0.20797564  0.46029451  0.67228166  1  -1.207371  0  -0.355584  -0.287487  0  3.539737  0
N  N313  1  0.29202649  0.03971356  0.17227586  1  -1.207931  0  -0.35553  -0.28737  0  3.539412  0
N  N314  1  0.70798230  0.03970937  0.32772586  1  -1.208074  0  -0.355463  -0.287332  0  3.539169  0
N  N315  1  0.79202020  0.46029185  0.82772185  1  -1.207065  0  -0.355529  -0.287478  0  3.539239  0
N  N316  1  0.79201825  0.53971084  0.32772538  1  -1.207222  0  -0.355474  -0.287417  0  3.539074  0
N  N317  1  0.70797676  0.96029348  0.82772058  1  -1.206963  0  -0.35547  -0.287266  0  3.539279  0
N  N318  1  0.29201225  0.96029036  0.67227225  1  -1.207883  0  -0.355516  -0.287438  0  3.539425  0
N  N319  1  0.20797770  0.53971125  0.17228296  1  -1.207525  0  -0.355554  -0.287432  0  3.539406  0
N  N320  1  0.24386087  0.39211237  0.77097808  1  -1.292488  0  -0.225585  0.005756  0  3.797893  0
N  N321  1  0.25614327  0.10789186  0.27097764  1  -1.292431  0  -0.225639  0.005729  0  3.79793  0
N  N322  1  0.74385994  0.10788774  0.22902357  1  -1.292801  0  -0.225545  0.005836  0  3.79802  0
N  N323  1  0.75613320  0.39211337  0.72902260  1  -1.292826  0  -0.225591  0.005648  0  3.797796  0
N  N324  1  0.75613904  0.60788961  0.22901892  1  -1.29252  0  -0.22559  0.005744  0  3.797889  0
N  N325  1  0.74386870  0.89210956  0.72902326  1  -1.293375  0  -0.2256  0.005821  0  3.797634  0
N  N326  1  0.25613863  0.89211142  0.77098124  1  -1.292636  0  -0.225604  0.00567  0  3.797791  0
N  N327  1  0.24386404  0.60788973  0.27097831  1  -1.292541  0  -0.22564  0.005614  0  3.797884  0
O  O328  1  0.09783644  0.59117998  0.49783402  1  -1.174372  0  -0.329572  -0.583778  0  2.347744  0
O  O329  1  0.40215918  0.90882935  0.99782987  1  -1.174557  0  -0.32947  -0.58363  0  2.34807  0
O  O330  1  0.59783687  0.90882648  0.50217549  1  -1.174745  0  -0.329561  -0.583915  0  2.348034  0
O  O331  1  0.90215582  0.59116452  0.00215790  1  -1.174212  0  -0.329372  -0.583449  0  2.348416  0
O  O332  1  0.90214339  0.40882425  0.50215573  1  -1.173925  0  -0.329539  -0.583771  0  2.347918  0
O  O333  1  0.59784140  0.09117207  0.00216657  1  -1.174482  0  -0.32956  -0.583847  0  2.347951  0
O  O334  1  0.40215902  0.09117438  0.49783267  1  -1.174517  0  -0.329537  -0.583786  0  2.348047  0
O  O335  1  0.09784074  0.40883016  0.99783687  1  -1.17406  0  -0.329523  -0.583785  0  2.348091  0
O  O336  1  0.15784302  0.63244523  0.60480250  1  -1.17123  0  -0.332882  -0.557143  0  2.095958  0
O  O337  1  0.34218739  0.86756028  0.10481266  1  -1.171358  0  -0.332761  -0.556985  0  2.096131  0
O  O338  1  0.65785352  0.86755646  0.39521115  1  -1.171082  0  -0.333073  -0.557395  0  2.095548  0
O  O339  1  0.84219477  0.63242318  0.89516929  1  -1.170537  0  -0.332745  -0.556955  0  2.095609  0
O  O340  1  0.84217631  0.36756575  0.39517554  1  -1.170117  0  -0.332861  -0.557177  0  2.095698  0
O  O341  1  0.65783930  0.13243945  0.89519438  1  -1.171231  0  -0.332837  -0.557148  0  2.095872  0
O  O342  1  0.34214438  0.13244215  0.60479811  1  -1.170761  0  -0.332822  -0.557117  0  2.095765  0
O  O343  1  0.15781251  0.36757374  0.10482660  1  -1.170192  0  -0.332691  -0.557067  0  2.09573  0
O  O344  1  0.38706982  0.08329716  0.91585118  1  -1.197267  0  -0.330215  -0.58336  0  2.174748  0
O  O345  1  0.11290863  0.41670026  0.41583701  1  -1.197787  0  -0.330223  -0.583498  0  2.174837  0
O  O346  1  0.88705706  0.41670758  0.08414650  1  -1.197454  0  -0.33022  -0.583396  0  2.174911  0
O  O347  1  0.61291824  0.08329586  0.58417165  1  -1.197802  0  -0.330243  -0.583408  0  2.174928  0
O  O348  1  0.61291469  0.91670538  0.08415586  1  -1.197769  0  -0.330232  -0.583464  0  2.175037  0
O  O349  1  0.88707722  0.58328542  0.58416835  1  -1.197991  0  -0.330259  -0.583424  0  2.174927  0
O  O350  1  0.11294352  0.58328766  0.91586388  1  -1.19738  0  -0.33035  -0.583568  0  2.174827  0
O  O351  1  0.38711649  0.91669825  0.41580639  1  -1.197811  0  -0.330123  -0.583428  0  2.175179  0
O  O352  1  0.31740999  0.13684010  0.01389927  1  -1.164811  0  -0.344388  -0.571114  0  2.212728  0
O  O353  1  0.18258615  0.36317163  0.51388824  1  -1.164338  0  -0.344358  -0.57115  0  2.212756  0
O  O354  1  0.81740304  0.36316094  0.98609895  1  -1.16484  0  -0.344311  -0.570992  0  2.212689  0
O  O355  1  0.68258135  0.13682876  0.48611208  1  -1.1643  0  -0.344339  -0.57102  0  2.212959  0
O  O356  1  0.68259193  0.86317256  0.98610944  1  -1.164506  0  -0.344339  -0.571089  0  2.212724  0
O  O357  1  0.81741912  0.63682979  0.48611211  1  -1.164233  0  -0.344315  -0.571006  0  2.21262  0
O  O358  1  0.18259084  0.63683655  0.01390474  1  -1.16498  0  -0.344442  -0.571232  0  2.212676  0
O  O359  1  0.31743262  0.86317941  0.51387154  1  -1.163548  0  -0.344557  -0.571239  0  2.212642  0
O  O360  1  0.01138503  0.46870629  0.60087555  1  -1.239832  0  -0.597774  -0.757299  0  2.022092  0
O  O361  1  0.48860480  0.03128156  0.10088752  1  -1.240044  0  -0.597764  -0.757108  0  2.022288  0
O  O362  1  0.51140059  0.03128822  0.39911545  1  -1.24018  0  -0.597748  -0.757124  0  2.022141  0
O  O363  1  0.98861153  0.46870511  0.89912057  1  -1.23996  0  -0.597783  -0.757327  0  2.021957  0
O  O364  1  0.98860551  0.53128614  0.39911309  1  -1.240219  0  -0.597772  -0.757263  0  2.022261  0
O  O365  1  0.51139444  0.96872323  0.89910948  1  -1.239898  0  -0.597819  -0.757192  0  2.0224  0
O  O366  1  0.48859597  0.96871601  0.60088490  1  -1.240156  0  -0.597732  -0.757097  0  2.022235  0
O  O367  1  0.01138771  0.53128900  0.10088145  1  -1.239794  0  -0.59777  -0.75728  0  2.022286  0
