# generated using pymatgen
data_CdP2H14(CO)8
_symmetry_space_group_name_H-M   'P 1'
_cell_length_a   6.75382365
_cell_length_b   9.33540570
_cell_length_c   10.50944304
_cell_angle_alpha   90.54750890
_cell_angle_beta   108.75712948
_cell_angle_gamma   89.98778666
_symmetry_Int_Tables_number   1
_chemical_formula_structural   CdP2H14(CO)8
_chemical_formula_sum   'Cd2 P4 H28 C16 O16'
_cell_volume   627.39404414
_cell_formula_units_Z   2
loop_
 _symmetry_equiv_pos_site_id
 _symmetry_equiv_pos_as_xyz
  1  'x, y, z'
loop_
 _atom_site_type_symbol
 _atom_site_label
 _atom_site_symmetry_multiplicity
 _atom_site_fract_x
 _atom_site_fract_y
 _atom_site_fract_z
 _atom_site_occupancy
 _atom_site_pbe_bader_spin_density
 _atom_site_pbe_cm5_charge
 _atom_site_pbe_ddec_charge
 _atom_site_pbe_ddec_spin_density
 _atom_site_pbe_ddec_sum_bond_order
 _atom_site_pbe_magmom
Cd  Cd0  1  0.72941775  0.24999405  0.00004347  1  0  0.810972  1.167893  0  1.990961  0
Cd  Cd1  1  0.27058402  0.75000551  0.99995555  1  0  0.810989  1.167924  0  1.990907  0
P  P2  1  0.67096137  0.53495369  0.20364882  1  0  0.369557  1.289054  0  5.271065  0
P  P3  1  0.46751256  0.96501397  0.79637782  1  0  0.369239  1.288981  0  5.27086  0
P  P4  1  0.32904662  0.46504373  0.79635528  1  0  0.36955  1.289001  0  5.271084  0
P  P5  1  0.53248295  0.03498452  0.20361988  1  0  0.369232  1.288948  0  5.270896  0
H  H6  1  0.49737126  0.33423585  0.19419065  1  0  0.310871  0.405909  0  0.928276  0
H  H7  1  0.30344322  0.16579280  0.80581348  1  0  0.310895  0.405954  0  0.928324  0
H  H8  1  0.50263051  0.66576371  0.80580837  1  0  0.310845  0.405868  0  0.928317  0
H  H9  1  0.69655854  0.83420676  0.19418744  1  0  0.310893  0.405978  0  0.928294  0
H  H10  1  0.12009446  0.07720889  0.11207215  1  0  0.294458  0.400606  0  0.926172  0
H  H11  1  0.00813834  0.42270203  0.88795737  1  0  0.294596  0.401795  0  0.924603  0
H  H12  1  0.87990419  0.92279067  0.88792526  1  0  0.294463  0.400621  0  0.926151  0
H  H13  1  0.99186655  0.57729860  0.11204325  1  0  0.294601  0.401802  0  0.924597  0
H  H14  1  0.93524802  0.05077163  0.16963521  1  0  0.297695  0.389071  0  0.943583  0
H  H15  1  0.76567908  0.44914421  0.83041651  1  0  0.297349  0.389645  0  0.943277  0
H  H16  1  0.06475218  0.94922793  0.83036537  1  0  0.297688  0.389052  0  0.943609  0
H  H17  1  0.23432581  0.55085428  0.16958505  1  0  0.297317  0.389604  0  0.94331  0
H  H18  1  0.07296119  0.40831368  0.29905508  1  0  0.104614  0.107801  0  1.022685  0
H  H19  1  0.77404155  0.09157862  0.70098214  1  0  0.104604  0.108285  0  1.022186  0
H  H20  1  0.92704213  0.59168588  0.70094711  1  0  0.104609  0.107801  0  1.02268  0
H  H21  1  0.22595240  0.90842094  0.29901619  1  0  0.104618  0.10831  0  1.022263  0
H  H22  1  0.34683128  0.22623163  0.52874486  1  0  0.090817  0.133563  0  1.039944  0
H  H23  1  0.81799017  0.27367708  0.47132610  1  0  0.090775  0.133391  0  1.039218  0
H  H24  1  0.65317050  0.77377114  0.47125513  1  0  0.090815  0.133566  0  1.039898  0
H  H25  1  0.18200533  0.72632356  0.52867447  1  0  0.09076  0.133387  0  1.039226  0
H  H26  1  0.51830568  0.36790148  0.60470462  1  0  0.092095  0.13511  0  1.018478  0
H  H27  1  0.91361752  0.13195152  0.39546515  1  0  0.09202  0.135409  0  1.018197  0
H  H28  1  0.48169608  0.63209701  0.39529628  1  0  0.09211  0.135107  0  1.018486  0
H  H29  1  0.08637799  0.86804804  0.60453446  1  0  0.092001  0.135396  0  1.01825  0
H  H30  1  0.41953861  0.35140846  0.42648914  1  0  0.090756  0.136437  0  1.01571  0
H  H31  1  0.99297947  0.14849849  0.57365491  1  0  0.090496  0.135657  0  1.015277  0
H  H32  1  0.58046472  0.64859110  0.57351019  1  0  0.090755  0.136411  0  1.015748  0
H  H33  1  0.00701291  0.85150107  0.42634500  1  0  0.090489  0.135639  0  1.015272  0
C  C34  1  0.85444520  0.52326972  0.37205061  1  0  -0.02642  -0.265969  0  3.978948  0
C  C35  1  0.48246866  0.97672021  0.62795531  1  0  -0.026232  -0.266396  0  3.978387  0
C  C36  1  0.14555657  0.47672984  0.62794936  1  0  -0.026432  -0.265939  0  3.978957  0
C  C37  1  0.51752528  0.02328042  0.37204493  1  0  -0.026201  -0.266307  0  3.978321  0
C  C38  1  0.04289933  0.45145379  0.38769403  1  0  -0.080818  -0.117957  0  3.957429  0
C  C39  1  0.65527015  0.04843597  0.61233032  1  0  -0.080563  -0.118065  0  3.956885  0
C  C40  1  0.95710555  0.54854577  0.61230849  1  0  -0.080787  -0.117957  0  3.957387  0
C  C41  1  0.34472224  0.95156573  0.38766770  1  0  -0.080589  -0.118131  0  3.956963  0
C  C42  1  0.19095317  0.42653731  0.51337823  1  0  0.002414  0.187392  0  3.956577  0
C  C43  1  0.67756557  0.07340261  0.48664544  1  0  0.00117  0.186515  0  3.957848  0
C  C44  1  0.80904860  0.57346332  0.48662270  1  0  0.002421  0.187453  0  3.956506  0
C  C45  1  0.32242526  0.92659802  0.51335129  1  0  0.001164  0.186587  0  3.957745  0
C  C46  1  0.38032830  0.34001472  0.51927796  1  0  -0.246913  -0.423775  0  3.93239  0
C  C47  1  0.86102375  0.15988388  0.48082511  1  0  -0.245563  -0.422271  0  3.930992  0
C  C48  1  0.61967502  0.65998377  0.48072327  1  0  -0.246927  -0.423778  0  3.932464  0
C  C49  1  0.13897018  0.84011676  0.51917608  1  0  -0.245534  -0.422283  0  3.931025  0
O  O50  1  0.47194412  0.44188365  0.20441817  1  0  -0.378305  -0.667214  0  2.268481  0
O  O51  1  0.26777490  0.05816042  0.79561844  1  0  -0.378343  -0.667371  0  2.26783  0
O  O52  1  0.52806076  0.55811591  0.79558339  1  0  -0.378248  -0.667141  0  2.268475  0
O  O53  1  0.73222529  0.94184022  0.20438311  1  0  -0.378343  -0.667398  0  2.267787  0
O  O54  1  0.01142831  0.12773884  0.14086656  1  0  -0.586306  -0.760997  0  2.038222  0
O  O55  1  0.87067199  0.37220011  0.85922883  1  0  -0.585956  -0.762745  0  2.035816  0
O  O56  1  0.98857346  0.87226179  0.85913341  1  0  -0.586319  -0.761008  0  2.03822  0
O  O57  1  0.12932665  0.62780052  0.14077049  1  0  -0.585937  -0.762719  0  2.035804  0
O  O58  1  0.58933240  0.68743778  0.16992547  1  0  -0.364254  -0.749629  0  2.273793  0
O  O59  1  0.41969817  0.81256122  0.83010294  1  0  -0.364587  -0.750521  0  2.273697  0
O  O60  1  0.41067250  0.31256392  0.83007516  1  0  -0.364301  -0.749627  0  2.273888  0
O  O61  1  0.58030046  0.18743727  0.16989636  1  0  -0.364574  -0.750486  0  2.273677  0
O  O62  1  0.77362634  0.47033201  0.10660409  1  0  -0.375795  -0.783146  0  2.307693  0
O  O63  1  0.66729342  0.02964118  0.89339905  1  0  -0.375331  -0.782468  0  2.307935  0
O  O64  1  0.22637699  0.52966755  0.89339620  1  0  -0.375773  -0.783135  0  2.307721  0
O  O65  1  0.33270835  0.97035838  0.10659901  1  0  -0.375364  -0.782488  0  2.308032  0
