# generated using pymatgen
data_H7AuC7SCl
_symmetry_space_group_name_H-M   'P 1'
_cell_length_a   6.14552443
_cell_length_b   9.06910548
_cell_length_c   14.54666636
_cell_angle_alpha   92.85943856
_cell_angle_beta   92.18593807
_cell_angle_gamma   99.84163969
_symmetry_Int_Tables_number   1
_chemical_formula_structural   H7AuC7SCl
_chemical_formula_sum   'H28 Au4 C28 S4 Cl4'
_cell_volume   796.92649437
_cell_formula_units_Z   4
loop_
 _symmetry_equiv_pos_site_id
 _symmetry_equiv_pos_as_xyz
  1  'x, y, z'
loop_
 _atom_site_type_symbol
 _atom_site_label
 _atom_site_symmetry_multiplicity
 _atom_site_fract_x
 _atom_site_fract_y
 _atom_site_fract_z
 _atom_site_occupancy
 _atom_site_pbe_bader_spin_density
 _atom_site_pbe_cm5_charge
 _atom_site_pbe_ddec_charge
 _atom_site_pbe_ddec_spin_density
 _atom_site_pbe_ddec_sum_bond_order
 _atom_site_pbe_magmom
H  H0  1  0.29770800  0.90459568  0.29970858  1  0  0.097671  0.106591  0  1.026383  0
H  H1  1  0.70231216  0.09542127  0.70029241  1  0  0.097682  0.106652  0  1.026402  0
H  H2  1  0.16771688  0.14331870  0.27071369  1  0  0.087918  0.088803  0  1.055019  0
H  H3  1  0.83231040  0.85670713  0.72928990  1  0  0.087937  0.088765  0  1.055201  0
H  H4  1  0.81521394  0.19410074  0.33440720  1  0  0.080274  0.079497  0  1.07932  0
H  H5  1  0.18481423  0.80592270  0.66560043  1  0  0.080335  0.079524  0  1.079317  0
H  H6  1  0.59775657  0.00831898  0.42911223  1  0  0.097102  0.097917  0  1.014007  0
H  H7  1  0.40225376  0.99170370  0.57088605  1  0  0.097087  0.097939  0  1.013999  0
H  H8  1  0.72209295  0.76925246  0.45879473  1  0  0.092328  0.108569  0  1.053423  0
H  H9  1  0.27790080  0.23075502  0.54118946  1  0  0.092237  0.108417  0  1.053517  0
H  H10  1  0.00505706  0.34582716  0.45036066  1  0  0.093709  0.118591  0  1.020627  0
H  H11  1  0.99493072  0.65417102  0.54963263  1  0  0.093719  0.118611  0  1.02072  0
H  H12  1  0.20928344  0.44361935  0.53401941  1  0  0.082085  0.107953  0  1.069447  0
H  H13  1  0.79071352  0.55638895  0.46597314  1  0  0.082046  0.107929  0  1.069417  0
H  H14  1  0.22257308  0.08968837  0.81911420  1  0  0.09935  0.107699  0  1.034197  0
H  H15  1  0.77742489  0.91028711  0.18088521  1  0  0.099448  0.107775  0  1.034242  0
H  H16  1  0.37993945  0.85836889  0.83596697  1  0  0.087857  0.093484  0  1.053519  0
H  H17  1  0.62007147  0.14160907  0.16405690  1  0  0.087835  0.093452  0  1.053501  0
H  H18  1  0.76370182  0.87411672  0.90416253  1  0  0.090911  0.092448  0  1.038519  0
H  H19  1  0.23631397  0.12588022  0.09586432  1  0  0.090916  0.092403  0  1.038456  0
H  H20  1  0.98709752  0.12347071  0.95304059  1  0  0.097176  0.096823  0  1.019724  0
H  H21  1  0.01290243  0.87653414  0.04698558  1  0  0.097222  0.096773  0  1.019951  0
H  H22  1  0.83593900  0.35522521  0.93194485  1  0  0.09084  0.100491  0  1.04858  0
H  H23  1  0.16404251  0.64476252  0.06805817  1  0  0.090785  0.100451  0  1.048499  0
H  H24  1  0.56514441  0.37421052  0.05800332  1  0  0.097976  0.12676  0  1.005239  0
H  H25  1  0.43481819  0.62573576  0.94199751  1  0  0.097983  0.126725  0  1.005415  0
H  H26  1  0.30837248  0.44019281  0.06310315  1  0  0.08251  0.109241  0  1.067189  0
H  H27  1  0.69154749  0.55977804  0.93690333  1  0  0.082483  0.109096  0  1.067761  0
Au  Au28  1  0.94662589  0.49888480  0.72857142  1  0  0.223301  0.031761  0  2.89833  0
Au  Au29  1  0.05337714  0.50112885  0.27142837  1  0  0.223333  0.03172  0  2.898416  0
Au  Au30  1  0.45253833  0.51179773  0.73221711  1  0  0.216846  0.02513  0  2.902949  0
Au  Au31  1  0.54746671  0.48820387  0.26777395  1  0  0.216921  0.02524  0  2.902933  0
C  C32  1  0.01770821  0.82196479  0.38035951  1  0  -0.018718  0.032579  0  3.993198  0
C  C33  1  0.98229367  0.17803777  0.61963634  1  0  -0.018747  0.032528  0  3.992997  0
C  C34  1  0.14370315  0.92721016  0.32771570  1  0  -0.09565  -0.128242  0  3.974805  0
C  C35  1  0.85630292  0.07280243  0.67228205  1  0  -0.095578  -0.128207  0  3.975017  0
C  C36  1  0.07053536  0.06109372  0.31144535  1  0  -0.093569  -0.06548  0  4.000545  0
C  C37  1  0.92947721  0.93892547  0.68855626  1  0  -0.093666  -0.065584  0  4.000774  0
C  C38  1  0.87410682  0.09010191  0.34775705  1  0  -0.097019  -0.08387  0  3.98784  0
C  C39  1  0.12591769  0.90992522  0.65224172  1  0  -0.09708  -0.083912  0  3.988034  0
C  C40  1  0.75059670  0.98488265  0.40054872  1  0  -0.089271  -0.061698  0  3.984438  0
C  C41  1  0.24941554  0.01513451  0.59944660  1  0  -0.089181  -0.061557  0  3.984752  0
C  C42  1  0.82033934  0.84942172  0.41703179  1  0  -0.097304  -0.129166  0  3.975931  0
C  C43  1  0.17966461  0.15058785  0.58295616  1  0  -0.097225  -0.129017  0  3.976008  0
C  C44  1  0.96500092  0.57386422  0.48960300  1  0  -0.161651  -0.187167  0  3.863009  0
C  C45  1  0.03497249  0.42614172  0.51039376  1  0  -0.161596  -0.187114  0  3.86287  0
C  C46  1  0.51821036  0.23603046  0.87517267  1  0  -0.021882  0.027941  0  3.997903  0
C  C47  1  0.48180080  0.76395752  0.12482206  1  0  -0.021932  0.027971  0  3.997932  0
C  C48  1  0.39081326  0.09648844  0.84777682  1  0  -0.092069  -0.123349  0  3.971791  0
C  C49  1  0.60919929  0.90349357  0.15222800  1  0  -0.092244  -0.123503  0  3.971797  0
C  C50  1  0.48033201  0.96650379  0.85750953  1  0  -0.08773  -0.057012  0  3.963105  0
C  C51  1  0.51967472  0.03347567  0.14250400  1  0  -0.087632  -0.05701  0  3.96281  0
C  C52  1  0.69397453  0.97586041  0.89623376  1  0  -0.08794  -0.072824  0  3.972289  0
C  C53  1  0.30602543  0.02413120  0.10378565  1  0  -0.087966  -0.072578  0  3.971932  0
C  C54  1  0.82005992  0.11572238  0.92296005  1  0  -0.090302  -0.069481  0  3.991321  0
C  C55  1  0.17992878  0.88428176  0.07705484  1  0  -0.090319  -0.069523  0  3.991594  0
C  C56  1  0.73471154  0.24709789  0.91163693  1  0  -0.099462  -0.132653  0  4.008958  0
C  C57  1  0.26528611  0.75290207  0.08836903  1  0  -0.099372  -0.13261  0  4.008928  0
C  C58  1  0.51674832  0.52885778  0.95232148  1  0  -0.161128  -0.190861  0  3.864807  0
C  C59  1  0.48325941  0.47113412  0.04765822  1  0  -0.161211  -0.19129  0  3.864091  0
S  S60  1  0.13533323  0.65886459  0.40054227  1  0  0.041894  0.205041  0  3.411507  0
S  S61  1  0.86466638  0.34115382  0.59945009  1  0  0.041812  0.204993  0  3.411628  0
S  S62  1  0.37741008  0.39117280  0.86475571  1  0  0.030855  0.184815  0  3.457606  0
S  S63  1  0.62258724  0.60880614  0.13524109  1  0  0.030748  0.184748  0  3.457993  0
Cl  Cl64  1  0.02232612  0.65723721  0.86009873  1  0  -0.245819  -0.326444  0  1.543853  0
Cl  Cl65  1  0.97765056  0.34275143  0.13991042  1  0  -0.24581  -0.326451  0  1.543927  0
Cl  Cl66  1  0.50247721  0.65154938  0.60477022  1  0  -0.251031  -0.313593  0  1.579745  0
Cl  Cl67  1  0.49751650  0.34845978  0.39522987  1  0  -0.251028  -0.313652  0  1.579654  0
