# generated using pymatgen
data_Co3H36C52(N5O9)2
_symmetry_space_group_name_H-M   'P 1'
_cell_length_a   10.03886919
_cell_length_b   11.14967842
_cell_length_c   14.04776007
_cell_angle_alpha   88.65516014
_cell_angle_beta   84.76806437
_cell_angle_gamma   69.48933136
_symmetry_Int_Tables_number   1
_chemical_formula_structural   Co3H36C52(N5O9)2
_chemical_formula_sum   'Co3 H36 C52 N10 O18'
_cell_volume   1466.49463156
_cell_formula_units_Z   1
loop_
 _symmetry_equiv_pos_site_id
 _symmetry_equiv_pos_as_xyz
  1  'x, y, z'
loop_
 _atom_site_type_symbol
 _atom_site_label
 _atom_site_symmetry_multiplicity
 _atom_site_fract_x
 _atom_site_fract_y
 _atom_site_fract_z
 _atom_site_occupancy
 _atom_site_pbe_bader_charge
 _atom_site_pbe_bader_spin_density
 _atom_site_pbe_cm5_charge
 _atom_site_pbe_ddec_charge
 _atom_site_pbe_ddec_spin_density
 _atom_site_pbe_ddec_sum_bond_order
 _atom_site_pbe_magmom
Co  Co0  1  0.82564823  0.06276144  0.41869494  1  1.286798  2.592591  0.677979  0.874168  2.835211  2.542764  2.572
Co  Co1  1  0.17434944  0.93723699  0.58130182  1  1.286775  2.592594  0.678036  0.874236  2.835226  2.542746  2.572
Co  Co2  1  0.99999870  0.50000457  0.00000045  1  1.298346  2.623779  0.660028  0.920555  2.864664  2.455556  2.607
H  H3  1  0.61325326  0.97020523  0.58134158  1  0.152514  0.000618  0.110768  0.125826  0.000305  1.032427  0.0
H  H4  1  0.51733348  0.72488834  0.79700665  1  0.129449  0.000498  0.112996  0.126682  0.000252  0.994105  0.0
H  H5  1  0.93626777  0.75301744  0.76334736  1  0.1451  0.000656  0.107451  0.122531  0.000294  1.004575  0.0
H  H6  1  0.08791106  0.21263318  0.99937178  1  0.089678  0.001256  0.116736  0.082896  5.3e-05  1.002977  0.001
H  H7  1  0.26472637  0.02121741  0.90942410  1  0.080094  0.0011  0.115677  0.123727  0.000528  0.972658  0.0
H  H8  1  0.43761931  0.05725782  0.78352395  1  0.097377  -0.000333  0.106164  0.108499  -0.000492  1.038701  0.0
H  H9  1  0.23151248  0.46457552  0.83555092  1  0.168564  0.001648  0.123624  0.121189  0.000487  1.019637  0.001
H  H10  1  0.59653374  0.17994291  0.56672454  1  0.112631  0.00148  0.124145  0.089816  0.000247  1.028774  0.001
H  H11  1  0.84736243  0.32966172  0.39344198  1  0.124306  0.001566  0.125805  0.096804  0.000336  1.009061  0.001
H  H12  1  0.57336867  0.56654141  0.62529990  1  0.167921  -0.000209  0.121079  0.131431  -0.000435  0.993466  0.0
H  H13  1  0.06665871  0.52551767  0.26835271  1  0.127542  -0.000283  0.110229  0.120159  -0.000477  1.022409  0.0
H  H14  1  0.16180270  0.68963529  0.19795271  1  0.060249  0.001191  0.109472  0.11375  0.000522  0.992457  0.0
H  H15  1  0.05526224  0.91653480  0.26201591  1  0.094624  0.001479  0.117345  0.090704  0.000279  0.996884  0.001
H  H16  1  0.77914684  0.81929034  0.45987978  1  0.164322  0.001463  0.121334  0.111734  0.000158  1.055762  0.001
H  H17  1  0.52234639  0.19612312  0.70204642  1  0.44624  0.000185  0.320769  0.272456  3.6e-05  0.950003  0.0
H  H18  1  0.91784074  0.47463638  0.38251527  1  0.452448  0.000265  0.325087  0.279581  0.000131  0.935933  0.0
H  H19  1  0.76934887  0.47803321  0.96732071  1  0.653013  7.3e-05  0.280352  0.371497  6.3e-05  0.983807  0.0
H  H20  1  0.86231645  0.32890409  0.99091194  1  0.577723  0.00115  0.313017  0.382201  0.000649  0.909081  0.001
H  H21  1  0.38675639  0.02979324  0.41865223  1  0.152635  0.000618  0.110752  0.125807  0.000305  1.032437  0.0
H  H22  1  0.48266914  0.27511783  0.20299170  1  0.12932  0.000497  0.113003  0.126675  0.000252  0.994054  0.0
H  H23  1  0.06373228  0.24698003  0.23664854  1  0.145094  0.000656  0.107404  0.12247  0.000294  1.004617  0.0
H  H24  1  0.91208216  0.78738164  0.00063267  1  0.089788  0.001256  0.116755  0.082976  5.3e-05  1.002892  0.001
H  H25  1  0.73526403  0.97878693  0.09058794  1  0.080387  0.001099  0.115623  0.123592  0.000528  0.972734  0.0
H  H26  1  0.56237512  0.94273884  0.21648517  1  0.09737  -0.000333  0.106133  0.108454  -0.000492  1.038686  0.0
H  H27  1  0.76849204  0.53542583  0.16444601  1  0.168613  0.001648  0.123629  0.121237  0.000487  1.019573  0.001
H  H28  1  0.40348260  0.82004121  0.43326991  1  0.112265  0.001481  0.12412  0.089809  0.000247  1.028752  0.001
H  H29  1  0.15264546  0.67033871  0.60655616  1  0.124372  0.001566  0.12584  0.096794  0.000336  1.009075  0.001
H  H30  1  0.42661982  0.43344737  0.37469702  1  0.167977  -0.000209  0.121106  0.131378  -0.000435  0.993444  0.0
H  H31  1  0.93333668  0.47448667  0.73165615  1  0.127471  -0.000283  0.110211  0.120055  -0.000477  1.022472  0.0
H  H32  1  0.83818347  0.31036704  0.80205397  1  0.060082  0.001192  0.109434  0.113756  0.000522  0.992364  0.0
H  H33  1  0.94473292  0.08346748  0.73798305  1  0.094613  0.001478  0.117338  0.090702  0.000279  0.996891  0.001
H  H34  1  0.22085041  0.18071686  0.54012673  1  0.1639  0.001463  0.121364  0.111739  0.000158  1.055746  0.001
H  H35  1  0.47764747  0.80386471  0.29794874  1  0.446379  0.000185  0.320747  0.272356  3.6e-05  0.949928  0.0
H  H36  1  0.08215750  0.52537089  0.61749544  1  0.452296  0.000265  0.325101  0.279652  0.000131  0.93582  0.0
H  H37  1  0.23065176  0.52197299  0.03268062  1  0.653032  7.3e-05  0.280416  0.371537  6.3e-05  0.983751  0.0
H  H38  1  0.13768042  0.67110405  0.00909315  1  0.577621  0.001149  0.313001  0.382137  0.000649  0.909192  0.001
C  C39  1  0.89027547  0.92237974  0.61726200  1  1.528901  -0.002427  0.212591  0.569821  -0.003811  4.197865  0.001
C  C40  1  0.78544055  0.87090495  0.66883727  1  -0.052594  0.009825  -0.029759  -0.058274  0.004762  4.026506  0.008
C  C41  1  0.64625600  0.90688784  0.64179217  1  -0.038226  -0.004543  -0.076047  -0.105824  -0.005076  3.918054  -0.003
C  C42  1  0.54939459  0.85589763  0.68884149  1  -0.031241  0.005085  -0.017919  -0.024727  0.002709  3.991362  0.004
C  C43  1  0.40367924  0.89246025  0.65557077  1  1.533175  -0.005872  0.190059  0.531341  -0.007632  4.227666  -0.007
C  C44  1  0.59184950  0.76685901  0.76194872  1  -0.082678  -0.00571  -0.066889  -0.093988  -0.006209  3.889078  -0.003
C  C45  1  0.73205441  0.72881143  0.78808406  1  0.027405  0.006732  -0.024755  -0.046065  0.003296  4.001288  0.006
C  C46  1  0.78148596  0.62864760  0.86308982  1  1.532593  -0.00254  0.202109  0.557162  -0.003629  4.216763  -0.002
C  C47  1  0.82777497  0.78192856  0.74220652  1  -0.078177  -0.005051  -0.081976  -0.112163  -0.005588  3.937927  -0.003
C  C48  1  0.16076305  0.22371801  0.94023062  1  0.422877  -0.008815  0.033222  0.049512  -0.00975  4.008244  -0.006
C  C49  1  0.26102543  0.11808376  0.89221139  1  0.051295  0.004814  -0.081275  -0.103961  0.002349  4.010412  0.004
C  C50  1  0.35678726  0.13818136  0.82160834  1  -0.000155  -0.011734  -0.076191  -0.133946  -0.012486  3.929769  -0.007
C  C51  1  0.34891654  0.26379078  0.79978401  1  0.304909  0.004453  0.104317  0.208642  0.002202  4.013798  0.004
C  C52  1  0.24198949  0.36561747  0.84955000  1  0.528243  -0.007757  0.04567  0.005975  -0.008256  3.85281  -0.005
C  C53  1  0.45891608  0.39136614  0.69095182  1  1.388725  0.000864  0.242013  0.474473  0.000512  4.130822  0.0
C  C54  1  0.57427387  0.37346489  0.61108916  1  -0.020113  0.005097  -0.0125  -0.086849  0.00236  3.99912  0.004
C  C55  1  0.63168544  0.26167493  0.55562212  1  0.496294  -0.0113  0.060596  0.083342  -0.012192  3.896941  -0.007
C  C56  1  0.77161361  0.34730514  0.45679899  1  0.493202  -0.008445  0.066442  0.09167  -0.009188  3.888206  -0.006
C  C57  1  0.71887198  0.46363020  0.50709119  1  -0.032567  0.004709  -0.014016  -0.091434  0.002188  4.007784  0.004
C  C58  1  0.61872917  0.47625645  0.58576871  1  0.00216  -0.016349  -0.050261  -0.056581  -0.017349  3.885235  -0.01
C  C59  1  0.75396691  0.58011147  0.47841871  1  1.408491  0.000568  0.239856  0.467536  0.00032  4.133043  0.0
C  C60  1  0.91760038  0.65852909  0.37172975  1  0.374403  0.004386  0.098028  0.199415  0.002143  4.027581  0.004
C  C61  1  0.02593332  0.62322881  0.29637139  1  -0.091799  -0.013511  -0.078372  -0.139512  -0.014325  3.939233  -0.008
C  C62  1  0.07734659  0.71540293  0.25635780  1  -0.047838  0.004859  -0.086616  -0.1144  0.002202  4.020185  0.004
C  C63  1  0.01969621  0.84050603  0.29160451  1  0.547166  -0.008926  0.037913  0.071038  -0.009435  3.966875  -0.006
C  C64  1  0.86492847  0.78664471  0.40332087  1  0.495461  -0.010431  0.037211  -0.011131  -0.011306  3.880608  -0.007
C  C65  1  0.10972262  0.07761003  0.38273282  1  1.529456  -0.002426  0.212692  0.570094  -0.003802  4.197626  0.001
C  C66  1  0.21456263  0.12908968  0.33115993  1  -0.052575  0.009828  -0.029789  -0.058274  0.004764  4.026026  0.008
C  C67  1  0.35374790  0.09311253  0.35820340  1  -0.038237  -0.004537  -0.076061  -0.105844  -0.00507  3.918066  -0.002
C  C68  1  0.45061506  0.14410093  0.31115943  1  -0.031859  0.005082  -0.017934  -0.024696  0.002708  3.991368  0.004
C  C69  1  0.59633365  0.10754018  0.34442420  1  1.533301  -0.00587  0.190153  0.531514  -0.007632  4.227385  -0.007
C  C70  1  0.40816128  0.23313667  0.23805150  1  -0.082584  -0.005703  -0.066885  -0.093999  -0.006202  3.88894  -0.003
C  C71  1  0.26795011  0.27118998  0.21191714  1  0.027728  0.006733  -0.024752  -0.04608  0.003296  4.001107  0.006
C  C72  1  0.21851405  0.37135762  0.13691087  1  1.532651  -0.002539  0.202087  0.557139  -0.003628  4.216555  -0.002
C  C73  1  0.17222370  0.21806989  0.25779088  1  -0.078077  -0.005046  -0.081902  -0.112038  -0.005584  3.937796  -0.003
C  C74  1  0.83923331  0.77629398  0.05977582  1  0.422971  -0.008813  0.033139  0.049282  -0.009748  4.008085  -0.006
C  C75  1  0.73896720  0.88192250  0.10779902  1  0.050885  0.004814  -0.081185  -0.103713  0.002349  4.010461  0.004
C  C76  1  0.64320404  0.86181807  0.17839452  1  -0.000277  -0.01173  -0.076099  -0.133858  -0.012481  3.929873  -0.007
C  C77  1  0.65108251  0.73620676  0.20021766  1  0.304751  0.004452  0.104316  0.208637  0.002202  4.013969  0.004
C  C78  1  0.75800729  0.63438579  0.15044953  1  0.528612  -0.007754  0.045669  0.005862  -0.008252  3.852843  -0.005
C  C79  1  0.54108163  0.60862458  0.30904229  1  1.388581  0.000864  0.242065  0.474606  0.000512  4.130607  0.0
C  C80  1  0.42572598  0.62652298  0.38890631  1  -0.019924  0.005096  -0.012532  -0.086947  0.00236  3.999174  0.004
C  C81  1  0.36831940  0.73831299  0.44437514  1  0.496788  -0.011294  0.060522  0.083144  -0.012185  3.896888  -0.007
C  C82  1  0.22839115  0.65269815  0.54319929  1  0.493244  -0.008442  0.066419  0.091686  -0.009186  3.888169  -0.006
C  C83  1  0.28112656  0.53637111  0.49290543  1  -0.032612  0.004708  -0.013978  -0.091483  0.002188  4.007604  0.004
C  C84  1  0.38126916  0.52373527  0.41422818  1  0.001922  -0.01634  -0.050192  -0.056295  -0.01734  3.884969  -0.01
C  C85  1  0.24603589  0.41988420  0.52158418  1  1.408525  0.000568  0.239794  0.467467  0.00032  4.133103  0.0
C  C86  1  0.08240152  0.34147143  0.62827734  1  0.370136  0.004385  0.098062  0.199301  0.002143  4.027175  0.004
C  C87  1  0.97406245  0.37677454  0.70363462  1  -0.087916  -0.013513  -0.078296  -0.139195  -0.01433  3.938912  -0.008
C  C88  1  0.92264571  0.28459651  0.74364499  1  -0.047614  0.004861  -0.086583  -0.114524  0.002202  4.020093  0.004
C  C89  1  0.98030645  0.15949246  0.70839404  1  0.547095  -0.008929  0.037934  0.071043  -0.009438  3.966738  -0.006
C  C90  1  0.13506981  0.21335483  0.59668649  1  0.49643  -0.010433  0.037199  -0.011048  -0.011306  3.880338  -0.007
N  N91  1  0.15102808  0.34452376  0.91869919  1  -1.210357  0.051943  -0.32359  -0.237751  0.027558  3.615745  0.048
N  N92  1  0.44932422  0.27941031  0.72923823  1  -1.231076  0.000895  -0.392129  -0.365671  0.000391  3.576846  0.001
N  N93  1  0.73006636  0.24798617  0.48128567  1  -1.19129  0.048501  -0.315603  -0.210787  0.02537  3.545985  0.046
N  N94  1  0.86783905  0.56361778  0.41129453  1  -1.249263  0.000717  -0.394132  -0.372328  0.000298  3.590233  0.0
N  N95  1  0.91586419  0.87484457  0.36381760  1  -1.202891  0.047862  -0.32185  -0.226678  0.025113  3.625719  0.046
N  N96  1  0.84896689  0.65548916  0.08130519  1  -1.210662  0.051945  -0.32359  -0.237665  0.027557  3.615365  0.048
N  N97  1  0.55067387  0.72057947  0.27075731  1  -1.231317  0.000895  -0.392155  -0.365583  0.000391  3.576551  0.001
N  N98  1  0.26994167  0.75201140  0.51871326  1  -1.191249  0.048501  -0.315599  -0.210676  0.02537  3.545819  0.046
N  N99  1  0.13216120  0.43638941  0.58870965  1  -1.249032  0.000717  -0.394137  -0.372387  0.000299  3.590153  0.0
N  N100  1  0.08413776  0.12514814  0.63618044  1  -1.202971  0.047861  -0.32195  -0.226775  0.025111  3.625533  0.046
O  O101  1  0.84889604  0.00529455  0.55246706  1  -1.165468  0.086987  -0.315862  -0.577829  0.045546  2.527734  0.072
O  O102  1  0.84079140  0.41640369  0.01223093  1  -1.214942  0.072172  -0.564628  -0.752772  0.037996  2.153234  0.057
O  O103  1  0.01748429  0.88113152  0.64264444  1  -1.151744  0.086566  -0.306945  -0.537705  0.045659  2.395384  0.072
O  O104  1  0.91191829  0.59852409  0.88190295  1  -1.158776  0.073806  -0.324818  -0.582199  0.038725  2.366894  0.064
O  O105  1  0.69364535  0.57868180  0.90084741  1  -1.157013  0.002439  -0.321547  -0.529191  0.000418  2.138661  0.002
O  O106  1  0.37907946  0.95377738  0.57681256  1  -1.143233  0.091554  -0.311358  -0.533292  0.04742  2.26106  0.08
O  O107  1  0.30583524  0.86219983  0.70256368  1  -1.132181  0.087945  -0.313945  -0.525909  0.04502  2.136292  0.076
O  O108  1  0.68107779  0.68555084  0.51403262  1  -1.120886  0.00104  -0.264614  -0.44024  0.000497  2.179824  0.001
O  O109  1  0.37822930  0.49902141  0.71777046  1  -1.110459  0.001307  -0.27248  -0.444635  0.000683  2.101776  0.001
O  O110  1  0.15111362  0.99470392  0.44752675  1  -1.165939  0.086976  -0.315894  -0.577958  0.045537  2.527992  0.072
O  O111  1  0.15920909  0.58360539  0.98777105  1  -1.214843  0.072175  -0.564691  -0.752742  0.037996  2.153273  0.057
O  O112  1  0.98252348  0.11887159  0.35733798  1  -1.151896  0.086542  -0.306991  -0.537925  0.045645  2.395205  0.072
O  O113  1  0.08807697  0.40148305  0.11810014  1  -1.158761  0.073807  -0.324797  -0.582174  0.038727  2.366651  0.064
O  O114  1  0.30635528  0.42132437  0.09915179  1  -1.157183  0.00244  -0.321567  -0.529244  0.000418  2.138673  0.002
O  O115  1  0.62092368  0.04622493  0.42318443  1  -1.143083  0.091562  -0.311403  -0.533348  0.047424  2.261097  0.08
O  O116  1  0.69416939  0.13780622  0.29742528  1  -1.132321  0.08793  -0.313975  -0.525999  0.045011  2.136147  0.076
O  O117  1  0.31891080  0.31444276  0.48596559  1  -1.121022  0.001039  -0.264635  -0.440237  0.000497  2.179834  0.001
O  O118  1  0.62177165  0.50097121  0.28222054  1  -1.110386  0.001307  -0.272497  -0.444719  0.000682  2.101744  0.001
