# generated using pymatgen
data_CuH16C18Br(NO)2
_symmetry_space_group_name_H-M   'P 1'
_cell_length_a   8.14150523
_cell_length_b   9.44370375
_cell_length_c   10.74752076
_cell_angle_alpha   89.98522663
_cell_angle_beta   92.02166892
_cell_angle_gamma   104.09667222
_symmetry_Int_Tables_number   1
_chemical_formula_structural   CuH16C18Br(NO)2
_chemical_formula_sum   'Cu2 H32 C36 Br2 N4 O4'
_cell_volume   800.92095097
_cell_formula_units_Z   2
loop_
 _symmetry_equiv_pos_site_id
 _symmetry_equiv_pos_as_xyz
  1  'x, y, z'
loop_
 _atom_site_type_symbol
 _atom_site_label
 _atom_site_symmetry_multiplicity
 _atom_site_fract_x
 _atom_site_fract_y
 _atom_site_fract_z
 _atom_site_occupancy
 _atom_site_hle17_bader_spin_density
 _atom_site_hle17_ddec_charge
 _atom_site_hle17_ddec_spin_density
 _atom_site_hle17_ddec_sum_bond_order
 _atom_site_hle17_magmom
 _atom_site_hse06_10hf_bader_spin_density
 _atom_site_hse06_10hf_ddec_charge
 _atom_site_hse06_10hf_ddec_spin_density
 _atom_site_hse06_10hf_ddec_sum_bond_order
 _atom_site_hse06_10hf_magmom
 _atom_site_hse06_bader_spin_density
 _atom_site_hse06_ddec_charge
 _atom_site_hse06_ddec_spin_density
 _atom_site_hse06_ddec_sum_bond_order
 _atom_site_hse06_magmom
 _atom_site_pbe_bader_spin_density
 _atom_site_pbe_cm5_charge
 _atom_site_pbe_ddec_charge
 _atom_site_pbe_ddec_spin_density
 _atom_site_pbe_ddec_sum_bond_order
 _atom_site_pbe_magmom
Cu  Cu0  1  0.50925764  0.42743156  0.64100824  1  0  0.422814  0  1.924922  0  0  0.318447  0  2.409166  0  0  0.323929  0  2.360364  0  0  0.39463  0.318485  0  2.440326  0
Cu  Cu1  1  0.49074478  0.57256837  0.35899178  1  0  0.422823  0  1.924923  0  0  0.318479  0  2.409153  0  0  0.32398  0  2.360379  0  0  0.394641  0.318507  0  2.440302  0
H  H2  1  0.16320373  0.16678186  0.61516988  1  0  0.099597  0  0.997827  0  0  0.107074  0  1.06627  0  0  0.110295  0  1.064124  0  0  0.092283  0.104232  0  1.069241  0
H  H3  1  0.83679499  0.83321381  0.38482257  1  0  0.099644  0  0.997805  0  0  0.107116  0  1.066234  0  0  0.110336  0  1.064089  0  0  0.092306  0.104272  0  1.069205  0
H  H4  1  0.16769030  0.33496327  0.92229537  1  0  0.098999  0  0.946878  0  0  0.113935  0  1.009023  0  0  0.11489  0  1.011347  0  0  0.099769  0.113072  0  1.007805  0
H  H5  1  0.83231120  0.66503775  0.07770557  1  0  0.099052  0  0.946866  0  0  0.113994  0  1.008995  0  0  0.114949  0  1.011318  0  0  0.09977  0.113125  0  1.007775  0
H  H6  1  0.19888100  0.33902258  0.75924083  1  0  0.102458  0  0.958208  0  0  0.114498  0  1.02632  0  0  0.117468  0  1.024032  0  0  0.096959  0.112407  0  1.027701  0
H  H7  1  0.80112113  0.66098064  0.24075829  1  0  0.102511  0  0.958201  0  0  0.114562  0  1.026274  0  0  0.117529  0  1.023991  0  0  0.096984  0.112464  0  1.027649  0
H  H8  1  0.87159811  0.34134898  0.60950639  1  0  0.113774  0  0.958471  0  0  0.124446  0  1.027951  0  0  0.126831  0  1.027842  0  0  0.093989  0.122203  0  1.029049  0
H  H9  1  0.12840216  0.65865206  0.39049266  1  0  0.113815  0  0.958481  0  0  0.124468  0  1.027953  0  0  0.126854  0  1.027844  0  0  0.093997  0.122223  0  1.029053  0
H  H10  1  0.92774444  0.19259983  0.68721438  1  0  0.102482  0  0.932157  0  0  0.121681  0  0.985598  0  0  0.123094  0  0.985786  0  0  0.10185  0.120815  0  0.985278  0
H  H11  1  0.07225861  0.80740231  0.31278381  1  0  0.102502  0  0.932196  0  0  0.121684  0  0.985624  0  0  0.123097  0  0.985816  0  0  0.101859  0.120815  0  0.985306  0
H  H12  1  0.84690324  0.28322199  0.89026380  1  0  0.061053  0  0.932803  0  0  0.079317  0  0.99271  0  0  0.080697  0  0.992144  0  0  0.085449  0.078472  0  0.992977  0
H  H13  1  0.15309640  0.71677688  0.10973521  1  0  0.061016  0  0.932835  0  0  0.079292  0  0.992737  0  0  0.080671  0  0.99217  0  0  0.085442  0.078443  0  0.993008  0
H  H14  1  0.75809146  0.41161681  0.81026193  1  0  0.07009  0  0.958415  0  0  0.078501  0  1.038849  0  0  0.081745  0  1.035532  0  0  0.084542  0.076259  0  1.040783  0
H  H15  1  0.24190973  0.58838313  0.18973806  1  0  0.070078  0  0.95841  0  0  0.078488  0  1.038854  0  0  0.081729  0  1.035541  0  0  0.084537  0.076246  0  1.040786  0
H  H16  1  0.81794938  0.71040301  0.73523756  1  0  0.112781  0  0.971574  0  0  0.120572  0  1.037059  0  0  0.123683  0  1.035641  0  0  0.098498  0.118422  0  1.037788  0
H  H17  1  0.18205243  0.28959912  0.26476153  1  0  0.112846  0  0.971674  0  0  0.120643  0  1.037124  0  0  0.123758  0  1.03569  0  0  0.098537  0.118487  0  1.037861  0
H  H18  1  0.04523423  0.53773804  0.73608407  1  0  0.070763  0  0.956251  0  0  0.087192  0  1.021695  0  0  0.088112  0  1.022327  0  0  0.08752  0.086564  0  1.02107  0
H  H19  1  0.95476605  0.46226298  0.26391683  1  0  0.070734  0  0.956273  0  0  0.087173  0  1.021708  0  0  0.088092  0  1.02234  0  0  0.087512  0.086547  0  1.021077  0
H  H20  1  0.02545421  0.54480380  0.89879150  1  0  0.069324  0  0.93697  0  0  0.087094  0  0.99757  0  0  0.087874  0  0.998245  0  0  0.090554  0.0866  0  0.997058  0
H  H21  1  0.97454421  0.45519506  0.10120841  1  0  0.069354  0  0.937073  0  0  0.087115  0  0.997679  0  0  0.087893  0  0.998356  0  0  0.090586  0.086619  0  0.997169  0
H  H22  1  0.98553194  0.90820931  0.60246148  1  0  0.093903  0  0.958173  0  0  0.104582  0  1.020074  0  0  0.107086  0  1.019724  0  0  0.09762  0.102662  0  1.020587  0
H  H23  1  0.01447169  0.09178631  0.39753388  1  0  0.093937  0  0.958152  0  0  0.104616  0  1.020046  0  0  0.107121  0  1.019693  0  0  0.097658  0.10268  0  1.020575  0
H  H24  1  0.43299237  0.73877113  0.63373169  1  0  0.123026  0  0.961477  0  0  0.127058  0  1.033148  0  0  0.131288  0  1.029862  0  0  0.102934  0.122423  0  1.037804  0
H  H25  1  0.56700818  0.26122657  0.36627292  1  0  0.123001  0  0.961502  0  0  0.12705  0  1.033153  0  0  0.131282  0  1.029864  0  0  0.10294  0.122415  0  1.037808  0
H  H26  1  0.11932752  0.70063897  0.60784262  1  0  0.086536  0  0.987386  0  0  0.092977  0  1.058379  0  0  0.095921  0  1.057205  0  0  0.089291  0.090137  0  1.060634  0
H  H27  1  0.88067550  0.29935880  0.39215554  1  0  0.086559  0  0.987304  0  0  0.093013  0  1.058287  0  0  0.095958  0  1.057112  0  0  0.089296  0.090146  0  1.060564  0
H  H28  1  0.95194455  0.93522800  0.86076458  1  0  0.083426  0  0.970778  0  0  0.094582  0  1.0336  0  0  0.096852  0  1.03345  0  0  0.09619  0.093067  0  1.033547  0
H  H29  1  0.04805572  0.06477299  0.13923912  1  0  0.083412  0  0.970832  0  0  0.094582  0  1.033636  0  0  0.096852  0  1.033488  0  0  0.096176  0.093067  0  1.033583  0
H  H30  1  0.80298264  0.01394671  0.03540245  1  0  0.086848  0  0.957908  0  0  0.100406  0  1.014436  0  0  0.102995  0  1.01366  0  0  0.099612  0.098589  0  1.014983  0
H  H31  1  0.19701518  0.98605434  0.96459747  1  0  0.086871  0  0.957873  0  0  0.100426  0  1.014401  0  0  0.103016  0  1.013624  0  0  0.099624  0.098609  0  1.01495  0
H  H32  1  0.51447061  0.87061065  0.09183747  1  0  0.121708  0  0.949048  0  0  0.13123  0  1.007831  0  0  0.133847  0  1.007743  0  0  0.108526  0.12924  0  1.008304  0
H  H33  1  0.48552966  0.12939039  0.90816250  1  0  0.121634  0  0.949041  0  0  0.131199  0  1.007781  0  0  0.133815  0  1.007693  0  0  0.108506  0.129209  0  1.008255  0
C  C34  1  0.21911629  0.07369761  0.62608654  1  0  -0.139475  0  3.746692  0  0  -0.159636  0  3.998631  0  0  -0.161532  0  4.017827  0  0  -0.097547  -0.158787  0  3.987417  0
C  C35  1  0.78088487  0.92629798  0.37391155  1  0  -0.139601  0  3.746882  0  0  -0.15976  0  3.998848  0  0  -0.161652  0  4.018033  0  0  -0.097583  -0.158915  0  3.987633  0
C  C36  1  0.34404528  0.51922668  0.85614082  1  0  0.459451  0  3.599766  0  0  0.424747  0  3.887015  0  0  0.449047  0  3.890013  0  0  0.228141  0.407977  0  3.885056  0
C  C37  1  0.65595377  0.48077436  0.14385912  1  0  0.459442  0  3.599693  0  0  0.424766  0  3.88694  0  0  0.449061  0  3.889938  0  0  0.228186  0.407994  0  3.884978  0
C  C38  1  0.39422340  0.09471359  0.64292622  1  0  0.124158  0  3.845034  0  0  0.121847  0  4.092174  0  0  0.1235  0  4.114709  0  0  0.071731  0.120922  0  4.077623  0
C  C39  1  0.60577776  0.90528197  0.35707467  1  0  0.124159  0  3.845047  0  0  0.121843  0  4.092216  0  0  0.12349  0  4.114757  0  0  0.071693  0.12092  0  4.077661  0
C  C40  1  0.66652887  0.17650921  0.66772922  1  0  0.452653  0  3.61705  0  0  0.424483  0  3.89686  0  0  0.448253  0  3.900156  0  0  0.226898  0.408405  0  3.894486  0
C  C41  1  0.33346986  0.82349072  0.33227164  1  0  0.452708  0  3.617046  0  0  0.424485  0  3.896851  0  0  0.448242  0  3.900151  0  0  0.226914  0.408414  0  3.894465  0
C  C42  1  0.18407169  0.40568816  0.83970248  1  0  -0.228833  0  3.713623  0  0  -0.267525  0  3.957489  0  0  -0.272569  0  3.967337  0  0  -0.158585  -0.263959  0  3.951098  0
C  C43  1  0.81592859  0.59431289  0.16029656  1  0  -0.229027  0  3.71375  0  0  -0.267739  0  3.957622  0  0  -0.272788  0  3.96747  0  0  -0.158631  -0.264152  0  3.951225  0
C  C44  1  0.59330381  0.66649124  0.84469080  1  0  0.119728  0  3.833998  0  0  0.11719  0  4.083448  0  0  0.11837  0  4.106062  0  0  0.074611  0.116488  0  4.068431  0
C  C45  1  0.40670141  0.33351419  0.15530655  1  0  0.119647  0  3.833794  0  0  0.117198  0  4.083158  0  0  0.118377  0  4.105777  0  0  0.074609  0.116495  0  4.068135  0
C  C46  1  0.46648159  0.97421117  0.64875866  1  0  0.176618  0  3.759991  0  0  0.166584  0  4.015533  0  0  0.172769  0  4.034362  0  0  0.075513  0.16213  0  4.00266  0
C  C47  1  0.53351406  0.02578658  0.35124303  1  0  0.176758  0  3.759831  0  0  0.166659  0  4.015434  0  0  0.172836  0  4.034266  0  0  0.075585  0.162205  0  4.002561  0
C  C48  1  0.84170504  0.26557209  0.68814908  1  0  -0.236561  0  3.709109  0  0  -0.27631  0  3.951017  0  0  -0.2813  0  3.960714  0  0  -0.160381  -0.272965  0  3.944535  0
C  C49  1  0.15829524  0.73442896  0.31184997  1  0  -0.236713  0  3.709249  0  0  -0.276351  0  3.951014  0  0  -0.281348  0  3.960724  0  0  -0.160415  -0.273006  0  3.944529  0
C  C50  1  0.51149486  0.71371433  0.94361712  1  0  0.184013  0  3.770782  0  0  0.170683  0  4.028216  0  0  0.177089  0  4.046787  0  0  0.078681  0.166299  0  4.01583  0
C  C51  1  0.48850451  0.28628780  0.05638285  1  0  0.183943  0  3.77092  0  0  0.17058  0  4.028354  0  0  0.176983  0  4.046924  0  0  0.078608  0.166197  0  4.015964  0
C  C52  1  0.86193101  0.35595222  0.80919365  1  0  -0.082915  0  3.662481  0  0  -0.123366  0  3.926388  0  0  -0.123265  0  3.937368  0  0  -0.166081  -0.123329  0  3.918662  0
C  C53  1  0.13806896  0.64404774  0.19080445  1  0  -0.082807  0  3.662419  0  0  -0.123298  0  3.926333  0  0  -0.123194  0  3.937307  0  0  -0.166054  -0.123261  0  3.918607  0
C  C54  1  0.75519484  0.74430464  0.81383157  1  0  -0.116114  0  3.707641  0  0  -0.136377  0  3.958783  0  0  -0.13762  0  3.977336  0  0  -0.08685  -0.135397  0  3.945917  0
C  C55  1  0.24479561  0.25569639  0.18617188  1  0  -0.116175  0  3.707351  0  0  -0.136459  0  3.958447  0  0  -0.137701  0  3.977004  0  0  -0.086871  -0.135485  0  3.945615  0
C  C56  1  0.02957876  0.47092785  0.82056045  1  0  -0.085369  0  3.659041  0  0  -0.125506  0  3.916358  0  0  -0.125957  0  3.929692  0  0  -0.163141  -0.124999  0  3.90707  0
C  C57  1  0.97042088  0.52907101  0.17943949  1  0  -0.085341  0  3.659131  0  0  -0.125488  0  3.916449  0  0  -0.125932  0  3.929776  0  0  -0.163176  -0.124985  0  3.907159  0
C  C58  1  0.12267790  0.92969833  0.61690844  1  0  -0.08243  0  3.774335  0  0  -0.098148  0  4.028989  0  0  -0.100841  0  4.051993  0  0  -0.100946  -0.096309  0  4.013334  0
C  C59  1  0.87732021  0.07029946  0.38308959  1  0  -0.082387  0  3.774482  0  0  -0.098099  0  4.029103  0  0  -0.100793  0  4.052115  0  0  -0.100958  -0.096246  0  4.013448  0
C  C60  1  0.37401958  0.83047480  0.63627027  1  0  -0.148338  0  3.731114  0  0  -0.17007  0  3.984303  0  0  -0.173762  0  4.004986  0  0  -0.098554  -0.166926  0  3.971553  0
C  C61  1  0.62598560  0.16952618  0.36373263  1  0  -0.148351  0  3.731113  0  0  -0.170054  0  3.984266  0  0  -0.173747  0  4.004954  0  0  -0.098597  -0.16691  0  3.97151  0
C  C62  1  0.19855291  0.81094800  0.62125896  1  0  -0.06958  0  3.765891  0  0  -0.086059  0  4.021395  0  0  -0.088822  0  4.044933  0  0  -0.099009  -0.084207  0  4.006381  0
C  C63  1  0.80144825  0.18904758  0.37874006  1  0  -0.069638  0  3.766064  0  0  -0.086132  0  4.021559  0  0  -0.0889  0  4.045101  0  0  -0.09902  -0.084256  0  4.006549  0
C  C64  1  0.82754729  0.86953252  0.88460812  1  0  -0.079974  0  3.781202  0  0  -0.100032  0  4.043045  0  0  -0.10205  0  4.064011  0  0  -0.098939  -0.098436  0  4.028384  0
C  C65  1  0.17244898  0.13046742  0.11539361  1  0  -0.079941  0  3.781216  0  0  -0.100014  0  4.043046  0  0  -0.102033  0  4.064015  0  0  -0.098931  -0.098419  0  4.028381  0
C  C66  1  0.74263046  0.91501934  0.98305495  1  0  -0.070608  0  3.778893  0  0  -0.088868  0  4.037501  0  0  -0.09061  0  4.059141  0  0  -0.096315  -0.087507  0  4.02282  0
C  C67  1  0.25737321  0.08498496  0.01694607  1  0  -0.070597  0  3.778932  0  0  -0.088856  0  4.03755  0  0  -0.090597  0  4.059189  0  0  -0.096309  -0.087492  0  4.022867  0
C  C68  1  0.58103119  0.83674212  0.01560474  1  0  -0.156661  0  3.749345  0  0  -0.176712  0  4.005222  0  0  -0.179983  0  4.024979  0  0  -0.095628  -0.174995  0  3.992641  0
C  C69  1  0.41896477  0.16325672  0.98439697  1  0  -0.156586  0  3.749394  0  0  -0.176669  0  4.005275  0  0  -0.179938  0  4.025033  0  0  -0.095592  -0.174951  0  3.992692  0
Br  Br70  1  0.25556381  0.43678410  0.49413374  1  0  -0.555873  0  1.159609  0  0  -0.485704  0  1.522655  0  0  -0.501259  0  1.489437  0  0  -0.275785  -0.473045  0  1.546865  0
Br  Br71  1  0.74443770  0.56321693  0.50586720  1  0  -0.555878  0  1.15964  0  0  -0.485698  0  1.522669  0  0  -0.501252  0  1.489448  0  0  -0.27578  -0.473042  0  1.546879  0
N  N72  1  0.52620605  0.22177830  0.65455946  1  0  -0.435949  0  3.294208  0  0  -0.384151  0  3.610782  0  0  -0.397013  0  3.610449  0  0  -0.379335  -0.376121  0  3.610295  0
N  N73  1  0.47379637  0.77822165  0.34543963  1  0  -0.435974  0  3.294221  0  0  -0.384182  0  3.610815  0  0  -0.397036  0  3.610495  0  0  -0.379353  -0.376154  0  3.610318  0
N  N74  1  0.48151507  0.54233539  0.79072991  1  0  -0.428871  0  3.284033  0  0  -0.378257  0  3.604  0  0  -0.389943  0  3.601934  0  0  -0.373437  -0.371208  0  3.605589  0
N  N75  1  0.51848152  0.45766565  0.20927090  1  0  -0.428753  0  3.284111  0  0  -0.37825  0  3.604147  0  0  -0.389941  0  3.602096  0  0  -0.373477  -0.371196  0  3.605728  0
O  O76  1  0.64007583  0.02703399  0.66502080  1  0  -0.257592  0  2.290353  0  0  -0.187203  0  2.505893  0  0  -0.205274  0  2.51057  0  0  -0.113238  -0.174921  0  2.502499  0
O  O77  1  0.35992749  0.97296481  0.33498296  1  0  -0.257661  0  2.290442  0  0  -0.187185  0  2.505951  0  0  -0.205238  0  2.510624  0  0  -0.11323  -0.174907  0  2.502555  0
O  O78  1  0.35353759  0.61910576  0.95120112  1  0  -0.261062  0  2.290593  0  0  -0.185233  0  2.506779  0  0  -0.20387  0  2.51023  0  0  -0.112012  -0.172771  0  2.504282  0
O  O79  1  0.64645992  0.38089420  0.04879785  1  0  -0.261014  0  2.290555  0  0  -0.185164  0  2.506718  0  0  -0.203796  0  2.510165  0  0  -0.111994  -0.172706  0  2.504225  0
