# generated using pymatgen
data_FeH8Au2(C8N5)2
_symmetry_space_group_name_H-M   'P 1'
_cell_length_a   9.98588783
_cell_length_b   9.98589084
_cell_length_c   15.09265812
_cell_angle_alpha   89.99976165
_cell_angle_beta   90.00016130
_cell_angle_gamma   104.94437032
_symmetry_Int_Tables_number   1
_chemical_formula_structural   FeH8Au2(C8N5)2
_chemical_formula_sum   'Fe2 H16 Au4 C32 N20'
_cell_volume   1454.10502770
_cell_formula_units_Z   2
loop_
 _symmetry_equiv_pos_site_id
 _symmetry_equiv_pos_as_xyz
  1  'x, y, z'
loop_
 _atom_site_type_symbol
 _atom_site_label
 _atom_site_symmetry_multiplicity
 _atom_site_fract_x
 _atom_site_fract_y
 _atom_site_fract_z
 _atom_site_occupancy
 _atom_site_hle17_bader_spin_density
 _atom_site_hle17_ddec_charge
 _atom_site_hle17_ddec_spin_density
 _atom_site_hle17_ddec_sum_bond_order
 _atom_site_hle17_magmom
 _atom_site_hse06_10hf_bader_spin_density
 _atom_site_hse06_10hf_ddec_charge
 _atom_site_hse06_10hf_ddec_spin_density
 _atom_site_hse06_10hf_ddec_sum_bond_order
 _atom_site_hse06_10hf_magmom
 _atom_site_hse06_bader_spin_density
 _atom_site_hse06_ddec_charge
 _atom_site_hse06_ddec_spin_density
 _atom_site_hse06_ddec_sum_bond_order
 _atom_site_hse06_magmom
 _atom_site_pbe_bader_spin_density
 _atom_site_pbe_cm5_charge
 _atom_site_pbe_ddec_charge
 _atom_site_pbe_ddec_spin_density
 _atom_site_pbe_ddec_sum_bond_order
 _atom_site_pbe_magmom
Fe  Fe0  1  0.24999952  0.75000002  0.61547859  1  0  0.594506  0  3.504335  0  0  0.585988  0  3.970501  0  0  0.611833  0  3.928946  0  0  0.909949  0.576461  0  3.989353  0
Fe  Fe1  1  0.74999852  0.24999907  0.38452109  1  0  0.594542  0  3.504265  0  0  0.585787  0  3.970506  0  0  0.611674  0  3.928903  0  0  0.909927  0.576405  0  3.9893  0
H  H2  1  0.07965697  0.57965892  0.75389298  1  0  0.087432  0  0.95534  0  0  0.090919  0  1.026403  0  0  0.093038  0  1.023525  0  0  0.12159  0.089242  0  1.028816  0
H  H3  1  0.42034486  0.92034551  0.75389217  1  0  0.087478  0  0.95526  0  0  0.090926  0  1.026365  0  0  0.093099  0  1.023426  0  0  0.121602  0.089219  0  1.02881  0
H  H4  1  0.92034318  0.42034429  0.24610736  1  0  0.087468  0  0.955287  0  0  0.090892  0  1.026425  0  0  0.093073  0  1.023477  0  0  0.121613  0.089185  0  1.028868  0
H  H5  1  0.57965446  0.07965460  0.24610751  1  0  0.087441  0  0.955295  0  0  0.090887  0  1.026393  0  0  0.09306  0  1.023454  0  0  0.121594  0.08918  0  1.028839  0
H  H6  1  0.07176270  0.57176403  0.91818877  1  0  0.116704  0  0.967607  0  0  0.113617  0  1.048365  0  0  0.117451  0  1.045461  0  0  0.11046  0.110936  0  1.050531  0
H  H7  1  0.42823831  0.92823846  0.91818861  1  0  0.11679  0  0.967574  0  0  0.113666  0  1.048391  0  0  0.117499  0  1.045486  0  0  0.110466  0.110985  0  1.050563  0
H  H8  1  0.92823662  0.42823608  0.08181092  1  0  0.116725  0  0.967617  0  0  0.113642  0  1.04836  0  0  0.117475  0  1.045456  0  0  0.110456  0.110961  0  1.050527  0
H  H9  1  0.57176300  0.07176162  0.08181174  1  0  0.116755  0  0.967619  0  0  0.113653  0  1.048397  0  0  0.117487  0  1.045493  0  0  0.110465  0.110972  0  1.050568  0
H  H10  1  0.07227102  0.57227185  0.31322840  1  0  0.111398  0  0.969843  0  0  0.114041  0  1.043237  0  0  0.116497  0  1.042903  0  0  0.110146  0.112318  0  1.043651  0
H  H11  1  0.42772773  0.92773194  0.31322758  1  0  0.111402  0  0.96981  0  0  0.114032  0  1.043224  0  0  0.116489  0  1.042888  0  0  0.110118  0.112308  0  1.043642  0
H  H12  1  0.92772929  0.42772825  0.68677195  1  0  0.111398  0  0.969868  0  0  0.114036  0  1.04327  0  0  0.116496  0  1.042927  0  0  0.110136  0.11231  0  1.043689  0
H  H13  1  0.57227115  0.07227026  0.68677277  1  0  0.111391  0  0.969881  0  0  0.114032  0  1.043278  0  0  0.116489  0  1.042943  0  0  0.110133  0.112309  0  1.043694  0
H  H14  1  0.07990197  0.57990092  0.47729558  1  0  0.090878  0  0.951901  0  0  0.096111  0  1.017908  0  0  0.097478  0  1.017087  0  0  0.123871  0.095086  0  1.018646  0
H  H15  1  0.42009897  0.92010089  0.47729477  1  0  0.090847  0  0.951973  0  0  0.096115  0  1.017922  0  0  0.097486  0  1.017096  0  0  0.123869  0.09509  0  1.018662  0
H  H16  1  0.92009835  0.42009918  0.52270542  1  0  0.09084  0  0.951948  0  0  0.096124  0  1.017901  0  0  0.097495  0  1.017074  0  0  0.123879  0.095098  0  1.01864  0
H  H17  1  0.57990091  0.07990129  0.52270690  1  0  0.09084  0  0.951951  0  0  0.096117  0  1.017912  0  0  0.097488  0  1.017085  0  0  0.123881  0.09509  0  1.018652  0
Au  Au18  1  0.25000058  0.24999903  0.60635696  1  0  0.076431  0  2.428822  0  0  0.010027  0  2.898432  0  0  0.023208  0  2.855105  0  0  0.239742  0.001389  0  2.928148  0
Au  Au19  1  0.24999829  0.24999965  0.39363830  1  0  0.076384  0  2.42865  0  0  0.009973  0  2.898232  0  0  0.023158  0  2.854918  0  0  0.239739  0.001332  0  2.927947  0
Au  Au20  1  0.75000273  0.75000102  0.39363477  1  0  0.076473  0  2.428871  0  0  0.010078  0  2.898471  0  0  0.023258  0  2.855153  0  0  0.239805  0.001435  0  2.928193  0
Au  Au21  1  0.74999948  0.74999840  0.60635674  1  0  0.076358  0  2.428602  0  0  0.009949  0  2.898173  0  0  0.023132  0  2.85486  0  0  0.239719  0.00131  0  2.927892  0
C  C22  1  0.23317257  0.44142088  0.61070979  1  0  0.0417  0  3.594874  0  0  0.047401  0  3.947971  0  0  0.054467  0  3.953418  0  0  -0.009486  0.04295  0  3.943841  0
C  C23  1  0.26683104  0.05857505  0.61071896  1  0  0.041663  0  3.595098  0  0  0.047352  0  3.948204  0  0  0.054414  0  3.953657  0  0  -0.009565  0.042905  0  3.94407  0
C  C24  1  0.05857339  0.26683337  0.38928168  1  0  0.041658  0  3.595191  0  0  0.04737  0  3.94826  0  0  0.054426  0  3.953723  0  0  -0.009525  0.042916  0  3.944137  0
C  C25  1  0.44142416  0.23316595  0.38928142  1  0  0.041661  0  3.595157  0  0  0.047372  0  3.948237  0  0  0.054425  0  3.953709  0  0  -0.009546  0.04292  0  3.944111  0
C  C26  1  0.76683717  0.55857701  0.38927796  1  0  0.041629  0  3.595099  0  0  0.047343  0  3.948176  0  0  0.054398  0  3.953638  0  0  -0.009557  0.042883  0  3.944056  0
C  C27  1  0.73316816  0.94142090  0.38928072  1  0  0.04162  0  3.594907  0  0  0.047329  0  3.948003  0  0  0.054381  0  3.953477  0  0  -0.009598  0.042867  0  3.943889  0
C  C28  1  0.94142265  0.73316574  0.61071337  1  0  0.041694  0  3.595063  0  0  0.047399  0  3.948154  0  0  0.054458  0  3.953618  0  0  -0.009505  0.042951  0  3.944022  0
C  C29  1  0.55857360  0.76683210  0.61072025  1  0  0.041794  0  3.595059  0  0  0.0475  0  3.948133  0  0  0.054557  0  3.9536  0  0  -0.009465  0.043055  0  3.944002  0
C  C30  1  0.15477884  0.65477965  0.79272375  1  0  0.130667  0  3.640834  0  0  0.103004  0  3.891079  0  0  0.11131  0  3.908346  0  0  0.056692  0.097232  0  3.879916  0
C  C31  1  0.34522310  0.84522456  0.79272367  1  0  0.130651  0  3.640649  0  0  0.103016  0  3.890876  0  0  0.111282  0  3.908126  0  0  0.056673  0.097271  0  3.879723  0
C  C32  1  0.84522304  0.34522250  0.20727858  1  0  0.130731  0  3.640463  0  0  0.103129  0  3.890664  0  0  0.111389  0  3.907908  0  0  0.056722  0.097381  0  3.879517  0
C  C33  1  0.65477622  0.15477555  0.20727933  1  0  0.130738  0  3.640475  0  0  0.103127  0  3.890687  0  0  0.111393  0  3.907932  0  0  0.05672  0.097377  0  3.879541  0
C  C34  1  0.15104368  0.65104420  0.88462870  1  0  -0.130665  0  3.692327  0  0  -0.149805  0  3.937928  0  0  -0.158299  0  3.959705  0  0  -0.072263  -0.144275  0  3.92348  0
C  C35  1  0.34895824  0.84895847  0.88462862  1  0  -0.13083  0  3.692381  0  0  -0.149933  0  3.937931  0  0  -0.15843  0  3.959726  0  0  -0.072235  -0.144407  0  3.923479  0
C  C36  1  0.84895836  0.34895483  0.11537098  1  0  -0.130801  0  3.692026  0  0  -0.1499  0  3.937629  0  0  -0.158395  0  3.959421  0  0  -0.072299  -0.144374  0  3.923177  0
C  C37  1  0.65104279  0.15104058  0.11537106  1  0  -0.130846  0  3.692059  0  0  -0.149936  0  3.937659  0  0  -0.158434  0  3.95945  0  0  -0.07229  -0.144409  0  3.923208  0
C  C38  1  0.25000081  0.75000225  0.93239824  1  0  0.031232  0  3.777152  0  0  0.044323  0  4.003133  0  0  0.0472  0  4.028093  0  0  0.005821  0.0424  0  3.986245  0
C  C39  1  0.75000051  0.24999784  0.06760342  1  0  0.031373  0  3.776929  0  0  0.044369  0  4.003101  0  0  0.047243  0  4.02806  0  0  0.005856  0.042444  0  3.986213  0
C  C40  1  0.25000070  0.75000162  0.02996609  1  0  0.267543  0  3.716592  0  0  0.257618  0  3.97258  0  0  0.262744  0  3.989402  0  0  0.251927  0.253874  0  3.961527  0
C  C41  1  0.75000062  0.24999846  0.97003558  1  0  0.267671  0  3.716657  0  0  0.257708  0  3.97273  0  0  0.262836  0  3.98955  0  0  0.25193  0.253964  0  3.961676  0
C  C42  1  0.24999922  0.75000220  0.20132093  1  0  0.271864  0  3.718999  0  0  0.265339  0  3.969257  0  0  0.27105  0  3.985603  0  0  0.254789  0.26091  0  3.958841  0
C  C43  1  0.75000138  0.24999893  0.79868074  1  0  0.27163  0  3.719092  0  0  0.265111  0  3.969374  0  0  0.270818  0  3.985727  0  0  0.254678  0.260727  0  3.958895  0
C  C44  1  0.24999936  0.75000193  0.29879282  1  0  0.027673  0  3.781914  0  0  0.04092  0  4.005893  0  0  0.042762  0  4.030891  0  0  0.007925  0.040083  0  3.988714  0
C  C45  1  0.75000024  0.24999921  0.70120818  1  0  0.027704  0  3.781894  0  0  0.040935  0  4.005897  0  0  0.042777  0  4.030897  0  0  0.00794  0.040083  0  3.98871  0
C  C46  1  0.15132360  0.65132494  0.34659028  1  0  -0.124609  0  3.703087  0  0  -0.146798  0  3.953138  0  0  -0.155095  0  3.976161  0  0  -0.069157  -0.141452  0  3.93774  0
C  C47  1  0.34867525  0.84867866  0.34659019  1  0  -0.124656  0  3.703151  0  0  -0.14687  0  3.95323  0  0  -0.155167  0  3.976251  0  0  -0.069166  -0.141523  0  3.937833  0
C  C48  1  0.84867699  0.34867619  0.65341139  1  0  -0.124693  0  3.70304  0  0  -0.146884  0  3.953137  0  0  -0.155182  0  3.976159  0  0  -0.06919  -0.141539  0  3.937742  0
C  C49  1  0.65132463  0.15132352  0.65341214  1  0  -0.124652  0  3.703084  0  0  -0.146836  0  3.953167  0  0  -0.155134  0  3.97619  0  0  -0.069158  -0.141493  0  3.937775  0
C  C50  1  0.15483564  0.65483710  0.43836205  1  0  0.134583  0  3.641897  0  0  0.105726  0  3.892261  0  0  0.113297  0  3.911189  0  0  0.058985  0.100535  0  3.87984  0
C  C51  1  0.34516374  0.84516703  0.43836197  1  0  0.134577  0  3.64196  0  0  0.10576  0  3.892229  0  0  0.113331  0  3.911154  0  0  0.059036  0.100571  0  3.879806  0
C  C52  1  0.84516424  0.34516508  0.56163829  1  0  0.134685  0  3.64174  0  0  0.105791  0  3.892098  0  0  0.113362  0  3.911025  0  0  0.059035  0.100601  0  3.87968  0
C  C53  1  0.65483486  0.15483413  0.56163904  1  0  0.134669  0  3.641708  0  0  0.105776  0  3.892065  0  0  0.113348  0  3.910989  0  0  0.059006  0.100588  0  3.879648  0
N  N54  1  0.22927350  0.55753141  0.61422790  1  0  -0.340989  0  3.360996  0  0  -0.312787  0  3.64997  0  0  -0.32912  0  3.668143  0  0  -0.390173  -0.302918  0  3.636019  0
N  N55  1  0.27072810  0.94247068  0.61423006  1  0  -0.340914  0  3.361223  0  0  -0.3127  0  3.650185  0  0  -0.329037  0  3.668365  0  0  -0.39012  -0.302831  0  3.636228  0
N  N56  1  0.94246989  0.27072742  0.38576953  1  0  -0.340875  0  3.361365  0  0  -0.312641  0  3.650296  0  0  -0.328981  0  3.668471  0  0  -0.390127  -0.302787  0  3.636349  0
N  N57  1  0.55752571  0.22927281  0.38576923  1  0  -0.340914  0  3.36127  0  0  -0.312681  0  3.650209  0  0  -0.329023  0  3.668383  0  0  -0.390133  -0.302827  0  3.636259  0
N  N58  1  0.77072909  0.44246970  0.38576847  1  0  -0.34092  0  3.3612  0  0  -0.312686  0  3.65013  0  0  -0.329024  0  3.668306  0  0  -0.390145  -0.302833  0  3.636186  0
N  N59  1  0.72926978  0.05753153  0.38576963  1  0  -0.34093  0  3.360949  0  0  -0.312691  0  3.649893  0  0  -0.329031  0  3.668067  0  0  -0.390125  -0.302839  0  3.635954  0
N  N60  1  0.05752815  0.72927167  0.61422882  1  0  -0.340946  0  3.36125  0  0  -0.312736  0  3.650218  0  0  -0.329077  0  3.668396  0  0  -0.390163  -0.30287  0  3.636266  0
N  N61  1  0.44247289  0.77072835  0.61423045  1  0  -0.340993  0  3.361293  0  0  -0.312785  0  3.650258  0  0  -0.329127  0  3.668443  0  0  -0.390173  -0.302917  0  3.636304  0
N  N62  1  0.25000098  0.75000068  0.74660592  1  0  -0.18498  0  3.310068  0  0  -0.138292  0  3.574147  0  0  -0.15836  0  3.59324  0  0  -0.313663  -0.125687  0  3.56047  0
N  N63  1  0.74999833  0.24999943  0.25339508  1  0  -0.1851  0  3.31016  0  0  -0.13839  0  3.574194  0  0  -0.158468  0  3.593302  0  0  -0.313689  -0.125801  0  3.56052  0
N  N64  1  0.15168532  0.65168398  0.07204222  1  0  -0.153515  0  2.931226  0  0  -0.134188  0  3.200516  0  0  -0.136003  0  3.209631  0  0  -0.142446  -0.133027  0  3.1947  0
N  N65  1  0.34831691  0.84831797  0.07204213  1  0  -0.153476  0  2.931189  0  0  -0.134134  0  3.200473  0  0  -0.135948  0  3.209587  0  0  -0.142449  -0.132971  0  3.194659  0
N  N66  1  0.84831599  0.34831610  0.92795945  1  0  -0.153658  0  2.931402  0  0  -0.134313  0  3.200704  0  0  -0.136129  0  3.209816  0  0  -0.142488  -0.133154  0  3.194892  0
N  N67  1  0.65168269  0.15168317  0.92795954  1  0  -0.153634  0  2.931348  0  0  -0.134278  0  3.200647  0  0  -0.136093  0  3.209758  0  0  -0.142476  -0.133118  0  3.194836  0
N  N68  1  0.15169111  0.65168991  0.15932638  1  0  -0.151772  0  2.926017  0  0  -0.132626  0  3.192053  0  0  -0.134258  0  3.201225  0  0  -0.140896  -0.131678  0  3.186429  0
N  N69  1  0.34831036  0.84831157  0.15932629  1  0  -0.151721  0  2.926052  0  0  -0.132573  0  3.192078  0  0  -0.134206  0  3.20125  0  0  -0.140815  -0.131625  0  3.186455  0
N  N70  1  0.84831120  0.34831016  0.84067529  1  0  -0.151583  0  2.926105  0  0  -0.132423  0  3.192117  0  0  -0.134055  0  3.20129  0  0  -0.140795  -0.131491  0  3.186479  0
N  N71  1  0.65168924  0.15168957  0.84067538  1  0  -0.151598  0  2.926084  0  0  -0.132438  0  3.192087  0  0  -0.13407  0  3.201261  0  0  -0.140797  -0.131506  0  3.18645  0
N  N72  1  0.24999962  0.75000142  0.48424193  1  0  -0.185795  0  3.318485  0  0  -0.134518  0  3.573666  0  0  -0.155956  0  3.594625  0  0  -0.311619  -0.120888  0  3.558733  0
N  N73  1  0.75000026  0.25000076  0.51575907  1  0  -0.185825  0  3.318319  0  0  -0.134484  0  3.573498  0  0  -0.155927  0  3.594455  0  0  -0.311596  -0.120869  0  3.558575  0
