# generated using pymatgen
data_NiH12C18(NO2)2
_symmetry_space_group_name_H-M   'P 1'
_cell_length_a   8.64137261
_cell_length_b   10.11263273
_cell_length_c   10.39803675
_cell_angle_alpha   79.58283973
_cell_angle_beta   69.46588986
_cell_angle_gamma   76.16655261
_symmetry_Int_Tables_number   1
_chemical_formula_structural   NiH12C18(NO2)2
_chemical_formula_sum   'Ni2 H24 C36 N4 O8'
_cell_volume   821.53050681
_cell_formula_units_Z   2
loop_
 _symmetry_equiv_pos_site_id
 _symmetry_equiv_pos_as_xyz
  1  'x, y, z'
loop_
 _atom_site_type_symbol
 _atom_site_label
 _atom_site_symmetry_multiplicity
 _atom_site_fract_x
 _atom_site_fract_y
 _atom_site_fract_z
 _atom_site_occupancy
 _atom_site_pbe_bader_charge
 _atom_site_pbe_bader_spin_density
 _atom_site_pbe_cm5_charge
 _atom_site_pbe_ddec_charge
 _atom_site_pbe_ddec_spin_density
 _atom_site_pbe_ddec_sum_bond_order
 _atom_site_pbe_magmom
Ni  Ni0  1  0.92531962  0.86614909  0.88325030  1  1.075248  -0.013842  0.634924  0.649402  -0.02899  2.695373  -0.016
Ni  Ni1  1  0.07468313  0.13385347  0.11676334  1  1.075024  0.01382  0.634978  0.649669  0.028965  2.695516  0.016
H  H2  1  0.23585632  0.04351421  0.40674632  1  0.177918  0.000273  0.113925  0.138768  0.00017  1.066455  0.0
H  H3  1  0.76422354  0.95646704  0.59325907  1  0.177645  -0.000272  0.113932  0.138719  -0.00017  1.066377  0.0
H  H4  1  0.00593031  0.04077357  0.62801045  1  0.139835  0.000913  0.12031  0.092323  0.000551  1.054466  0.001
H  H5  1  0.99411473  0.95924254  0.37198977  1  0.140111  -0.000912  0.12026  0.092381  -0.00055  1.054359  -0.001
H  H6  1  0.50211340  0.67263096  0.57703905  1  0.093145  0.000352  0.105729  0.11012  0.000217  1.032683  0.0
H  H7  1  0.49783303  0.32728394  0.42297150  1  0.093613  -0.000351  0.105711  0.1102  -0.000217  1.032741  0.0
H  H8  1  0.25452557  0.68642883  0.79159488  1  0.146534  0.000818  0.127195  0.107884  0.000495  0.981667  0.001
H  H9  1  0.74540832  0.31352899  0.20841153  1  0.146894  -0.000817  0.126986  0.107453  -0.000495  0.981632  -0.001
H  H10  1  0.63672220  0.63763670  0.34447131  1  0.080495  0.00031  0.107643  0.113736  0.000191  1.006116  0.0
H  H11  1  0.36293879  0.36220777  0.65540597  1  0.082147  -0.000309  0.107534  0.113733  -0.000191  1.006889  0.0
H  H12  1  0.83348420  0.65099349  0.10420465  1  0.12131  0.000641  0.123544  0.102043  0.000419  1.016457  0.0
H  H13  1  0.16625923  0.34892023  0.89568194  1  0.121913  -0.000641  0.12346  0.101841  -0.000419  1.016641  0.0
H  H14  1  0.44685493  0.07154861  0.26848775  1  0.156177  0.000249  0.112273  0.132221  0.000163  1.042041  0.0
H  H15  1  0.55344967  0.92847863  0.73173250  1  0.155336  -0.000249  0.112378  0.132589  -0.000163  1.041854  0.0
H  H16  1  0.64271277  0.06401913  0.03357898  1  0.127039  0.000649  0.125512  0.100655  0.000403  1.01695  0.0
H  H17  1  0.35759609  0.93607582  0.96663403  1  0.126563  -0.000649  0.125564  0.100779  -0.000403  1.016331  0.0
H  H18  1  0.20466610  0.35752191  0.44106316  1  0.08089  -4.6e-05  0.101371  0.101315  -3e-05  1.016089  0.0
H  H19  1  0.79525900  0.64255246  0.55894839  1  0.08082  4.6e-05  0.101474  0.101369  3e-05  1.016093  0.0
H  H20  1  0.11571800  0.57712494  0.07105953  1  0.115117  9.9e-05  0.107178  0.115283  9.2e-05  1.020194  0.0
H  H21  1  0.88425523  0.42286075  0.92890763  1  0.11546  -9.9e-05  0.107137  0.115235  -9.2e-05  1.020073  0.0
H  H22  1  0.19885380  0.79202470  0.35403366  1  0.081627  0.00011  0.096448  0.092317  0.000114  1.066155  0.0
H  H23  1  0.80116508  0.20803373  0.64586946  1  0.082645  -0.00011  0.096534  0.092311  -0.000114  1.066104  0.0
H  H24  1  0.22923783  0.57606797  0.50871428  1  0.069701  2e-05  0.092522  0.085993  2e-06  1.031051  0.0
H  H25  1  0.77069679  0.42401885  0.49125183  1  0.068341  -2e-05  0.09234  0.085849  -2e-06  1.031219  0.0
C  C26  1  0.13297380  0.82865143  0.10991355  1  1.548085  0.003146  0.208174  0.563005  0.00356  4.199849  0.002
C  C27  1  0.86706983  0.17137212  0.89001126  1  1.547584  -0.00314  0.20808  0.563363  -0.003552  4.20014  -0.002
C  C28  1  0.24993340  0.96206200  0.48828832  1  -0.052361  0.001711  -0.0837  -0.183755  0.001437  3.933234  0.001
C  C29  1  0.75010469  0.03792079  0.51172327  1  -0.052639  -0.001708  -0.083606  -0.183688  -0.001435  3.933285  -0.001
C  C30  1  0.11822044  0.96125601  0.61113684  1  0.436644  0.000132  0.049695  0.094285  0.000329  3.91906  0.0
C  C31  1  0.88180345  0.03874233  0.38886544  1  0.435976  -0.000133  0.04964  0.094278  -0.000329  3.919038  0.0
C  C32  1  0.39261631  0.85667688  0.46892631  1  -0.010987  -0.000652  0.012075  0.102027  -0.00054  3.973408  0.0
C  C33  1  0.60738219  0.14325599  0.53109458  1  -0.011987  0.00065  0.012016  0.102147  0.000539  3.973436  0.0
C  C34  1  0.39448707  0.75596337  0.58132154  1  -0.03156  0.001677  -0.080989  -0.175874  0.001378  3.936078  0.001
C  C35  1  0.60546453  0.24396968  0.41869728  1  -0.031896  -0.001675  -0.081183  -0.17643  -0.001376  3.936553  -0.001
C  C36  1  0.25717434  0.76221851  0.70238545  1  0.459032  9.5e-05  0.054148  0.096041  0.000353  3.89219  0.0
C  C37  1  0.74277420  0.23774068  0.29762923  1  0.459411  -9.5e-05  0.054412  0.096864  -0.000353  3.891729  0.0
C  C38  1  0.63643956  0.73613738  0.28126786  1  -0.008705  0.00129  -0.081933  -0.169767  0.001051  3.94091  0.001
C  C39  1  0.36341782  0.26376776  0.71868691  1  -0.008099  -0.001291  -0.081528  -0.169543  -0.001052  3.941268  -0.001
C  C40  1  0.52363622  0.85481275  0.33175718  1  -0.044319  -0.000211  0.010598  0.097394  -0.000189  3.974472  0.0
C  C41  1  0.47637206  0.14512117  0.66828436  1  -0.046348  0.00021  0.010658  0.097369  0.000189  3.974758  0.0
C  C42  1  0.74649624  0.74168760  0.14645826  1  0.46757  0.000517  0.047298  0.087414  0.000617  3.903182  0.0
C  C43  1  0.25336912  0.25824759  0.85350684  1  0.465688  -0.000517  0.047262  0.087615  -0.000617  3.90272  0.0
C  C44  1  0.53017770  0.97488076  0.23958050  1  -0.000569  0.001359  -0.075663  -0.155249  0.001134  3.901733  0.001
C  C45  1  0.47000374  0.02511043  0.76056125  1  0.001326  -0.00136  -0.07576  -0.155459  -0.001135  3.901768  -0.001
C  C46  1  0.64066401  0.97252497  0.10608095  1  0.450701  0.000312  0.053487  0.104885  0.000392  3.908525  0.0
C  C47  1  0.35952236  0.02751266  0.89406079  1  0.453369  -0.000313  0.053311  0.104645  -0.000392  3.908885  0.0
C  C48  1  0.19279766  0.45385429  0.37532710  1  -0.049952  0.001753  -0.085686  -0.094814  0.001432  3.985425  0.001
C  C49  1  0.80714347  0.54620914  0.62466173  1  -0.050142  -0.001752  -0.085631  -0.094996  -0.001431  3.985574  -0.001
C  C50  1  0.15901139  0.45409863  0.25269364  1  -0.034545  -0.001402  -0.020326  -0.028546  -0.001104  3.983684  -0.002
C  C51  1  0.84095511  0.54593364  0.74729107  1  -0.023624  0.001405  -0.020198  -0.027741  0.001105  3.982938  0.002
C  C52  1  0.14013169  0.57620621  0.16720260  1  -0.029139  0.001407  -0.079384  -0.114097  0.001174  3.936156  0.001
C  C53  1  0.85984450  0.42381483  0.83275733  1  -0.040247  -0.001409  -0.079499  -0.114678  -0.001173  3.935841  -0.001
C  C54  1  0.14716180  0.32080859  0.21722990  1  1.539619  0.00116  0.199612  0.546779  0.001521  4.211094  0.0
C  C55  1  0.85284064  0.67920251  0.78277548  1  1.53946  -0.001161  0.199563  0.54635  -0.001522  4.211278  0.0
C  C56  1  0.15416697  0.69849233  0.20372716  1  -0.039185  0.001878  -0.021806  -0.037404  0.001602  3.979058  0.001
C  C57  1  0.84584801  0.30152667  0.79620075  1  -0.040894  -0.00188  -0.021677  -0.036873  -0.001602  3.978459  -0.001
C  C58  1  0.18716522  0.69703835  0.32663548  1  -0.046813  0.001387  -0.087408  -0.089926  0.001119  3.968041  0.001
C  C59  1  0.81283080  0.30301720  0.67329242  1  -0.045713  -0.001385  -0.087702  -0.09029  -0.001118  3.967821  -0.001
C  C60  1  0.20629127  0.57523174  0.41216989  1  -0.056459  -0.000113  -0.099618  -0.094523  -0.000121  4.044551  0.0
C  C61  1  0.79365327  0.42484828  0.58779519  1  -0.05572  0.000112  -0.099319  -0.094139  0.00012  4.044523  0.0
N  N62  1  0.11948331  0.86287413  0.71697898  1  -1.198192  0.025162  -0.326483  -0.157695  0.020394  3.593312  0.019
N  N63  1  0.88051079  0.13711471  0.28301711  1  -1.198122  -0.025126  -0.326419  -0.158107  -0.020366  3.593197  -0.019
N  N64  1  0.75021419  0.85856200  0.05875521  1  -1.197451  0.020624  -0.332077  -0.18465  0.016665  3.61384  0.014
N  N65  1  0.24981771  0.14143788  0.94129356  1  -1.198402  -0.020619  -0.332127  -0.184877  -0.016661  3.614398  -0.014
O  O66  1  0.12745744  0.82239469  0.99253501  1  -1.178169  0.010342  -0.307166  -0.564377  0.008259  2.346874  0.008
O  O67  1  0.87267001  0.17764815  0.00735263  1  -1.177155  -0.010318  -0.307216  -0.56482  -0.008241  2.347675  -0.008
O  O68  1  0.12613482  0.93872528  0.16076592  1  -1.121744  0.034645  -0.307786  -0.525892  0.027712  2.481629  0.029
O  O69  1  0.87381813  0.06128602  0.83921363  1  -1.121536  -0.034669  -0.307644  -0.525993  -0.027728  2.481273  -0.029
O  O70  1  0.06652883  0.32533845  0.13096949  1  -1.080213  0.029916  -0.303012  -0.506467  0.024124  2.338704  0.025
O  O71  1  0.93346393  0.67464918  0.86904519  1  -1.080466  -0.02995  -0.303019  -0.506483  -0.024151  2.339021  -0.025
O  O72  1  0.21287344  0.21137173  0.27198976  1  -1.186342  -0.002305  -0.310716  -0.550886  -0.002078  2.234077  -0.003
O  O73  1  0.78717606  0.78865827  0.72800529  1  -1.186321  0.002311  -0.310614  -0.550606  0.002083  2.234465  0.003
