# generated using pymatgen
data_CaH8C14SIO6
_symmetry_space_group_name_H-M   'P 1'
_cell_length_a   5.57601225
_cell_length_b   11.83682704
_cell_length_c   22.70922389
_cell_angle_alpha   100.60732670
_cell_angle_beta   90.00017795
_cell_angle_gamma   90.00049932
_symmetry_Int_Tables_number   1
_chemical_formula_structural   CaH8C14SIO6
_chemical_formula_sum   'Ca4 H32 C56 S4 I4 O24'
_cell_volume   1473.24803296
_cell_formula_units_Z   4
loop_
 _symmetry_equiv_pos_site_id
 _symmetry_equiv_pos_as_xyz
  1  'x, y, z'
loop_
 _atom_site_type_symbol
 _atom_site_label
 _atom_site_symmetry_multiplicity
 _atom_site_fract_x
 _atom_site_fract_y
 _atom_site_fract_z
 _atom_site_occupancy
 _atom_site_pbe_bader_charge
 _atom_site_pbe_bader_spin_density
 _atom_site_pbe_cm5_charge
 _atom_site_pbe_ddec_charge
 _atom_site_pbe_ddec_spin_density
 _atom_site_pbe_ddec_sum_bond_order
 _atom_site_pbe_magmom
Ca  Ca0  1  0.20321541  0.36568544  0.78108927  1  1.659813  0  0.909508  1.43662  0  1.445764  0
Ca  Ca1  1  0.70321267  0.13432318  0.71890889  1  1.659832  0  0.90958  1.436788  0  1.445421  0
Ca  Ca2  1  0.79680103  0.63432910  0.21890826  1  1.659817  0  0.909577  1.436741  0  1.445528  0
Ca  Ca3  1  0.29678224  0.86566992  0.28109193  1  1.659783  0  0.90959  1.436847  0  1.445333  0
H  H4  1  0.38427050  0.65066567  0.82799617  1  0.148422  0  0.116048  0.123683  0  1.028055  0
H  H5  1  0.88424104  0.84935247  0.67200323  1  0.148546  0  0.116039  0.123658  0  1.028048  0
H  H6  1  0.61573159  0.34933782  0.17201178  1  0.148502  0  0.11604  0.123695  0  1.028065  0
H  H7  1  0.11575567  0.15066557  0.32799991  1  0.148547  0  0.116069  0.123716  0  1.028184  0
H  H8  1  0.48642204  0.81515923  0.77714292  1  0.121224  0  0.103265  0.107168  0  1.03489  0
H  H9  1  0.98640934  0.68486460  0.72285928  1  0.121284  0  0.103224  0.107139  0  1.03491  0
H  H10  1  0.51358184  0.18484255  0.22286663  1  0.121448  0  0.103264  0.107216  0  1.034741  0
H  H11  1  0.01359813  0.31516118  0.27714591  1  0.121435  0  0.103275  0.107187  0  1.034805  0
H  H12  1  0.80446350  0.97210044  0.82881733  1  0.113021  0  0.114051  0.116165  0  1.007541  0
H  H13  1  0.30446984  0.52790808  0.67118729  1  0.113148  0  0.114048  0.116166  0  1.007617  0
H  H14  1  0.19554756  0.02790738  0.17119543  1  0.112842  0  0.11404  0.116162  0  1.007531  0
H  H15  1  0.69557709  0.47209096  0.32880527  1  0.112842  0  0.114048  0.116151  0  1.007612  0
H  H16  1  0.70818529  0.81409332  0.88414630  1  0.094504  0  0.097181  0.099442  0  1.040194  0
H  H17  1  0.20817135  0.68590786  0.61585492  1  0.098177  0  0.097192  0.099412  0  1.040086  0
H  H18  1  0.29182397  0.18590932  0.11586333  1  0.094821  0  0.097155  0.099428  0  1.040228  0
H  H19  1  0.79186481  0.31409034  0.38413932  1  0.094535  0  0.097157  0.099472  0  1.040063  0
H  H20  1  0.40165212  0.56504081  0.95078781  1  0.146112  0  0.10998  0.122162  0  1.05081  0
H  H21  1  0.90162619  0.93495346  0.54920674  1  0.143111  0  0.109959  0.122234  0  1.05084  0
H  H22  1  0.59830872  0.43494711  0.04920944  1  0.146109  0  0.109962  0.12228  0  1.050851  0
H  H23  1  0.09837769  0.06503960  0.45079011  1  0.143107  0  0.109955  0.122221  0  1.050747  0
H  H24  1  0.53450866  0.61182854  0.05801010  1  0.126995  0  0.110211  0.109929  0  1.030125  0
H  H25  1  0.03449004  0.88815913  0.44198137  1  0.127011  0  0.110218  0.109865  0  1.030187  0
H  H26  1  0.46547550  0.38815333  0.94198306  1  0.127542  0  0.110201  0.109919  0  1.030037  0
H  H27  1  0.96551205  0.11183049  0.55801428  1  0.127167  0  0.110211  0.109833  0  1.030255  0
H  H28  1  0.86743510  0.78559998  0.10670260  1  0.119999  0  0.116366  0.119625  0  1.008753  0
H  H29  1  0.36741041  0.71439136  0.39329207  1  0.119868  0  0.116425  0.119693  0  1.008755  0
H  H30  1  0.13257416  0.21439743  0.89329949  1  0.120062  0  0.116356  0.119614  0  1.008723  0
H  H31  1  0.63257733  0.28561118  0.60670698  1  0.119792  0  0.116346  0.119569  0  1.008659  0
H  H32  1  0.73539774  0.74193426  0.00005177  1  0.10739  0  0.097699  0.100823  0  1.03992  0
H  H33  1  0.23536120  0.75806732  0.49994290  1  0.107096  0  0.09764  0.100734  0  1.039952  0
H  H34  1  0.26457566  0.25806062  0.99995406  1  0.107685  0  0.097663  0.100814  0  1.039796  0
H  H35  1  0.76461937  0.24195066  0.50005496  1  0.107113  0  0.097601  0.100671  0  1.039937  0
C  C36  1  0.04193570  0.72459442  0.85917375  1  -0.243036  0  -0.023693  -0.094757  0  4.004886  0
C  C37  1  0.54191629  0.77541135  0.64082515  1  -0.243164  0  -0.023775  -0.094995  0  4.005219  0
C  C38  1  0.95804845  0.27539696  0.14082602  1  -0.243592  0  -0.023583  -0.094553  0  4.004774  0
C  C39  1  0.45809836  0.22459892  0.35917550  1  -0.242904  0  -0.023658  -0.094836  0  4.004882  0
C  C40  1  0.26147770  0.72266767  0.82937039  1  -0.040842  0  -0.078955  -0.090963  0  3.962496  0
C  C41  1  0.76145869  0.77734538  0.67062978  1  -0.040942  0  -0.078936  -0.090869  0  3.962555  0
C  C42  1  0.73851184  0.27732543  0.17063042  1  -0.040707  0  -0.078906  -0.091075  0  3.96241  0
C  C43  1  0.23854160  0.22267095  0.32937497  1  -0.040712  0  -0.079014  -0.091072  0  3.962452  0
C  C44  1  0.31705926  0.81395413  0.80083952  1  -0.024011  0  -0.079145  -0.084818  0  3.937298  0
C  C45  1  0.81704797  0.68606655  0.69916140  1  -0.024391  0  -0.079096  -0.084799  0  3.937595  0
C  C46  1  0.68293386  0.18604244  0.19916426  1  -0.024161  0  -0.079136  -0.084749  0  3.937173  0
C  C47  1  0.18295950  0.31395409  0.30084463  1  -0.024204  0  -0.079253  -0.084783  0  3.937352  0
C  C48  1  0.15415517  0.90387971  0.80058800  1  -0.03886  0  -0.004619  -0.020101  0  3.924368  0
C  C49  1  0.65415293  0.59613618  0.69941104  1  -0.038824  0  -0.004541  -0.019913  0  3.924362  0
C  C50  1  0.84583796  0.09611771  0.19941410  1  -0.039131  0  -0.004619  -0.020152  0  3.924675  0
C  C51  1  0.34586530  0.40387926  0.30058965  1  -0.039044  0  -0.004544  -0.020114  0  3.92458  0
C  C52  1  0.93432405  0.90392077  0.83057853  1  -0.037275  0  -0.079458  -0.097492  0  3.958712  0
C  C53  1  0.43432177  0.59609034  0.66942421  1  -0.037097  0  -0.079481  -0.097707  0  3.958946  0
C  C54  1  0.06567445  0.09608184  0.16942802  1  -0.037253  0  -0.079424  -0.097482  0  3.958948  0
C  C55  1  0.56570543  0.40391821  0.33057540  1  -0.037158  0  -0.07944  -0.097552  0  3.95896  0
C  C56  1  0.87899176  0.81521780  0.86097765  1  -0.036247  0  -0.089966  -0.101509  0  4.010574  0
C  C57  1  0.37898357  0.68479170  0.63902402  1  -0.039953  0  -0.089916  -0.101216  0  4.010508  0
C  C58  1  0.12100316  0.18478222  0.13902777  1  -0.036247  0  -0.090036  -0.101534  0  4.01094  0
C  C59  1  0.62104900  0.31521598  0.36097375  1  -0.036511  0  -0.089933  -0.101381  0  4.010436  0
C  C60  1  0.21295222  0.99702409  0.76545039  1  1.621695  0  0.233089  0.630696  0  4.197576  0
C  C61  1  0.71296143  0.50298652  0.73454379  1  1.621616  0  0.23316  0.630907  0  4.197673  0
C  C62  1  0.78704449  0.00296815  0.23454946  1  1.622143  0  0.233101  0.630614  0  4.197815  0
C  C63  1  0.28707473  0.49702716  0.26545410  1  1.622065  0  0.233136  0.630687  0  4.197768  0
C  C64  1  0.05953056  0.64836604  0.97017078  1  -0.197813  0  -0.024271  -0.084258  0  3.993065  0
C  C65  1  0.55951325  0.85161933  0.52982447  1  -0.1979  0  -0.024204  -0.084282  0  3.993199  0
C  C66  1  0.94043566  0.35162277  0.02982963  1  -0.198455  0  -0.024204  -0.084268  0  3.993039  0
C  C67  1  0.44048167  0.14837891  0.47017418  1  -0.198423  0  -0.024235  -0.084294  0  3.993306  0
C  C68  1  0.28575903  0.61205240  0.98523798  1  0.014285  0  -0.085802  -0.094982  0  3.967198  0
C  C69  1  0.78574791  0.88793430  0.51475622  1  0.01797  0  -0.085805  -0.094998  0  3.967102  0
C  C70  1  0.71420539  0.38793382  0.01476087  1  0.015207  0  -0.085804  -0.095188  0  3.967418  0
C  C71  1  0.21426494  0.11205877  0.48524107  1  0.018006  0  -0.085751  -0.094985  0  3.967165  0
C  C72  1  0.35971310  0.63886691  0.04459292  1  -0.07873  0  -0.076579  -0.078078  0  3.944372  0
C  C73  1  0.85970382  0.86111575  0.45540225  1  -0.105916  0  -0.076557  -0.077942  0  3.944279  0
C  C74  1  0.64026926  0.36112015  0.95540424  1  -0.084041  0  -0.076568  -0.077861  0  3.944031  0
C  C75  1  0.14030544  0.13887391  0.54459736  1  -0.078733  0  -0.076624  -0.077968  0  3.944441  0
C  C76  1  0.20967009  0.69994922  0.08858800  1  -0.093422  0  -0.002342  -0.026019  0  3.937838  0
C  C77  1  0.70965065  0.80002883  0.41140709  1  -0.063806  0  -0.002288  -0.025975  0  3.938032  0
C  C78  1  0.79032842  0.30004213  0.91140913  1  -0.08662  0  -0.00229  -0.026199  0  3.93789  0
C  C79  1  0.29034426  0.19995996  0.58859156  1  -0.091137  0  -0.002226  -0.025944  0  3.938109  0
C  C80  1  0.98504627  0.73808889  0.07253696  1  -0.049105  0  -0.073597  -0.089641  0  3.945428  0
C  C81  1  0.48502111  0.76190232  0.42745822  1  -0.05152  0  -0.073694  -0.08968  0  3.945701  0
C  C82  1  0.01495403  0.26190679  0.92746366  1  -0.051483  0  -0.073604  -0.089562  0  3.945422  0
C  C83  1  0.51497022  0.23809848  0.57253891  1  -0.051364  0  -0.073579  -0.089502  0  3.945643  0
C  C84  1  0.90992609  0.71322474  0.01293778  1  0.006579  0  -0.089381  -0.1071  0  4.016629  0
C  C85  1  0.40989593  0.78676977  0.48705854  1  0.006507  0  -0.089389  -0.107134  0  4.016712  0
C  C86  1  0.09005448  0.28676752  0.98706428  1  0.006479  0  -0.089475  -0.107219  0  4.016308  0
C  C87  1  0.59008823  0.21323878  0.51294108  1  0.006888  0  -0.08941  -0.107136  0  4.016792  0
C  C88  1  0.29465043  0.72183256  0.15247896  1  1.589712  0  0.243463  0.624492  0  4.182682  0
C  C89  1  0.79462331  0.77815006  0.34751573  1  1.589812  0  0.243372  0.624201  0  4.183317  0
C  C90  1  0.70535704  0.27816823  0.84751729  1  1.589527  0  0.243552  0.624617  0  4.182661  0
C  C91  1  0.20536084  0.22183872  0.65248204  1  1.589494  0  0.243503  0.624417  0  4.182789  0
S  S92  1  0.96350439  0.60865686  0.89470125  1  2.459362  0  0.497889  1.002415  0  5.661909  0
S  S93  1  0.46348062  0.89133910  0.60529305  1  2.459414  0  0.497942  1.002533  0  5.662372  0
S  S94  1  0.03646901  0.39133623  0.10529824  1  2.459063  0  0.497777  1.002183  0  5.661852  0
S  S95  1  0.53652327  0.10866428  0.39470476  1  2.459405  0  0.497957  1.002567  0  5.662085  0
I  I96  1  0.27024240  0.96931710  0.98200757  1  0.011352  0  0.06809  0.034512  0  1.817088  0
I  I97  1  0.77019575  0.53068922  0.51799462  1  0.012998  0  0.068091  0.034507  0  1.817234  0
I  I98  1  0.72983681  0.03069753  0.01799922  1  0.012998  0  0.06806  0.034467  0  1.817186  0
I  I99  1  0.22979379  0.46931505  0.48200592  1  0.011371  0  0.068086  0.034486  0  1.81723  0
O  O100  1  0.03812024  0.03931914  0.74133932  1  -1.215096  0  -0.374789  -0.638619  0  2.242186  0
O  O101  1  0.53812384  0.46069580  0.75865447  1  -1.214694  0  -0.374851  -0.63884  0  2.242482  0
O  O102  1  0.96188543  0.96067308  0.25865833  1  -1.215221  0  -0.374797  -0.638565  0  2.24217  0
O  O103  1  0.46192129  0.53931705  0.24134554  1  -1.215371  0  -0.374838  -0.638664  0  2.242387  0
O  O104  1  0.43251891  0.02325724  0.76184216  1  -1.209329  0  -0.374345  -0.646076  0  2.203424  0
O  O105  1  0.93252724  0.47674153  0.73814818  1  -1.209286  0  -0.374394  -0.646157  0  2.203406  0
O  O106  1  0.56747959  0.97672725  0.23815565  1  -1.209437  0  -0.374383  -0.646095  0  2.203654  0
O  O107  1  0.06751430  0.52326780  0.26184314  1  -1.209266  0  -0.37438  -0.64603  0  2.203455  0
O  O108  1  0.51740289  0.72119354  0.16260657  1  -1.200821  0  -0.344458  -0.618749  0  2.20694  0
O  O109  1  0.01737063  0.77880250  0.33738655  1  -1.20115  0  -0.34445  -0.618612  0  2.206895  0
O  O110  1  0.48260817  0.27882272  0.83739068  1  -1.200908  0  -0.344495  -0.618735  0  2.206856  0
O  O111  1  0.98260814  0.22119140  0.66260773  1  -1.20075  0  -0.344455  -0.618664  0  2.206833  0
O  O112  1  0.13464729  0.74201378  0.19376782  1  -1.244305  0  -0.393044  -0.685048  0  2.269709  0
O  O113  1  0.63461639  0.75796669  0.30622789  1  -1.244292  0  -0.392989  -0.68498  0  2.270093  0
O  O114  1  0.86535659  0.25798357  0.80622811  1  -1.244253  0  -0.39306  -0.685022  0  2.269588  0
O  O115  1  0.36536239  0.24202040  0.69377236  1  -1.244253  0  -0.393072  -0.68499  0  2.269601  0
O  O116  1  0.70453984  0.59879667  0.89377994  1  -1.293816  0  -0.289749  -0.501005  0  2.219224  0
O  O117  1  0.20451947  0.90119236  0.60621354  1  -1.294035  0  -0.289727  -0.500973  0  2.219582  0
O  O118  1  0.29543176  0.40119812  0.10621795  1  -1.293339  0  -0.289741  -0.500927  0  2.219322  0
O  O119  1  0.79548441  0.09880156  0.39378294  1  -1.2941  0  -0.289758  -0.501008  0  2.2194  0
O  O120  1  0.10995975  0.50963397  0.86863050  1  -1.338591  0  -0.332705  -0.568644  0  2.273783  0
O  O121  1  0.60993570  0.99036664  0.63136092  1  -1.338546  0  -0.332724  -0.568753  0  2.273801  0
O  O122  1  0.89000288  0.49035567  0.13136779  1  -1.338605  0  -0.332664  -0.56857  0  2.273557  0
O  O123  1  0.39006639  0.00964101  0.36863421  1  -1.338453  0  -0.332738  -0.568778  0  2.273786  0
