# generated using pymatgen
data_V2CoH9C5N2O7
_symmetry_space_group_name_H-M   'P 1'
_cell_length_a   5.87486002
_cell_length_b   7.67252182
_cell_length_c   11.81655267
_cell_angle_alpha   97.10248247
_cell_angle_beta   102.83683503
_cell_angle_gamma   99.32331440
_symmetry_Int_Tables_number   1
_chemical_formula_structural   V2CoH9C5N2O7
_chemical_formula_sum   'V4 Co2 H18 C10 N4 O14'
_cell_volume   505.35529470
_cell_formula_units_Z   2
loop_
 _symmetry_equiv_pos_site_id
 _symmetry_equiv_pos_as_xyz
  1  'x, y, z'
loop_
 _atom_site_type_symbol
 _atom_site_label
 _atom_site_symmetry_multiplicity
 _atom_site_fract_x
 _atom_site_fract_y
 _atom_site_fract_z
 _atom_site_occupancy
 _atom_site_hse06_10hf_bader_charge
 _atom_site_hse06_10hf_bader_spin_density
 _atom_site_hse06_10hf_ddec_charge
 _atom_site_hse06_10hf_ddec_spin_density
 _atom_site_hse06_10hf_ddec_sum_bond_order
 _atom_site_hse06_10hf_magmom
 _atom_site_hse06_ddec_charge
 _atom_site_hse06_ddec_spin_density
 _atom_site_hse06_ddec_sum_bond_order
 _atom_site_hse06_magmom
 _atom_site_pbe_cm5_charge
 _atom_site_pbe_ddec_charge
 _atom_site_pbe_ddec_spin_density
 _atom_site_pbe_ddec_sum_bond_order
 _atom_site_pbe_magmom
V  V0  1  0.71647275  0.21793139  0.29817721  1  2.179857  0.007846  2.058457  0.015465  3.254939  0.007  2.156037  0.006292  3.233509  0.0  1.446037  1.978606  0.023312  3.29408  0.013
V  V1  1  0.27628841  0.79685722  0.69482518  1  2.182843  -0.006655  2.063754  0.001217  3.269593  -0.009  2.16074  -0.002809  3.248304  -0.011  1.452235  1.98307  0.010383  3.310355  0.0
V  V2  1  0.77136172  0.92760271  0.59634592  1  2.186128  -0.102125  2.077509  -0.058445  3.310808  -0.109  2.175366  -0.047138  3.290273  -0.089  1.456166  1.996894  -0.061177  3.34921  -0.112
V  V3  1  0.21877031  0.07762707  0.39880406  1  2.187308  -0.010367  2.085163  -0.001172  3.285261  -0.012  2.183607  -0.004236  3.265275  -0.015  1.45649  2.007643  0.001527  3.317494  -0.01
Co  Co4  1  0.00719488  0.64781402  0.42334995  1  1.240757  -0.946525  1.042553  -1.007458  2.808757  -0.939  1.108857  -0.988967  2.724238  -0.943  0.642808  1.018378  -1.043298  2.84805  -0.958
Co  Co5  1  0.99556255  0.35660344  0.57636786  1  1.362428  -2.62734  1.162658  -2.812283  2.440035  -2.61  1.226949  -2.878539  2.36996  -2.698  0.669197  1.107377  -2.726861  2.492491  -2.497
H  H6  1  0.52813947  0.74321942  0.28492715  1  0.135679  -9.1e-05  0.128373  6e-05  1.026456  0.0  0.129471  4.6e-05  1.025869  0.0  0.127876  0.12713  5.2e-05  1.02745  0.0
H  H7  1  0.49174529  0.26761225  0.72621959  1  0.138968  -0.000879  0.119527  -0.000124  1.029814  -0.001  0.121091  -5e-05  1.028963  0.0  0.121818  0.118532  -0.000207  1.030525  -0.001
H  H8  1  0.47151852  0.77559054  0.04837899  1  0.143291  8.4e-05  0.129549  6.7e-05  1.025258  0.0  0.131381  5.5e-05  1.024889  0.0  0.124007  0.128271  4.2e-05  1.025635  0.0
H  H9  1  0.53489071  0.22194032  0.96072958  1  0.127938  -0.000644  0.130471  -0.000258  1.036597  0.0  0.133277  -0.000189  1.034994  0.0  0.12168  0.12856  -0.000327  1.037739  0.0
H  H10  1  0.13606149  0.63401570  0.17766174  1  0.157521  -2e-05  0.110895  0.000125  1.019402  0.0  0.111862  8.1e-05  1.01829  0.0  0.14104  0.109956  0.000146  1.020405  0.0
H  H11  1  0.87258648  0.36191908  0.82692465  1  0.137926  -0.000443  0.102791  1.1e-05  1.023307  0.0  0.104109  3e-05  1.021932  0.0  0.138197  0.101965  -8e-06  1.024132  0.0
H  H12  1  0.72968500  0.65280939  0.89693087  1  0.113307  2.1e-05  0.099123  3.5e-05  0.99733  0.0  0.099582  2.7e-05  0.997217  0.0  0.111171  0.098705  4.4e-05  0.997583  0.0
H  H13  1  0.26245966  0.33559506  0.10847353  1  0.092268  -0.00014  0.097478  -5.7e-05  1.002794  0.0  0.098517  -1.9e-05  1.002064  0.0  0.111202  0.096664  -0.000108  1.003327  0.0
H  H14  1  0.03949277  0.68787258  0.96581595  1  0.066377  -8e-06  0.091287  -1e-05  0.997634  0.0  0.091936  -1.1e-05  0.997371  0.0  0.109877  0.090672  -8e-06  0.998039  0.0
H  H15  1  0.95536836  0.30020113  0.03505595  1  0.057943  -8e-06  0.092434  1.8e-05  0.999709  0.0  0.09332  1.4e-05  0.999175  0.0  0.109183  0.091618  1.9e-05  1.000374  0.0
H  H16  1  0.92718630  0.93960184  0.86526303  1  0.070423  -3e-06  0.107649  2.9e-05  1.033605  0.0  0.108758  2.5e-05  1.03378  0.0  0.096389  0.107031  2.3e-05  1.033112  0.0
H  H17  1  0.06920152  0.04739947  0.13505896  1  0.067846  -8.7e-05  0.104916  -3.5e-05  1.042412  0.0  0.106353  -2.8e-05  1.042184  0.0  0.094835  0.104058  -4.9e-05  1.042295  0.0
H  H18  1  0.72694177  0.97286830  0.95328859  1  0.037306  -3e-05  0.08473  -1.7e-05  1.009809  0.0  0.085063  -9e-06  1.010465  0.0  0.091832  0.084476  -2.4e-05  1.009356  0.0
H  H19  1  0.26974369  0.01660902  0.04681132  1  0.037176  -4.2e-05  0.082919  -2.4e-05  1.011904  0.0  0.083253  -2e-05  1.012561  0.0  0.091029  0.082657  -3.1e-05  1.011468  0.0
H  H20  1  0.44699097  0.61666823  0.41463365  1  0.657867  -2.4e-05  0.401596  0.000353  0.931123  0.0  0.411755  0.000445  0.916311  0.0  0.294374  0.394737  0.000217  0.940761  0.0
H  H21  1  0.55284650  0.37978901  0.58117386  1  0.652526  -0.000153  0.410149  8.8e-05  0.917579  0.0  0.420765  0.000217  0.902062  0.0  0.295452  0.402142  -1e-05  0.929276  0.0
H  H22  1  0.28814016  0.43229151  0.41307705  1  0.618163  0.000311  0.360065  0.000543  0.997672  0.0  0.369343  0.000592  0.98399  0.0  0.290015  0.354404  0.000452  1.003482  0.0
H  H23  1  0.70745647  0.56670618  0.58144795  1  0.633641  0.000198  0.373501  0.000496  0.978411  0.0  0.383999  0.000599  0.962946  0.0  0.293058  0.366236  0.000351  0.98887  0.0
C  C24  1  0.64276321  0.72049423  0.22714321  1  0.477216  0.001299  -0.017055  0.001541  3.984167  0.001  -0.012165  0.001078  4.004289  0.001  0.009202  -0.020116  0.001393  3.971374  0.001
C  C25  1  0.37206923  0.28415618  0.78229498  1  0.387953  0.000604  -0.008622  0.001389  4.006769  0.001  -0.004562  0.001839  4.025536  0.001  0.005253  -0.011895  0.001229  3.993113  0.0
C  C26  1  0.61376835  0.73987414  0.11118228  1  0.256945  -0.000275  -0.103741  4.3e-05  3.91121  0.0  -0.105003  8.6e-05  3.93298  0.0  0.006788  -0.102273  -9.3e-05  3.895668  0.0
C  C27  1  0.39498367  0.25794743  0.89675653  1  0.345166  -0.004915  -0.104879  -0.002648  3.901703  -0.003  -0.105126  -0.001856  3.92133  -0.002  0.004055  -0.103855  -0.003784  3.887654  -0.005
C  C28  1  0.96420547  0.66873764  0.17603154  1  0.993279  0.002548  0.096945  0.003485  3.882789  0.002  0.111874  0.003237  3.897535  0.002  0.149126  0.087335  0.003387  3.87356  0.002
C  C29  1  0.04612926  0.32948843  0.82955193  1  1.011183  -0.004569  0.10832  -0.002773  3.913669  -0.003  0.122236  -0.001745  3.927697  -0.002  0.148791  0.099154  -0.003846  3.902632  -0.005
C  C30  1  0.87388853  0.73542339  0.96827703  1  0.270878  4.1e-05  -0.06054  9.5e-05  3.864062  0.0  -0.056587  9.8e-05  3.876156  0.0  -0.050242  -0.063084  5.9e-05  3.855817  0.0
C  C31  1  0.12275481  0.25416048  0.03469157  1  0.318137  -0.000794  -0.060461  -0.000473  3.863641  -0.001  -0.056428  -0.000354  3.874967  -0.001  -0.050704  -0.063003  -0.000592  3.856053  -0.001
C  C32  1  0.89824342  0.93220797  0.95330365  1  -0.033299  3e-05  -0.170543  5.4e-05  3.925332  0.0  -0.172104  6e-05  3.93961  0.0  -0.16759  -0.169295  8e-06  3.915333  0.0
C  C33  1  0.09827540  0.05658299  0.04731002  1  -0.030707  -0.0003  -0.172477  -0.000163  3.932514  0.0  -0.174063  -8.9e-05  3.946637  0.0  -0.167608  -0.171166  -0.000258  3.922426  0.0
N  N34  1  0.86124438  0.67510587  0.26637714  1  -1.191058  0.011727  -0.280299  0.013248  3.689727  0.01  -0.315355  0.012094  3.71236  0.009  -0.35779  -0.261331  0.010512  3.675598  0.008
N  N35  1  0.15421635  0.32918879  0.74125357  1  -1.247898  -0.053797  -0.349229  -0.028872  3.660643  -0.042  -0.377366  -0.022303  3.678306  -0.033  -0.359574  -0.325362  -0.034624  3.644636  -0.05
N  N36  1  0.81803664  0.70732990  0.08042070  1  -1.274767  0.000724  0.042737  0.000721  3.779173  0.0  0.027403  0.000484  3.807512  0.0  -0.238421  0.05311  0.000608  3.759457  0.0
N  N37  1  0.18669241  0.28685323  0.92517931  1  -1.275423  -0.004046  0.043725  -0.001705  3.772669  -0.002  0.028803  -0.001014  3.800343  -0.001  -0.239833  0.053693  -0.002425  3.753622  -0.003
O  O38  1  0.84083813  0.40720872  0.40449411  1  -0.994204  -0.02804  -0.930654  -0.015066  2.186435  -0.024  -0.98463  -0.010505  2.174004  -0.019  -0.593936  -0.893538  -0.018475  2.193842  -0.028
O  O39  1  0.15505335  0.61217029  0.58255865  1  -1.016952  -0.042067  -0.942343  -0.023658  2.189576  -0.034  -0.99894  -0.018404  2.17704  -0.024  -0.597457  -0.902468  -0.029589  2.198405  -0.044
O  O40  1  0.29385347  0.53593102  0.37066891  1  -1.255891  -0.048963  -0.741129  -0.024353  2.112815  -0.042  -0.768368  -0.019441  2.082795  -0.034  -0.556136  -0.719126  -0.031009  2.12689  -0.052
O  O41  1  0.70734361  0.46137795  0.62260144  1  -1.26088  -0.049456  -0.758956  -0.025064  2.102319  -0.043  -0.784637  -0.019614  2.068935  -0.034  -0.561283  -0.737826  -0.030197  2.125136  -0.05
O  O42  1  0.18645243  0.88243468  0.45221034  1  -0.961827  -0.002963  -0.94302  0.001506  2.091008  -0.003  -0.989166  0.003607  2.083122  -0.001  -0.600409  -0.911681  -0.001698  2.093179  -0.006
O  O43  1  0.80088975  0.11467760  0.53526237  1  -0.989839  -0.043189  -0.9733  -0.023468  2.030289  -0.03  -1.017163  -0.013598  2.023227  -0.016  -0.607165  -0.934238  -0.034552  2.033828  -0.048
O  O44  1  0.71560282  0.74090144  0.49401165  1  -0.999708  -0.010517  -0.880549  -0.001315  1.887112  0.0  -0.912495  0.003607  1.872839  0.005  -0.581001  -0.858436  -0.011471  1.897091  -0.012
O  O45  1  0.27653300  0.25997897  0.50626120  1  -1.021725  -0.017127  -0.911389  -0.007953  1.883985  -0.012  -0.943717  -0.005297  1.868336  -0.008  -0.589402  -0.8869  -0.011286  1.895783  -0.016
O  O46  1  0.66416613  0.27478396  0.16900431  1  -0.816741  -0.006786  -0.725689  -0.003298  1.51455  -0.005  -0.747762  -0.003319  1.50799  -0.006  -0.578969  -0.709035  -0.003539  1.522651  -0.006
O  O47  1  0.33108680  0.72769012  0.82002967  1  -0.812527  -0.00886  -0.725129  -0.004103  1.491212  -0.007  -0.747884  -0.002852  1.485256  -0.005  -0.581727  -0.708213  -0.005227  1.498883  -0.009
O  O48  1  0.94806781  0.08705589  0.30113998  1  -1.02593  0.000272  -0.968126  0.001271  1.946354  0.0  -1.009317  0.002135  1.944507  0.001  -0.675455  -0.936308  0.001452  1.950649  0.0
O  O49  1  0.04453775  0.92357470  0.69618368  1  -1.03156  -0.000365  -0.975871  0.002412  1.953651  0.002  -1.017704  0.003215  1.951824  0.003  -0.677712  -0.942886  0.001384  1.958492  0.001
O  O50  1  0.44156776  0.09443202  0.31816226  1  -1.05244  -0.001412  -1.00141  0.000257  1.875099  -0.001  -1.040685  0.000877  1.866503  0.0  -0.687505  -0.970296  -0.000454  1.883979  -0.003
O  O51  1  0.55063192  0.92309581  0.67790798  1  -1.052868  -0.001679  -1.003864  0.000269  1.888131  0.0  -1.044475  0.001569  1.8813  0.002  -0.689262  -0.970745  -0.001369  1.896643  -0.002
