# generated using pymatgen
data_BiH12C36S3(N2F5)3
_symmetry_space_group_name_H-M   'P 1'
_cell_length_a   7.60343082
_cell_length_b   14.13175488
_cell_length_c   17.93100000
_cell_angle_alpha   73.21499401
_cell_angle_beta   78.68226329
_cell_angle_gamma   75.11889531
_symmetry_Int_Tables_number   1
_chemical_formula_structural   BiH12C36S3(N2F5)3
_chemical_formula_sum   'Bi2 H24 C72 S6 N12 F30'
_cell_volume   1767.14404970
_cell_formula_units_Z   2
loop_
 _symmetry_equiv_pos_site_id
 _symmetry_equiv_pos_as_xyz
  1  'x, y, z'
loop_
 _atom_site_type_symbol
 _atom_site_label
 _atom_site_symmetry_multiplicity
 _atom_site_fract_x
 _atom_site_fract_y
 _atom_site_fract_z
 _atom_site_occupancy
 _atom_site_hle17_bader_spin_density
 _atom_site_hle17_ddec_charge
 _atom_site_hle17_ddec_spin_density
 _atom_site_hle17_ddec_sum_bond_order
 _atom_site_hle17_magmom
 _atom_site_hse06_10hf_bader_spin_density
 _atom_site_hse06_10hf_ddec_charge
 _atom_site_hse06_10hf_ddec_spin_density
 _atom_site_hse06_10hf_ddec_sum_bond_order
 _atom_site_hse06_10hf_magmom
 _atom_site_hse06_bader_spin_density
 _atom_site_hse06_ddec_charge
 _atom_site_hse06_ddec_spin_density
 _atom_site_hse06_ddec_sum_bond_order
 _atom_site_hse06_magmom
 _atom_site_pbe_bader_charge
 _atom_site_pbe_bader_spin_density
 _atom_site_pbe_cm5_charge
 _atom_site_pbe_ddec_charge
 _atom_site_pbe_ddec_spin_density
 _atom_site_pbe_ddec_sum_bond_order
 _atom_site_pbe_magmom
Bi  Bi0  1  0.27743803  0.29985111  0.29410835  1  0  1.071317  0  2.224827  0  0  0.881152  0  2.692934  0  0  0.932984  0  2.663032  0  1.387018  0  0.601858  0.844901  0  2.713343  0
Bi  Bi1  1  0.72256132  0.70014836  0.70589143  1  0  1.0713  0  2.224837  0  0  0.881123  0  2.692956  0  0  0.932967  0  2.663032  0  1.386994  0  0.601847  0.844873  0  2.713363  0
H  H2  1  0.31129274  0.54793588  0.27992133  1  0  0.062656  0  0.995277  0  0  0.063679  0  1.075797  0  0  0.066237  0  1.073979  0  0.12124  0  0.092042  0.061842  0  1.077098  0
H  H3  1  0.68870871  0.45206510  0.72007794  1  0  0.062664  0  0.995311  0  0  0.063701  0  1.075804  0  0  0.066258  0  1.073986  0  0.121236  0  0.092067  0.061864  0  1.077103  0
H  H4  1  0.16822997  0.73409213  0.24906377  1  0  0.120798  0  0.937846  0  0  0.127011  0  0.99964  0  0  0.131502  0  0.996542  0  0.126128  0  0.110865  0.123756  0  1.002048  0
H  H5  1  0.83177253  0.26590961  0.75093245  1  0  0.120796  0  0.93781  0  0  0.127015  0  0.999606  0  0  0.131495  0  0.996521  0  0.126145  0  0.110871  0.123761  0  1.002014  0
H  H6  1  0.69765568  0.66178583  0.19544140  1  0  0.116523  0  0.947393  0  0  0.120178  0  1.016915  0  0  0.124607  0  1.013469  0  0.140611  0  0.106059  0.117013  0  1.019477  0
H  H7  1  0.30234309  0.33821516  0.80455865  1  0  0.116544  0  0.94732  0  0  0.120202  0  1.016841  0  0  0.124631  0  1.013395  0  0.140618  0  0.106061  0.117039  0  1.019406  0
H  H8  1  0.85346857  0.47893022  0.23245003  1  0  0.073895  0  0.960058  0  0  0.077488  0  1.036421  0  0  0.080206  0  1.03382  0  0.096279  0  0.099705  0.075457  0  1.038465  0
H  H9  1  0.14653183  0.52107000  0.76755006  1  0  0.07385  0  0.960071  0  0  0.077455  0  1.036432  0  0  0.080166  0  1.033839  0  0.096275  0  0.099684  0.075424  0  1.038477  0
H  H10  1  0.12725023  0.91854699  0.03914637  1  0  0.072276  0  0.979729  0  0  0.066905  0  1.065214  0  0  0.070888  0  1.061462  0  0.122554  0  0.09861  0.064035  0  1.067917  0
H  H11  1  0.87274959  0.08145475  0.96085230  1  0  0.072263  0  0.979685  0  0  0.066909  0  1.065155  0  0  0.070888  0  1.061402  0  0.122581  0  0.098631  0.064038  0  1.067857  0
H  H12  1  0.39973377  0.84391140  0.11470237  1  0  0.102758  0  0.95818  0  0  0.107161  0  1.028583  0  0  0.111264  0  1.025533  0  0.085864  0  0.099996  0.104222  0  1.030853  0
H  H13  1  0.60026290  0.15608807  0.88529708  1  0  0.102766  0  0.958156  0  0  0.107166  0  1.028559  0  0  0.111267  0  1.025508  0  0.085995  0  0.099989  0.104227  0  1.030829  0
H  H14  1  0.45197458  0.14862890  0.08877275  1  0  0.100927  0  0.983794  0  0  0.102022  0  1.064563  0  0  0.10598  0  1.061621  0  0.114753  0  0.09423  0.099169  0  1.066792  0
H  H15  1  0.54802314  0.85137133  0.91122867  1  0  0.100914  0  0.983819  0  0  0.102029  0  1.064577  0  0  0.105986  0  1.061637  0  0.114721  0  0.094225  0.099176  0  1.066806  0
H  H16  1  0.18393445  0.20940450  0.01346782  1  0  0.068299  0  0.970269  0  0  0.071981  0  1.042056  0  0  0.074941  0  1.039017  0  0.066565  0  0.097649  0.069803  0  1.044347  0
H  H17  1  0.81606461  0.79059572  0.98653349  1  0  0.068222  0  0.970238  0  0  0.071914  0  1.042028  0  0  0.074874  0  1.03899  0  0.066856  0  0.097627  0.069735  0  1.044317  0
H  H18  1  0.94401999  0.30138304  0.17874244  1  0  0.077223  0  0.944915  0  0  0.083505  0  1.013688  0  0  0.085915  0  1.011178  0  0.087561  0  0.106515  0.081709  0  1.015593  0
H  H19  1  0.05598012  0.69861794  0.82125916  1  0  0.077226  0  0.944898  0  0  0.083503  0  1.01369  0  0  0.085914  0  1.011181  0  0.087516  0  0.106515  0.081706  0  1.015594  0
H  H20  1  0.78436661  0.19071572  0.14207087  1  0  0.106513  0  0.981659  0  0  0.107182  0  1.059907  0  0  0.111027  0  1.057098  0  0.102295  0  0.097111  0.104411  0  1.062056  0
H  H21  1  0.21563291  0.80928677  0.85792933  1  0  0.106549  0  0.981584  0  0  0.107215  0  1.059821  0  0  0.111063  0  1.057008  0  0.102312  0  0.097123  0.104445  0  1.061971  0
H  H22  1  0.10223447  0.93417115  0.29105121  1  0  0.118447  0  0.947439  0  0  0.119679  0  1.019234  0  0  0.123865  0  1.016008  0  0.093852  0  0.106909  0.116671  0  1.021702  0
H  H23  1  0.89776996  0.06582908  0.70894407  1  0  0.118413  0  0.947434  0  0  0.119658  0  1.019221  0  0  0.123841  0  1.015989  0  0.093874  0  0.106896  0.116651  0  1.02169  0
H  H24  1  0.24585604  0.05545357  0.32394320  1  0  0.053937  0  1.019576  0  0  0.055836  0  1.100843  0  0  0.058278  0  1.098426  0  0.123562  0  0.088916  0.053986  0  1.102676  0
H  H25  1  0.75414495  0.94454515  0.67605495  1  0  0.053965  0  1.019529  0  0  0.055856  0  1.100821  0  0  0.058299  0  1.098405  0  0.123573  0  0.088926  0.054006  0  1.102657  0
C  C26  1  0.54091030  0.37560709  0.41042062  1  0  -0.084571  0  3.899526  0  0  -0.089752  0  4.184769  0  0  -0.08755  0  4.205899  0  -0.01554  0  -0.039991  -0.091285  0  4.170403  0
C  C27  1  0.45909291  0.62438936  0.58958065  1  0  -0.084624  0  3.899702  0  0  -0.089749  0  4.184872  0  0  -0.087518  0  4.205917  0  -0.015787  0  -0.039998  -0.091302  0  4.170565  0
C  C28  1  0.70085598  0.36484349  0.44333901  1  0  0.184768  0  3.764485  0  0  0.151655  0  4.069859  0  0  0.160029  0  4.077977  0  0.572392  0  0.076794  0.145639  0  4.064842  0
C  C29  1  0.29914665  0.63515447  0.55666084  1  0  0.184752  0  3.764551  0  0  0.151623  0  4.069875  0  0  0.159995  0  4.07801  0  0.572287  0  0.076799  0.145609  0  4.064846  0
C  C30  1  0.69796648  0.36321851  0.52158357  1  0  0.107285  0  3.846435  0  0  0.065417  0  4.165619  0  0  0.073109  0  4.173292  0  0.549087  0  0.070701  0.059832  0  4.161144  0
C  C31  1  0.30203883  0.63677945  0.47841606  1  0  0.107339  0  3.846571  0  0  0.065599  0  4.165659  0  0  0.073287  0  4.173339  0  0.548714  0  0.070886  0.060016  0  4.161178  0
C  C32  1  0.53105496  0.37245472  0.57081940  1  0  0.108245  0  3.84208  0  0  0.07043  0  4.163529  0  0  0.076973  0  4.173409  0  0.571576  0  0.06872  0.0657  0  4.157354  0
C  C33  1  0.46895361  0.62754173  0.42917919  1  0  0.108311  0  3.842241  0  0  0.070451  0  4.16371  0  0  0.076996  0  4.173588  0  0.57203  0  0.068681  0.06572  0  4.157533  0
C  C34  1  0.36924073  0.38367979  0.54057207  1  0  0.107268  0  3.854003  0  0  0.063552  0  4.176853  0  0  0.071708  0  4.185242  0  0.603367  0  0.070452  0.058119  0  4.170933  0
C  C35  1  0.63076428  0.61631893  0.45942909  1  0  0.107224  0  3.854009  0  0  0.063518  0  4.17689  0  0  0.071671  0  4.185279  0  0.603133  0  0.070421  0.058087  0  4.170965  0
C  C36  1  0.37623353  0.38512018  0.46203643  1  0  0.155516  0  3.806189  0  0  0.123249  0  4.113738  0  0  0.130302  0  4.125541  0  0.486067  0  0.069526  0.1187  0  4.105655  0
C  C37  1  0.62376880  0.61487853  0.53796440  1  0  0.155416  0  3.806319  0  0  0.123125  0  4.113874  0  0  0.130189  0  4.125681  0  0.486494  0  0.069459  0.118576  0  4.105783  0
C  C38  1  0.38601283  0.44887264  0.11002174  1  0  -0.120457  0  3.908024  0  0  -0.12816  0  4.193414  0  0  -0.130744  0  4.217535  0  0.018788  0  -0.042021  -0.126528  0  4.177191  0
C  C39  1  0.61398967  0.55112910  0.88997894  1  0  -0.120377  0  3.908082  0  0  -0.128104  0  4.193452  0  0  -0.130691  0  4.217579  0  0.018728  0  -0.04196  -0.126474  0  4.17723  0
C  C40  1  0.21881196  0.49664235  0.08054847  1  0  0.18784  0  3.819294  0  0  0.156288  0  4.123282  0  0  0.165786  0  4.132717  0  0.520318  0  0.084728  0.149549  0  4.117378  0
C  C41  1  0.78118517  0.50335939  0.91945488  1  0  0.187643  0  3.819528  0  0  0.156125  0  4.123494  0  0  0.165622  0  4.132931  0  0.520086  0  0.084641  0.149388  0  4.117589  0
C  C42  1  0.17602918  0.59987244  0.04569089  1  0  0.114081  0  3.820192  0  0  0.076864  0  4.129698  0  0  0.083489  0  4.137648  0  0.59845  0  0.078693  0.071926  0  4.124956  0
C  C43  1  0.82396795  0.40012930  0.95431135  1  0  0.114298  0  3.820066  0  0  0.077052  0  4.129585  0  0  0.08368  0  4.137534  0  0.598522  0  0.078763  0.072113  0  4.124845  0
C  C44  1  0.30163475  0.65916604  0.03973353  1  0  0.138213  0  3.821932  0  0  0.100935  0  4.133424  0  0  0.109344  0  4.142074  0  0.549861  0  0.085924  0.094991  0  4.128092  0
C  C45  1  0.69836670  0.34083494  0.96026629  1  0  0.138234  0  3.82189  0  0  0.100968  0  4.133384  0  0  0.109376  0  4.142034  0  0.549852  0  0.085944  0.095023  0  4.128053  0
C  C46  1  0.46951230  0.61415077  0.06817839  1  0  0.109355  0  3.820363  0  0  0.068132  0  4.13576  0  0  0.074005  0  4.144588  0  0.688551  0  0.076442  0.063731  0  4.130388  0
C  C47  1  0.53049050  0.38585021  0.93181965  1  0  0.1093  0  3.820298  0  0  0.068047  0  4.135704  0  0  0.073919  0  4.144532  0  0.688584  0  0.07643  0.063646  0  4.130333  0
C  C48  1  0.51063962  0.51037373  0.10193521  1  0  0.187171  0  3.802316  0  0  0.153918  0  4.111902  0  0  0.162279  0  4.123638  0  0.490177  0  0.08477  0.147988  0  4.1044  0
C  C49  1  0.48936317  0.48962725  0.89806283  1  0  0.187239  0  3.802201  0  0  0.154016  0  4.111762  0  0  0.162379  0  4.123497  0  0.490199  0  0.084784  0.148085  0  4.104261  0
C  C50  1  0.50055879  0.12570821  0.43024858  1  0  -0.123392  0  3.92979  0  0  -0.125035  0  4.207014  0  0  -0.127001  0  4.232499  0  -0.016438  0  -0.044386  -0.123808  0  4.189794  0
C  C51  1  0.49943951  0.87429050  0.56975091  1  0  -0.12343  0  3.929882  0  0  -0.125058  0  4.207099  0  0  -0.127027  0  4.232586  0  -0.016261  0  -0.04438  -0.123833  0  4.189884  0
C  C52  1  0.66130600  0.11870068  0.46082386  1  0  0.198779  0  3.787897  0  0  0.165527  0  4.093065  0  0  0.175473  0  4.101592  0  0.563842  0  0.082558  0.158791  0  4.087308  0
C  C53  1  0.33869306  0.88129955  0.53917522  1  0  0.198783  0  3.787784  0  0  0.165495  0  4.093041  0  0  0.175444  0  4.101564  0  0.563853  0  0.082518  0.158743  0  4.087296  0
C  C54  1  0.65878191  0.12073871  0.53818202  1  0  0.102318  0  3.833953  0  0  0.061757  0  4.150091  0  0  0.067805  0  4.159402  0  0.572006  0  0.073771  0.057299  0  4.144303  0
C  C55  1  0.34121640  0.87926000  0.46181635  1  0  0.102382  0  3.83385  0  0  0.06178  0  4.14998  0  0  0.067825  0  4.159289  0  0.571562  0  0.073801  0.057319  0  4.1442  0
C  C56  1  0.49286755  0.13024726  0.58781440  1  0  0.118936  0  3.851121  0  0  0.081244  0  4.172219  0  0  0.088594  0  4.182032  0  0.52859  0  0.075755  0.075984  0  4.166194  0
C  C57  1  0.50713121  0.86975372  0.41218508  1  0  0.118763  0  3.851397  0  0  0.081206  0  4.172345  0  0  0.088556  0  4.182159  0  0.528984  0  0.075738  0.075947  0  4.166318  0
C  C58  1  0.33022780  0.13712998  0.55977515  1  0  0.123796  0  3.819204  0  0  0.080115  0  4.1374  0  0  0.087765  0  4.144389  0  0.607708  0  0.073307  0.074499  0  4.133326  0
C  C59  1  0.66977260  0.86287025  0.44022438  1  0  0.123827  0  3.819303  0  0  0.080107  0  4.13747  0  0  0.08776  0  4.144456  0  0.607731  0  0.073324  0.074491  0  4.133394  0
C  C60  1  0.33635330  0.13411756  0.48239036  1  0  0.159878  0  3.81801  0  0  0.130638  0  4.121738  0  0  0.137812  0  4.133858  0  0.537022  0  0.073794  0.125503  0  4.113962  0
C  C61  1  0.66364500  0.86588115  0.51761025  1  0  0.160006  0  3.81794  0  0  0.13075  0  4.121705  0  0  0.137922  0  4.13383  0  0.537037  0  0.073838  0.125616  0  4.113926  0
C  C62  1  0.17499277  0.57652886  0.26120990  1  0  0.114662  0  3.742785  0  0  0.08607  0  3.999629  0  0  0.090615  0  4.021129  0  0.426963  0  0.033696  0.083195  0  3.984717  0
C  C63  1  0.82500868  0.42347212  0.73878881  1  0  0.114613  0  3.742886  0  0  0.086015  0  3.999741  0  0  0.090562  0  4.021235  0  0.426964  0  0.033684  0.083141  0  3.984829  0
C  C64  1  0.09634808  0.67942306  0.24367164  1  0  -0.121166  0  3.679151  0  0  -0.144397  0  3.929495  0  0  -0.150275  0  3.949888  0  -0.018883  0  -0.07557  -0.140419  0  3.915674  0
C  C65  1  0.90365337  0.32057792  0.75632651  1  0  -0.121161  0  3.679154  0  0  -0.144397  0  3.929541  0  0  -0.150267  0  3.949942  0  -0.018883  0  -0.075567  -0.140421  0  3.91572  0
C  C66  1  0.92213701  0.71228199  0.21885009  1  0  0.042331  0  3.709039  0  0  0.052461  0  3.943475  0  0  0.053205  0  3.964246  0  -0.001066  0  0.013508  0.052112  0  3.929201  0
C  C67  1  0.07786414  0.28771975  0.78114791  1  0  0.042414  0  3.709018  0  0  0.052508  0  3.94352  0  0  0.053252  0  3.96429  0  -0.001283  0  0.013505  0.052159  0  3.929248  0
C  C68  1  0.83320039  0.63914580  0.21426454  1  0  -0.118356  0  3.673039  0  0  -0.146621  0  3.935129  0  0  -0.151628  0  3.953698  0  -0.042246  0  -0.076803  -0.143272  0  3.922516  0
C  C69  1  0.16679867  0.36085442  0.78573510  1  0  -0.11841  0  3.67298  0  0  -0.146661  0  3.935105  0  0  -0.151668  0  3.953673  0  -0.042081  0  -0.076817  -0.143309  0  3.922476  0
C  C70  1  0.92111725  0.53751725  0.23416180  1  0  0.122048  0  3.717566  0  0  0.088927  0  3.982823  0  0  0.094976  0  4.000928  0  0.532271  0  0.036524  0.084951  0  3.97043  0
C  C71  1  0.07888181  0.46248298  0.76583784  1  0  0.122063  0  3.717592  0  0  0.088916  0  3.982863  0  0  0.09497  0  4.000974  0  0.532312  0  0.036563  0.084942  0  3.970471  0
C  C72  1  0.20351655  0.96660871  0.05179644  1  0  0.108027  0  3.721502  0  0  0.085413  0  3.985904  0  0  0.088783  0  4.004503  0  0.502049  0  0.031913  0.083333  0  3.973119  0
C  C73  1  0.79648117  0.03339152  0.94820275  1  0  0.108113  0  3.721395  0  0  0.085471  0  3.985812  0  0  0.088846  0  4.004405  0  0.50201  0  0.031899  0.08339  0  3.973027  0
C  C74  1  0.35330623  0.92538809  0.09382415  1  0  -0.12676  0  3.698663  0  0  -0.148839  0  3.946415  0  0  -0.154145  0  3.968413  0  -0.016528  0  -0.081139  -0.145067  0  3.93123  0
C  C75  1  0.64668776  0.07461138  0.90617608  1  0  -0.127004  0  3.698501  0  0  -0.149029  0  3.94627  0  0  -0.154337  0  3.96827  0  -0.016591  0  -0.081255  -0.145256  0  3.931086  0
C  C76  1  0.44655423  0.99086463  0.10767331  1  0  0.01644  0  3.749837  0  0  0.03401  0  3.970509  0  0  0.032087  0  3.994551  0  -0.089692  0  0.005597  0.035519  0  3.953952  0
C  C77  1  0.55344169  0.00913332  0.89232711  1  0  0.016698  0  3.749584  0  0  0.034176  0  3.970379  0  0  0.032254  0  3.994417  0  -0.089747  0  0.005758  0.035681  0  3.953822  0
C  C78  1  0.38320278  0.09523304  0.07923882  1  0  -0.129278  0  3.706812  0  0  -0.149813  0  3.953145  0  0  -0.155464  0  3.976161  0  0.015517  0  -0.083933  -0.146055  0  3.937587  0
C  C79  1  0.61679464  0.90476795  0.92076134  1  0  -0.129343  0  3.706881  0  0  -0.149878  0  3.953251  0  0  -0.155529  0  3.976265  0  0.015189  0  -0.083971  -0.14612  0  3.937693  0
C  C80  1  0.23352164  0.12872971  0.03741741  1  0  0.104723  0  3.754037  0  0  0.080413  0  4.01957  0  0  0.084102  0  4.038308  0  0.526099  0  0.031135  0.078083  0  4.006731  0
C  C81  1  0.76647445  0.87127127  0.96258286  1  0  0.104772  0  3.753861  0  0  0.08045  0  4.019416  0  0  0.084138  0  4.038153  0  0.52615  0  0.031105  0.07812  0  4.006574  0
C  C82  1  0.97532807  0.21965821  0.20284265  1  0  0.123666  0  3.716514  0  0  0.088844  0  3.980323  0  0  0.094924  0  3.999554  0  0.498129  0  0.041976  0.084855  0  3.967178  0
C  C83  1  0.02466935  0.78034277  0.79715806  1  0  0.123652  0  3.716558  0  0  0.088814  0  3.980368  0  0  0.094893  0  3.999601  0  0.498072  0  0.041974  0.084821  0  3.967238  0
C  C84  1  0.88713707  0.15798388  0.18203334  1  0  -0.113497  0  3.693146  0  0  -0.135133  0  3.946676  0  0  -0.140888  0  3.967279  0  0.014955  0  -0.074233  -0.131417  0  3.93297  0
C  C85  1  0.11285767  0.84201710  0.81796816  1  0  -0.113522  0  3.693148  0  0  -0.135125  0  3.946608  0  0  -0.140881  0  3.967214  0  0.015124  0  -0.07424  -0.13141  0  3.932902  0
C  C86  1  0.93273151  0.05323094  0.21328260  1  0  0.036813  0  3.730597  0  0  0.048478  0  3.961137  0  0  0.048871  0  3.982089  0  -0.015107  0  0.01401  0.048301  0  3.946918  0
C  C87  1  0.06726755  0.94676928  0.78671648  1  0  0.036825  0  3.730608  0  0  0.048514  0  3.961077  0  0  0.048904  0  3.982025  0  -0.015125  0  0.01402  0.048338  0  3.946858  0
C  C88  1  0.06443156  0.01499626  0.26494437  1  0  -0.1143  0  3.677059  0  0  -0.141662  0  3.938524  0  0  -0.146989  0  3.958286  0  0.072083  0  -0.076523  -0.138116  0  3.925077  0
C  C89  1  0.93557094  0.98500548  0.73505296  1  0  -0.114223  0  3.676992  0  0  -0.141603  0  3.938429  0  0  -0.146936  0  3.958222  0  0.072076  0  -0.076512  -0.138048  0  3.924959  0
C  C90  1  0.14369058  0.08201760  0.28348371  1  0  0.132325  0  3.722038  0  0  0.098913  0  3.979282  0  0  0.10535  0  3.998013  0  0.444822  0  0.036799  0.094771  0  3.966365  0
C  C91  1  0.85631174  0.91798112  0.71651544  1  0  0.132274  0  3.722069  0  0  0.098857  0  3.979324  0  0  0.105292  0  3.998049  0  0.444828  0  0.03679  0.094714  0  3.966414  0
C  C92  1  0.84393347  0.98286985  0.19429585  1  0  0.416047  0  3.743011  0  0  0.395368  0  4.005734  0  0  0.412806  0  4.015899  0  1.118983  0  0.266572  0.383862  0  3.998667  0
C  C93  1  0.15606530  0.01713113  0.80570308  1  0  0.416014  0  3.742964  0  0  0.395376  0  4.005613  0  0  0.412816  0  4.015776  0  1.119189  0  0.266604  0.38387  0  3.998548  0
C  C94  1  0.61246232  0.95215335  0.14783264  1  0  0.420438  0  3.730356  0  0  0.399835  0  3.991445  0  0  0.418046  0  4.001235  0  1.082905  0  0.266431  0.387717  0  3.984701  0
C  C95  1  0.38753511  0.04784763  0.85216752  1  0  0.420524  0  3.730309  0  0  0.399921  0  3.991428  0  0  0.41813  0  4.001222  0  1.082895  0  0.266478  0.387811  0  3.984673  0
C  C96  1  0.83643289  0.82188188  0.19847475  1  0  0.412698  0  3.747662  0  0  0.392079  0  4.012758  0  0  0.409497  0  4.022384  0  1.121914  0  0.264865  0.380613  0  4.006037  0
C  C97  1  0.16356588  0.17811910  0.80152530  1  0  0.412643  0  3.747646  0  0  0.392025  0  4.01278  0  0  0.409444  0  4.022406  0  1.121574  0  0.264873  0.380558  0  4.006059  0
S  S98  1  0.55763990  0.37736521  0.31156231  1  0  -0.327739  0  2.112398  0  0  -0.325398  0  2.469045  0  0  -0.339787  0  2.466463  0  -0.261183  0  -0.161456  -0.315277  0  2.470724  0
S  S99  1  0.44236301  0.62263199  0.68843825  1  0  -0.327699  0  2.11256  0  0  -0.325357  0  2.469155  0  0  -0.339754  0  2.466552  0  -0.261175  0  -0.161429  -0.315233  0  2.470848  0
S  S100  1  0.43966390  0.31793544  0.15057756  1  0  -0.236625  0  2.121734  0  0  -0.215416  0  2.473576  0  0  -0.223939  0  2.46921  0  -0.228073  0  -0.110997  -0.209312  0  2.476821  0
S  S101  1  0.56033651  0.68206479  0.84942252  1  0  -0.236623  0  2.121721  0  0  -0.215416  0  2.473567  0  0  -0.223939  0  2.469202  0  -0.228078  0  -0.11101  -0.209312  0  2.476813  0
S  S102  1  0.51103248  0.12205504  0.33273366  1  0  -0.266386  0  2.131656  0  0  -0.26093  0  2.482984  0  0  -0.272657  0  2.483885  0  -0.243601  0  -0.135817  -0.252525  0  2.482431  0
S  S103  1  0.48896822  0.87794443  0.66726545  1  0  -0.266373  0  2.13167  0  0  -0.260901  0  2.48298  0  0  -0.272622  0  2.483871  0  -0.243741  0  -0.135798  -0.252498  0  2.482432  0
N  N104  1  0.10215230  0.18253711  0.25270648  1  0  -0.333694  0  3.227425  0  0  -0.256018  0  3.474966  0  0  -0.276241  0  3.499019  0  -1.259369  0  -0.302908  -0.241984  0  3.458143  0
N  N105  1  0.89784810  0.81746311  0.74729360  1  0  -0.333715  0  3.227535  0  0  -0.256036  0  3.475076  0  0  -0.276258  0  3.499129  0  -1.259461  0  -0.302926  -0.242005  0  3.458256  0
N  N106  1  0.14407588  0.06654398  0.02316876  1  0  -0.29679  0  3.048785  0  0  -0.262974  0  3.321337  0  0  -0.272983  0  3.337414  0  -1.203149  0  -0.320725  -0.256009  0  3.310211  0
N  N107  1  0.85592260  0.93345776  0.97683113  1  0  -0.29679  0  3.048721  0  0  -0.262961  0  3.321269  0  0  -0.27297  0  3.337345  0  -1.203115  0  -0.320681  -0.255995  0  3.310143  0
N  N108  1  0.09014983  0.50629767  0.25631740  1  0  -0.345702  0  3.205355  0  0  -0.273611  0  3.45517  0  0  -0.292995  0  3.479042  0  -1.245645  0  -0.308346  -0.259972  0  3.438305  0
N  N109  1  0.90985028  0.49370332  0.74368253  1  0  -0.345653  0  3.205397  0  0  -0.273553  0  3.455223  0  0  -0.292933  0  3.479088  0  -1.245678  0  -0.308381  -0.259914  0  3.438358  0
N  N110  1  0.92520127  0.88425144  0.21253827  1  0  -0.44285  0  2.989581  0  0  -0.411961  0  3.254407  0  0  -0.42962  0  3.265392  0  -1.190373  0  -0.299769  -0.400428  0  3.247046  0
N  N111  1  0.07479884  0.11574954  0.78745943  1  0  -0.442788  0  2.98958  0  0  -0.411916  0  3.254392  0  0  -0.429573  0  3.265376  0  -1.190448  0  -0.299772  -0.400384  0  3.24703  0
N  N112  1  0.68888886  0.02075556  0.16122842  1  0  -0.422169  0  2.932828  0  0  -0.386489  0  3.191412  0  0  -0.403402  0  3.20143  0  -1.18839  0  -0.295046  -0.375335  0  3.18471  0
N  N113  1  0.31111154  0.97924467  0.83876999  1  0  -0.422283  0  2.932814  0  0  -0.386614  0  3.191395  0  0  -0.403527  0  3.201413  0  -1.188537  0  -0.295108  -0.375464  0  3.184693  0
N  N114  1  0.67868864  0.85151128  0.16716775  1  0  -0.433761  0  2.94749  0  0  -0.405767  0  3.212247  0  0  -0.422586  0  3.221423  0  -1.156387  0  -0.298622  -0.394817  0  3.206152  0
N  N115  1  0.32131072  0.14848819  0.83283315  1  0  -0.433748  0  2.947497  0  0  -0.405736  0  3.212253  0  0  -0.422555  0  3.221431  0  -1.156018  0  -0.298619  -0.394789  0  3.206155  0
F  F116  1  0.86641607  0.35472519  0.39786964  1  0  -0.169483  0  1.257036  0  0  -0.117712  0  1.431588  0  0  -0.126326  0  1.421669  0  -0.629785  0  -0.088664  -0.111479  0  1.438413  0
F  F117  1  0.13359041  0.64526974  0.60213058  1  0  -0.169438  0  1.257066  0  0  -0.117681  0  1.431632  0  0  -0.126299  0  1.421714  0  -0.629734  0  -0.088653  -0.111446  0  1.438455  0
F  F118  1  0.85483527  0.35289520  0.55034852  1  0  -0.131544  0  1.245576  0  0  -0.088314  0  1.410502  0  0  -0.093977  0  1.39899  0  -0.608323  0  -0.084818  -0.084143  0  1.418367  0
F  F119  1  0.14517377  0.64710351  0.44965287  1  0  -0.131493  0  1.245723  0  0  -0.088387  0  1.410695  0  0  -0.094048  0  1.399183  0  -0.60815  0  -0.084896  -0.084217  0  1.418561  0
F  F120  1  0.52648711  0.37022756  0.64702067  1  0  -0.139865  0  1.249962  0  0  -0.083176  0  1.409746  0  0  -0.090927  0  1.401144  0  -0.623315  0  -0.077213  -0.077564  0  1.415672  0
F  F121  1  0.47351983  0.62976964  0.35297955  1  0  -0.139902  0  1.250208  0  0  -0.083167  0  1.409982  0  0  -0.090917  0  1.401378  0  -0.623347  0  -0.077179  -0.077554  0  1.415909  0
F  F122  1  0.20689831  0.39307713  0.58750711  1  0  -0.131842  0  1.249616  0  0  -0.081574  0  1.410669  0  0  -0.089893  0  1.402942  0  -0.613824  0  -0.080745  -0.075713  0  1.415821  0
F  F123  1  0.79310612  0.60692309  0.41249263  1  0  -0.131852  0  1.249582  0  0  -0.0816  0  1.410649  0  0  -0.089915  0  1.40292  0  -0.613856  0  -0.080772  -0.075736  0  1.415799  0
F  F124  1  0.21487191  0.39460679  0.43564439  1  0  -0.167978  0  1.267367  0  0  -0.112936  0  1.438285  0  0  -0.123537  0  1.430108  0  -0.624528  0  -0.08529  -0.106646  0  1.444834  0
F  F125  1  0.78513352  0.60538738  0.56435721  1  0  -0.167941  0  1.267342  0  0  -0.112895  0  1.438259  0  0  -0.123525  0  1.430099  0  -0.624616  0  -0.085273  -0.106603  0  1.444807  0
F  F126  1  0.09188440  0.44238483  0.08691632  1  0  -0.15043  0  1.277102  0  0  -0.109428  0  1.457692  0  0  -0.117491  0  1.447302  0  -0.627727  0  -0.078369  -0.103571  0  1.464818  0
F  F127  1  0.90811139  0.55761691  0.91308882  1  0  -0.150401  0  1.277184  0  0  -0.109404  0  1.45776  0  0  -0.117467  0  1.44737  0  -0.627539  0  -0.078369  -0.103548  0  1.464886  0
F  F128  1  0.01379976  0.64291851  0.01832229  1  0  -0.122298  0  1.276726  0  0  -0.081436  0  1.452706  0  0  -0.088831  0  1.44239  0  -0.61367  0  -0.068635  -0.076064  0  1.459888  0
F  F129  1  0.98619393  0.35708171  0.98168170  1  0  -0.122388  0  1.276607  0  0  -0.081523  0  1.452598  0  0  -0.088917  0  1.44228  0  -0.613709  0  -0.068665  -0.07615  0  1.459781  0
F  F130  1  0.26112660  0.75910304  0.00653034  1  0  -0.127562  0  1.28633  0  0  -0.066346  0  1.447717  0  0  -0.074757  0  1.438675  0  -0.620207  0  -0.054057  -0.060253  0  1.453938  0
F  F131  1  0.73887083  0.24089794  0.99347149  1  0  -0.127576  0  1.28636  0  0  -0.066363  0  1.447744  0  0  -0.074774  0  1.438702  0  -0.62019  0  -0.054067  -0.060271  0  1.453965  0
F  F132  1  0.59119284  0.67158034  0.06222627  1  0  -0.136072  0  1.265074  0  0  -0.081367  0  1.428492  0  0  -0.088932  0  1.418927  0  -0.619871  0  -0.069044  -0.075878  0  1.435138  0
F  F133  1  0.40880698  0.32842140  0.93777017  1  0  -0.1361  0  1.265076  0  0  -0.08136  0  1.428477  0  0  -0.088924  0  1.418912  0  -0.619844  0  -0.069045  -0.07587  0  1.435124  0
F  F134  1  0.67721848  0.46960626  0.12639996  1  0  -0.156726  0  1.274762  0  0  -0.101638  0  1.443834  0  0  -0.110335  0  1.434994  0  -0.628329  0  -0.079378  -0.095355  0  1.449934  0
F  F135  1  0.32278327  0.53039397  0.87359611  1  0  -0.156769  0  1.274696  0  0  -0.101697  0  1.443766  0  0  -0.110395  0  1.434924  0  -0.628335  0  -0.079399  -0.095415  0  1.449866  0
F  F136  1  0.82455989  0.11068472  0.41467196  1  0  -0.144872  0  1.257716  0  0  -0.093666  0  1.422755  0  0  -0.102997  0  1.415042  0  -0.619608  0  -0.080076  -0.087119  0  1.427944  0
F  F137  1  0.17543875  0.88932005  0.58532668  1  0  -0.144866  0  1.257676  0  0  -0.093674  0  1.422743  0  0  -0.103009  0  1.415034  0  -0.619614  0  -0.080061  -0.087091  0  1.427907  0
F  F138  1  0.81547292  0.11582217  0.56517073  1  0  -0.133795  0  1.263821  0  0  -0.084626  0  1.430979  0  0  -0.091432  0  1.420574  0  -0.610058  0  -0.076329  -0.079693  0  1.438179  0
F  F139  1  0.18452387  0.88417352  0.43482957  1  0  -0.133832  0  1.263813  0  0  -0.084634  0  1.430951  0  0  -0.091441  0  1.420547  0  -0.610048  0  -0.076349  -0.0797  0  1.438154  0
F  F140  1  0.48984496  0.13446480  0.66229985  1  0  -0.137277  0  1.257019  0  0  -0.081632  0  1.414959  0  0  -0.089558  0  1.407088  0  -0.618096  0  -0.077593  -0.075921  0  1.420443  0
F  F141  1  0.51015083  0.86553694  0.33769971  1  0  -0.137221  0  1.257198  0  0  -0.081614  0  1.415091  0  0  -0.08954  0  1.407222  0  -0.618127  0  -0.077575  -0.075902  0  1.420574  0
F  F142  1  0.16956708  0.14690936  0.60753789  1  0  -0.129179  0  1.256495  0  0  -0.079045  0  1.419407  0  0  -0.086225  0  1.409803  0  -0.612149  0  -0.076572  -0.073824  0  1.426077  0
F  F143  1  0.83042574  0.85309314  0.39246063  1  0  -0.129139  0  1.256585  0  0  -0.079  0  1.419498  0  0  -0.086182  0  1.409894  0  -0.612144  0  -0.07655  -0.073778  0  1.426168  0
F  F144  1  0.17541083  0.14093294  0.45704320  1  0  -0.162816  0  1.26509  0  0  -0.113454  0  1.436549  0  0  -0.121331  0  1.426247  0  -0.621605  0  -0.084368  -0.107709  0  1.44359  0
F  F145  1  0.82458881  0.85906577  0.54295450  1  0  -0.162922  0  1.265045  0  0  -0.113546  0  1.436504  0  0  -0.121424  0  1.426202  0  -0.621613  0  -0.084455  -0.107802  0  1.443547  0
