# generated using pymatgen
data_NaH17C26O15
_symmetry_space_group_name_H-M   'P 1'
_cell_length_a   8.57532730
_cell_length_b   10.32771665
_cell_length_c   15.32600000
_cell_angle_alpha   74.52786405
_cell_angle_beta   80.59728143
_cell_angle_gamma   85.86474603
_symmetry_Int_Tables_number   1
_chemical_formula_structural   NaH17C26O15
_chemical_formula_sum   'Na2 H34 C52 O30'
_cell_volume   1289.97931046
_cell_formula_units_Z   2
loop_
 _symmetry_equiv_pos_site_id
 _symmetry_equiv_pos_as_xyz
  1  'x, y, z'
loop_
 _atom_site_type_symbol
 _atom_site_label
 _atom_site_symmetry_multiplicity
 _atom_site_fract_x
 _atom_site_fract_y
 _atom_site_fract_z
 _atom_site_occupancy
 _atom_site_hle17_bader_spin_density
 _atom_site_hle17_ddec_charge
 _atom_site_hle17_ddec_spin_density
 _atom_site_hle17_ddec_sum_bond_order
 _atom_site_hle17_magmom
 _atom_site_hse06_10hf_bader_spin_density
 _atom_site_hse06_10hf_ddec_charge
 _atom_site_hse06_10hf_ddec_spin_density
 _atom_site_hse06_10hf_ddec_sum_bond_order
 _atom_site_hse06_10hf_magmom
 _atom_site_hse06_bader_spin_density
 _atom_site_hse06_ddec_charge
 _atom_site_hse06_ddec_spin_density
 _atom_site_hse06_ddec_sum_bond_order
 _atom_site_hse06_magmom
 _atom_site_pbe_bader_charge
 _atom_site_pbe_bader_spin_density
 _atom_site_pbe_cm5_charge
 _atom_site_pbe_ddec_charge
 _atom_site_pbe_ddec_spin_density
 _atom_site_pbe_ddec_sum_bond_order
 _atom_site_pbe_magmom
Na  Na0  1  0.12884479  0.38490146  0.45596902  1  0  0.905153  0  0.365862  0  0  0.861163  0  0.516845  0  0  0.872222  0  0.494301  0  0.891625  0  0.688086  0.853043  0  0.533118  0
Na  Na1  1  0.87115079  0.61510035  0.54403321  1  0  0.905129  0  0.3659  0  0  0.86114  0  0.516872  0  0  0.872213  0  0.494309  0  0.891596  0  0.688078  0.853024  0  0.533143  0
H  H2  1  0.37910212  0.46913135  0.16380551  1  0  0.099358  0  0.942106  0  0  0.113179  0  0.997219  0  0  0.115865  0  0.99657  0  0.045379  0  0.104161  0.111236  0  0.997795  0
H  H3  1  0.62089837  0.53086543  0.83619522  1  0  0.099361  0  0.942048  0  0  0.113189  0  0.997153  0  0  0.115875  0  0.996503  0  0.04539  0  0.104145  0.111246  0  0.997729  0
H  H4  1  0.73522376  0.72314880  0.19204402  1  0  0.098065  0  0.945134  0  0  0.111303  0  1.000516  0  0  0.114343  0  0.999389  0  0.068577  0  0.102328  0.109171  0  1.00127  0
H  H5  1  0.26477426  0.27685099  0.80795443  1  0  0.098092  0  0.945149  0  0  0.111331  0  1.000527  0  0  0.114372  0  0.9994  0  0.068532  0  0.102335  0.109198  0  1.001283  0
H  H6  1  0.85469011  0.44335479  0.02507595  1  0  0.09645  0  0.951225  0  0  0.108661  0  1.009463  0  0  0.111156  0  1.008866  0  0.082674  0  0.10435  0.106874  0  1.009975  0
H  H7  1  0.14531030  0.55664400  0.97492443  1  0  0.096458  0  0.951209  0  0  0.108667  0  1.009453  0  0  0.111162  0  1.008855  0  0.082673  0  0.104359  0.10688  0  1.009964  0
H  H8  1  0.57925103  0.36622514  0.06259812  1  0  0.095911  0  0.939894  0  0  0.107374  0  0.995951  0  0  0.110382  0  0.994897  0  0.084782  0  0.103502  0.10534  0  0.996531  0
H  H9  1  0.42074946  0.63377164  0.93740326  1  0  0.095961  0  0.939892  0  0  0.107418  0  0.995948  0  0  0.110424  0  0.994895  0  0.084813  0  0.103525  0.105394  0  0.996517  0
H  H10  1  0.93332908  0.62285090  0.09034119  1  0  0.097804  0  0.973783  0  0  0.10567  0  1.038811  0  0  0.108962  0  1.036755  0  0.08752  0  0.099931  0.103263  0  1.040419  0
H  H11  1  0.06667012  0.37714889  0.90965781  1  0  0.097781  0  0.973797  0  0  0.105649  0  1.038823  0  0  0.10894  0  1.036768  0  0.087508  0  0.099916  0.103242  0  1.040431  0
H  H12  1  0.40896065  0.61165376  0.31897923  1  0  0.122968  0  0.927928  0  0  0.132063  0  0.99042  0  0  0.135688  0  0.987671  0  0.144137  0  0.126561  0.129401  0  0.992486  0
H  H13  1  0.59104091  0.38834604  0.68102021  1  0  0.123011  0  0.927876  0  0  0.132098  0  0.99037  0  0  0.135721  0  0.987616  0  0.144137  0  0.126576  0.129436  0  0.992436  0
H  H14  1  0.31110720  0.88248201  0.78955376  1  0  0.100774  0  0.952809  0  0  0.109891  0  1.016155  0  0  0.112986  0  1.014851  0  0.076896  0  0.099495  0.107743  0  1.017023  0
H  H15  1  0.68889200  0.11751779  0.21044785  1  0  0.100796  0  0.952796  0  0  0.109895  0  1.016159  0  0  0.11299  0  1.014853  0  0.076899  0  0.099486  0.107747  0  1.017025  0
H  H16  1  0.74883036  0.75113062  0.85266416  1  0  0.088567  0  0.941675  0  0  0.102974  0  0.993958  0  0  0.105658  0  0.99285  0  0.057754  0  0.10206  0.101063  0  0.994786  0
H  H17  1  0.25117120  0.24886918  0.14733528  1  0  0.088577  0  0.941706  0  0  0.102984  0  0.993986  0  0  0.105668  0  0.992878  0  0.057735  0  0.102067  0.101073  0  0.994814  0
H  H18  1  0.94017113  0.65889889  0.74252884  1  0  0.093498  0  0.954351  0  0  0.105575  0  1.014971  0  0  0.108787  0  1.013287  0  0.069267  0  0.102778  0.103299  0  1.016159  0
H  H19  1  0.05983165  0.34109990  0.25747263  1  0  0.09349  0  0.95434  0  0  0.105555  0  1.014975  0  0  0.108775  0  1.01328  0  0.069259  0  0.102762  0.103279  0  1.016164  0
H  H20  1  0.83863295  0.90502607  0.93318928  1  0  0.091188  0  0.941219  0  0  0.103296  0  0.996822  0  0  0.106007  0  0.996137  0  0.057243  0  0.100669  0.101344  0  0.997402  0
H  H21  1  0.16136493  0.09497775  0.06681042  1  0  0.091148  0  0.941245  0  0  0.103265  0  0.996835  0  0  0.105976  0  0.99615  0  0.057367  0  0.100659  0.101314  0  0.997415  0
H  H22  1  0.12169348  0.97185716  0.89969303  1  0  0.093485  0  0.939334  0  0  0.105646  0  0.994794  0  0  0.108518  0  0.993146  0  0.074071  0  0.102717  0.103663  0  0.995876  0
H  H23  1  0.87830801  0.02814464  0.10030735  1  0  0.093501  0  0.939372  0  0  0.105652  0  0.994841  0  0  0.108522  0  0.993194  0  0.074097  0  0.102723  0.103668  0  0.995923  0
H  H24  1  0.48807853  0.56910761  0.59450041  1  0  0.396676  0  0.917416  0  0  0.361498  0  1.001199  0  0  0.374336  0  0.983735  0  0.639808  0  0.297924  0.352518  0  1.009612  0
H  H25  1  0.51192178  0.43089420  0.40549878  1  0  0.396691  0  0.917507  0  0  0.361508  0  1.00121  0  0  0.374344  0  0.983748  0  0.639795  0  0.297912  0.352528  0  1.009693  0
H  H26  1  0.36491553  0.05214715  0.33398478  1  0  0.421622  0  0.857363  0  0  0.389129  0  0.938858  0  0  0.401879  0  0.922334  0  0.658632  0  0.313863  0.380133  0  0.949171  0
H  H27  1  0.63508374  0.94785064  0.66601588  1  0  0.421535  0  0.857464  0  0  0.389072  0  0.938889  0  0  0.401819  0  0.922404  0  0.658675  0  0.313867  0.380082  0  0.949186  0
H  H28  1  0.91205598  0.75673221  0.32891184  1  0  0.424061  0  0.866206  0  0  0.394059  0  0.93563  0  0  0.406833  0  0.91768  0  0.657647  0  0.307567  0.385069  0  0.94828  0
H  H29  1  0.08794559  0.24326759  0.67108890  1  0  0.424061  0  0.866193  0  0  0.394059  0  0.935625  0  0  0.406834  0  0.917674  0  0.657641  0  0.307569  0.385069  0  0.948276  0
H  H30  1  0.30523735  0.60656679  0.72877297  1  0  0.104689  0  0.96291  0  0  0.111692  0  1.029639  0  0  0.112921  0  1.03186  0  0.171053  0  0.11615  0.110851  0  1.028115  0
H  H31  1  0.69476547  0.39343099  0.27122802  1  0  0.104712  0  0.962945  0  0  0.111713  0  1.029656  0  0  0.112943  0  1.031874  0  0.171083  0  0.116158  0.110867  0  1.028143  0
H  H32  1  0.29872281  0.18554297  0.59475945  1  0  0.432852  0  0.860303  0  0  0.401754  0  0.922398  0  0  0.411866  0  0.907679  0  0.650899  0  0.302655  0.39435  0  0.933263  0
H  H33  1  0.70127871  0.81445783  0.40524047  1  0  0.432822  0  0.860347  0  0  0.401717  0  0.922454  0  0  0.411831  0  0.907732  0  0.65084  0  0.302644  0.394312  0  0.93332  0
H  H34  1  0.30288500  0.34140546  0.59654783  1  0  0.429028  0  0.868243  0  0  0.394433  0  0.937502  0  0  0.405157  0  0.921788  0  0.651725  0  0.299233  0.386564  0  0.949008  0
H  H35  1  0.69711058  0.65859634  0.40345245  1  0  0.429024  0  0.868246  0  0  0.39443  0  0.937501  0  0  0.405155  0  0.921787  0  0.651715  0  0.299225  0.386562  0  0.949008  0
C  C36  1  0.45698150  0.88973804  0.13707448  1  0  0.620841  0  3.728694  0  0  0.566856  0  4.037075  0  0  0.597813  0  4.030756  0  1.502166  0  0.252449  0.545579  0  4.041326  0
C  C37  1  0.54301534  0.11026175  0.86292474  1  0  0.620888  0  3.728735  0  0  0.566951  0  4.037055  0  0  0.597915  0  4.030734  0  1.502157  0  0.252435  0.545676  0  4.041307  0
C  C38  1  0.39030688  0.81206964  0.23126249  1  0  -0.196276  0  3.631682  0  0  -0.181885  0  3.869596  0  0  -0.191967  0  3.882063  0  -0.090673  0  -0.007375  -0.175201  0  3.861329  0
C  C39  1  0.60969114  0.18793016  0.76873793  1  0  -0.196334  0  3.631711  0  0  -0.181959  0  3.869633  0  0  -0.192045  0  3.882104  0  -0.090703  0  -0.007389  -0.175276  0  3.861369  0
C  C40  1  0.26762286  0.72126117  0.21790973  1  0  -0.19306  0  3.650886  0  0  -0.178428  0  3.88982  0  0  -0.187577  0  3.902339  0  -0.034979  0  -0.004879  -0.172195  0  3.881278  0
C  C41  1  0.73237755  0.27873762  0.78209064  1  0  -0.193115  0  3.650909  0  0  -0.1785  0  3.889842  0  0  -0.187649  0  3.90236  0  -0.034862  0  -0.004889  -0.172265  0  3.881301  0
C  C42  1  0.54403659  0.60272117  0.18440872  1  0  0.043536  0  3.806637  0  0  0.061605  0  4.050384  0  0  0.060336  0  4.076024  0  -0.061611  0  -0.024792  0.062454  0  4.032962  0
C  C43  1  0.45596261  0.39727863  0.81559289  1  0  0.043587  0  3.806599  0  0  0.061665  0  4.050312  0  0  0.060395  0  4.075954  0  -0.06161  0  -0.024771  0.062514  0  4.032888  0
C  C44  1  0.50100599  0.50204534  0.14764302  1  0  -0.128063  0  3.744098  0  0  -0.148451  0  3.992486  0  0  -0.15138  0  4.014307  0  -0.015012  0  -0.096281  -0.1464  0  3.977733  0
C  C45  1  0.49899325  0.49795345  0.85235876  1  0  -0.128085  0  3.744131  0  0  -0.148482  0  3.992512  0  0  -0.151411  0  4.014335  0  -0.015014  0  -0.09629  -0.146431  0  3.977764  0
C  C46  1  0.70066118  0.64493964  0.16377227  1  0  -0.117011  0  3.733638  0  0  -0.136802  0  3.976978  0  0  -0.13949  0  3.998348  0  -0.036582  0  -0.095164  -0.134915  0  3.962377  0
C  C47  1  0.29933805  0.35505915  0.83622821  1  0  -0.117019  0  3.7336  0  0  -0.136813  0  3.976936  0  0  -0.139502  0  3.998307  0  -0.03655  0  -0.095144  -0.134926  0  3.962336  0
C  C48  1  0.76817703  0.48886205  0.06935982  1  0  -0.062728  0  3.750913  0  0  -0.080491  0  4.001277  0  0  -0.082122  0  4.023426  0  -0.110528  0  -0.086533  -0.079323  0  3.986332  0
C  C49  1  0.23182099  0.51113774  0.93063929  1  0  -0.062662  0  3.750826  0  0  -0.080424  0  4.001188  0  0  -0.082056  0  4.023337  0  -0.110427  0  -0.08652  -0.079257  0  3.986249  0
C  C50  1  0.61282368  0.44505346  0.09056067  1  0  -0.062063  0  3.772942  0  0  -0.075806  0  4.027052  0  0  -0.077824  0  4.048787  0  0.005502  0  -0.087727  -0.074459  0  4.012287  0
C  C51  1  0.38717552  0.55494633  0.90943964  1  0  -0.062155  0  3.772985  0  0  -0.075893  0  4.027103  0  0  -0.07791  0  4.048838  0  0.005473  0  -0.087743  -0.074555  0  4.012338  0
C  C52  1  0.81217987  0.58851566  0.10608925  1  0  -0.064778  0  3.756871  0  0  -0.076517  0  4.005543  0  0  -0.078656  0  4.027017  0  -0.050537  0  -0.088311  -0.074984  0  3.990931  0
C  C53  1  0.18781815  0.41148413  0.89391051  1  0  -0.064803  0  3.756844  0  0  -0.076542  0  4.005519  0  0  -0.078682  0  4.026993  0  -0.050667  0  -0.088329  -0.075009  0  3.990907  0
C  C54  1  0.42274603  0.66142578  0.24585832  1  0  -0.040033  0  3.63087  0  0  -0.074701  0  3.882227  0  0  -0.073119  0  3.89601  0  -0.00689  0  -0.060384  -0.075502  0  3.872669  0
C  C55  1  0.57725310  0.33857602  0.75414228  1  0  -0.040055  0  3.630781  0  0  -0.074714  0  3.882134  0  0  -0.073122  0  3.895905  0  -0.006864  0  -0.060387  -0.075513  0  3.872574  0
C  C56  1  0.13742467  0.76623571  0.75762551  1  0  0.041832  0  3.815556  0  0  0.061799  0  4.052967  0  0  0.059783  0  4.080724  0  -0.055294  0  -0.023956  0.063168  0  4.034016  0
C  C57  1  0.86257682  0.23376609  0.24237487  1  0  0.041898  0  3.815573  0  0  0.061846  0  4.052981  0  0  0.059824  0  4.080757  0  -0.055295  0  -0.023931  0.063216  0  4.034027  0
C  C58  1  0.18759540  0.85440069  0.80214246  1  0  -0.115172  0  3.727857  0  0  -0.136839  0  3.975499  0  0  -0.139905  0  3.997472  0  -0.056488  0  -0.093574  -0.134611  0  3.960443  0
C  C59  1  0.81240491  0.14560112  0.19785738  1  0  -0.115251  0  3.727785  0  0  -0.136899  0  3.975437  0  0  -0.139965  0  3.997412  0  -0.056475  0  -0.093596  -0.134672  0  3.960381  0
C  C60  1  0.87216452  0.77962304  0.83884658  1  0  -0.052797  0  3.773464  0  0  -0.066343  0  4.025605  0  0  -0.067794  0  4.047428  0  -0.009774  0  -0.088353  -0.06525  0  4.010605  0
C  C61  1  0.12783704  0.22037676  0.16115416  1  0  -0.052835  0  3.773322  0  0  -0.066386  0  4.02547  0  0  -0.067836  0  4.047293  0  -0.009791  0  -0.088381  -0.065293  0  4.010472  0
C  C62  1  0.97903434  0.72895846  0.77618934  1  0  -0.114982  0  3.738414  0  0  -0.136254  0  3.983996  0  0  -0.139253  0  4.006147  0  -0.062541  0  -0.092086  -0.133997  0  3.968718  0
C  C63  1  0.02096608  0.27104033  0.22381234  1  0  -0.114945  0  3.738324  0  0  -0.1362  0  3.983909  0  0  -0.139205  0  4.006062  0  -0.062564  0  -0.092038  -0.133944  0  3.968631  0
C  C64  1  0.92255007  0.86706030  0.88350865  1  0  -0.070133  0  3.752944  0  0  -0.087886  0  4.007207  0  0  -0.090402  0  4.029346  0  -0.000769  0  -0.090769  -0.086053  0  3.992044  0
C  C65  1  0.07745035  0.13293849  0.11649303  1  0  -0.070129  0  3.75291  0  0  -0.087886  0  4.007167  0  0  -0.090401  0  4.029303  0  -0.00086  0  -0.090796  -0.086053  0  3.992002  0
C  C66  1  0.08022298  0.90463708  0.86487368  1  0  -0.042255  0  3.754945  0  0  -0.057392  0  4.008911  0  0  -0.057971  0  4.029028  0  -0.011978  0  -0.085184  -0.056918  0  3.995047  0
C  C67  1  0.91977618  0.09536372  0.13512644  1  0  -0.042229  0  3.754978  0  0  -0.057354  0  4.008923  0  0  -0.057932  0  4.029039  0  -0.011979  0  -0.085152  -0.056879  0  3.995058  0
C  C68  1  0.32318556  0.93138862  0.59105088  1  0  0.649426  0  3.718959  0  0  0.588145  0  4.028563  0  0  0.621162  0  4.020706  0  1.527264  0  0.264001  0.565234  0  4.034192  0
C  C69  1  0.67681364  0.06861118  0.40894877  1  0  0.649374  0  3.719005  0  0  0.588092  0  4.028628  0  0  0.621113  0  4.020767  0  1.526966  0  0.263973  0.565188  0  4.034244  0
C  C70  1  0.37144494  0.78576438  0.61814943  1  0  -0.212476  0  3.627367  0  0  -0.196271  0  3.866672  0  0  -0.206711  0  3.879185  0  -0.049109  0  -0.007373  -0.189155  0  3.858179  0
C  C71  1  0.62855666  0.21423441  0.38185279  1  0  -0.212512  0  3.627418  0  0  -0.196309  0  3.866749  0  0  -0.206755  0  3.879258  0  -0.049292  0  -0.007389  -0.189198  0  3.858255  0
C  C72  1  0.23733954  0.71302513  0.59663069  1  0  -0.208482  0  3.627411  0  0  -0.193153  0  3.862971  0  0  -0.202263  0  3.874902  0  -0.050284  0  -0.00651  -0.186966  0  3.855054  0
C  C73  1  0.76265966  0.28697466  0.40336896  1  0  -0.208598  0  3.627481  0  0  -0.193249  0  3.863047  0  0  -0.202357  0  3.874976  0  -0.050238  0  -0.006533  -0.187066  0  3.855128  0
C  C74  1  0.11415800  0.68047702  0.28069753  1  0  0.716868  0  3.789264  0  0  0.663117  0  4.096136  0  0  0.696736  0  4.086089  0  1.62198  0  0.252654  0.640191  0  4.102636  0
C  C75  1  0.88584238  0.31952278  0.71930267  1  0  0.716919  0  3.789198  0  0  0.66316  0  4.096086  0  0  0.696779  0  4.086039  0  1.622568  0  0.252629  0.640235  0  4.102586  0
C  C76  1  0.36722264  0.87383286  0.31113494  1  0  0.698909  0  3.799826  0  0  0.644296  0  4.106876  0  0  0.679161  0  4.095586  0  1.623858  0  0.240682  0.620593  0  4.114005  0
C  C77  1  0.63277663  0.12616492  0.68886572  1  0  0.698919  0  3.799729  0  0  0.644296  0  4.106786  0  0  0.679159  0  4.095497  0  1.623907  0  0.240658  0.620594  0  4.113917  0
C  C78  1  0.54492653  0.74707693  0.61179000  1  0  0.701535  0  3.804304  0  0  0.643742  0  4.1129  0  0  0.677853  0  4.103197  0  1.612929  0  0.242868  0.620544  0  4.119006  0
C  C79  1  0.45507618  0.25292387  0.38820850  1  0  0.701644  0  3.804208  0  0  0.643808  0  4.112847  0  0  0.677924  0  4.103137  0  1.612897  0  0.24287  0.62061  0  4.118951  0
C  C80  1  0.25025042  0.58676272  0.56304989  1  0  0.721801  0  3.836632  0  0  0.665716  0  4.13932  0  0  0.700202  0  4.129046  0  1.669924  0  0.234342  0.642016  0  4.146195  0
C  C81  1  0.74974871  0.41323909  0.43694746  1  0  0.722105  0  3.836353  0  0  0.665921  0  4.139198  0  0  0.700407  0  4.128918  0  1.66993  0  0.234378  0.642233  0  4.146053  0
C  C82  1  0.25357462  0.70384830  0.69576865  1  0  -0.024687  0  3.594864  0  0  -0.053108  0  3.836406  0  0  -0.051893  0  3.852418  0  -0.05477  0  -0.050346  -0.053643  0  3.825375  0
C  C83  1  0.74642580  0.29615049  0.30423238  1  0  -0.024736  0  3.595024  0  0  -0.05311  0  3.836484  0  0  -0.051891  0  3.852494  0  -0.054586  0  -0.050345  -0.053639  0  3.825443  0
C  C84  1  0.26411872  0.76042304  0.11684706  1  0  0.625403  0  3.742767  0  0  0.567491  0  4.056606  0  0  0.598665  0  4.050045  0  1.514427  0  0.254785  0.546185  0  4.060847  0
C  C85  1  0.73588177  0.23957374  0.88315106  1  0  0.625378  0  3.742877  0  0  0.567557  0  4.05658  0  0  0.598727  0  4.050025  0  1.514464  0  0.254858  0.546248  0  4.06083  0
C  C86  1  0.12366326  0.82276824  0.56001396  1  0  0.651349  0  3.707497  0  0  0.597061  0  4.010775  0  0  0.62839  0  4.003218  0  1.503771  0  0.26423  0.575433  0  4.015976  0
C  C87  1  0.87633590  0.17723256  0.43998682  1  0  0.651438  0  3.707396  0  0  0.597173  0  4.010667  0  0  0.628502  0  4.003107  0  1.503721  0  0.264221  0.575541  0  4.015874  0
O  O88  1  0.38373113  0.84951073  0.07289355  1  0  -0.346305  0  2.167783  0  0  -0.285676  0  2.395891  0  0  -0.306222  0  2.388808  0  -0.985947  0  -0.125127  -0.271478  0  2.400286  0
O  O89  1  0.61626817  0.15048605  0.92710598  1  0  -0.346301  0  2.167732  0  0  -0.285748  0  2.395848  0  0  -0.3063  0  2.388768  0  -0.985935  0  -0.125162  -0.271553  0  2.40025  0
O  O90  1  0.14651697  0.56562282  0.52127192  1  0  -0.660834  0  1.988506  0  0  -0.626985  0  2.238783  0  0  -0.647728  0  2.226444  0  -1.181728  0  -0.405202  -0.612377  0  2.246971  0
O  O91  1  0.85347980  0.43437898  0.47872629  1  0  -0.660953  0  1.988424  0  0  -0.627056  0  2.23873  0  0  -0.647798  0  2.226387  0  -1.181612  0  -0.405216  -0.612458  0  2.246925  0
O  O92  1  0.36745676  0.50429381  0.58458837  1  0  -0.618624  0  2.036457  0  0  -0.553915  0  2.254851  0  0  -0.579579  0  2.241958  0  -1.18746  0  -0.310686  -0.53588  0  2.262321  0
O  O93  1  0.63254115  0.49570900  0.41540956  1  0  -0.618722  0  2.036405  0  0  -0.553992  0  2.254843  0  0  -0.579657  0  2.241949  0  -1.187524  0  -0.310655  -0.53596  0  2.262332  0
O  O94  1  0.58750812  0.62678297  0.60167377  1  0  -0.596184  0  2.11534  0  0  -0.549222  0  2.360043  0  0  -0.572066  0  2.342092  0  -1.177509  0  -0.356396  -0.53317  0  2.369609  0
O  O95  1  0.41249459  0.37321783  0.39832668  1  0  -0.596253  0  2.115376  0  0  -0.549269  0  2.360067  0  0  -0.572113  0  2.342116  0  -1.177546  0  -0.356406  -0.533216  0  2.369676  0
O  O96  1  0.64433388  0.82426790  0.61727168  1  0  -0.541342  0  1.979275  0  0  -0.501171  0  2.204538  0  0  -0.521948  0  2.193843  0  -1.152373  0  -0.268084  -0.486721  0  2.211467  0
O  O97  1  0.35567005  0.17573190  0.38272689  1  0  -0.541443  0  1.979158  0  0  -0.501222  0  2.204431  0  0  -0.521999  0  2.193724  0  -1.152347  0  -0.268102  -0.486768  0  2.211362  0
O  O98  1  0.37032042  0.00652128  0.28271261  1  0  -0.543114  0  2.114613  0  0  -0.495417  0  2.335007  0  0  -0.518236  0  2.318666  0  -1.122813  0  -0.318515  -0.479452  0  2.34471  0
O  O99  1  0.62968355  0.99347751  0.71728679  1  0  -0.543061  0  2.114654  0  0  -0.495368  0  2.33505  0  0  -0.518185  0  2.318734  0  -1.122907  0  -0.318504  -0.479403  0  2.344745  0
O  O100  1  0.34594629  0.80552524  0.39072475  1  0  -0.538599  0  1.910197  0  0  -0.501169  0  2.124704  0  0  -0.521383  0  2.11677  0  -1.161282  0  -0.286239  -0.487116  0  2.129739  0
O  O101  1  0.65405520  0.19447657  0.60927759  1  0  -0.538592  0  1.910127  0  0  -0.501137  0  2.124603  0  0  -0.52135  0  2.116669  0  -1.161242  0  -0.286219  -0.487085  0  2.129639  0
O  O102  1  0.08961418  0.56238832  0.32183573  1  0  -0.587516  0  1.910154  0  0  -0.553473  0  2.134916  0  0  -0.572066  0  2.124398  0  -1.165561  0  -0.326539  -0.540724  0  2.141914  0
O  O103  1  0.91038266  0.43761148  0.67816414  1  0  -0.58753  0  1.910143  0  0  -0.553488  0  2.134922  0  0  -0.572083  0  2.124403  0  -1.166254  0  -0.326529  -0.54074  0  2.14192  0
O  O104  1  0.01514611  0.78358224  0.28254248  1  0  -0.540213  0  2.04782  0  0  -0.492394  0  2.25215  0  0  -0.516073  0  2.236115  0  -1.156497  0  -0.315932  -0.476  0  2.262881  0
O  O105  1  0.98485309  0.21641755  0.71745652  1  0  -0.540226  0  2.047772  0  0  -0.492412  0  2.25212  0  0  -0.516093  0  2.236086  0  -1.156498  0  -0.315933  -0.476018  0  2.262851  0
O  O106  1  0.39322947  0.02844317  0.59303282  1  0  -0.481351  0  2.03506  0  0  -0.437522  0  2.256794  0  0  -0.458606  0  2.250397  0  -1.124973  0  -0.230877  -0.423361  0  2.261563  0
O  O107  1  0.60676844  0.97155964  0.40696576  1  0  -0.48131  0  2.035095  0  0  -0.437459  0  2.256815  0  0  -0.458545  0  2.250418  0  -1.124911  0  -0.230882  -0.423299  0  2.261576  0
O  O108  1  0.99978874  0.81744306  0.53412342  1  0  -0.460828  0  1.988617  0  0  -0.436337  0  2.21766  0  0  -0.452183  0  2.207812  0  -1.104726  0  -0.271274  -0.4258  0  2.224664  0
O  O109  1  0.00020906  0.18256276  0.46587658  1  0  -0.460857  0  1.988543  0  0  -0.436404  0  2.217655  0  0  -0.452248  0  2.207807  0  -1.104722  0  -0.271279  -0.425864  0  2.224658  0
O  O110  1  0.23328268  0.26728215  0.59872582  1  0  -0.851878  0  1.876658  0  0  -0.798624  0  2.045295  0  0  -0.816936  0  2.011772  0  -1.280615  0  -0.602632  -0.785553  0  2.069571  0
O  O111  1  0.76671652  0.73271764  0.40127449  1  0  -0.851855  0  1.876699  0  0  -0.798604  0  2.045337  0  0  -0.816919  0  2.011812  0  -1.28061  0  -0.602622  -0.785533  0  2.069614  0
O  O112  1  0.56018775  0.97004592  0.11300379  1  0  -0.419318  0  1.944712  0  0  -0.394071  0  2.156336  0  0  -0.410494  0  2.149086  0  -1.077332  0  -0.229424  -0.382962  0  2.160969  0
O  O113  1  0.43981145  0.02995388  0.88699521  1  0  -0.419374  0  1.944732  0  0  -0.394144  0  2.156344  0  0  -0.410563  0  2.149089  0  -1.077383  0  -0.229429  -0.383034  0  2.160979  0
O  O114  1  0.17563627  0.72436501  0.07478820  1  0  -0.449132  0  1.938494  0  0  -0.413975  0  2.148333  0  0  -0.432084  0  2.142616  0  -1.116298  0  -0.233784  -0.401678  0  2.1521  0
O  O115  1  0.82435949  0.27563177  0.92521165  1  0  -0.449105  0  1.938684  0  0  -0.413982  0  2.148493  0  0  -0.432084  0  2.142765  0  -1.11629  0  -0.233816  -0.401686  0  2.152266  0
O  O116  1  0.17774910  0.94662036  0.56243595  1  0  -0.323349  0  2.189109  0  0  -0.258846  0  2.41158  0  0  -0.279682  0  2.404874  0  -0.998586  0  -0.109722  -0.244417  0  2.416239  0
O  O117  1  0.82225010  0.05337944  0.43756696  1  0  -0.32332  0  2.189015  0  0  -0.258872  0  2.411531  0  0  -0.279707  0  2.404822  0  -0.998272  0  -0.109664  -0.24444  0  2.416184  0
