# generated using pymatgen
data_ZnH14C12(N2O)6
_symmetry_space_group_name_H-M   'P 1'
_cell_length_a   7.44765744
_cell_length_b   8.63023027
_cell_length_c   14.68698166
_cell_angle_alpha   90.00418751
_cell_angle_beta   84.20882442
_cell_angle_gamma   89.99210923
_symmetry_Int_Tables_number   1
_chemical_formula_structural   ZnH14C12(N2O)6
_chemical_formula_sum   'Zn2 H28 C24 N24 O12'
_cell_volume   939.18775510
_cell_formula_units_Z   2
loop_
 _symmetry_equiv_pos_site_id
 _symmetry_equiv_pos_as_xyz
  1  'x, y, z'
loop_
 _atom_site_type_symbol
 _atom_site_label
 _atom_site_symmetry_multiplicity
 _atom_site_fract_x
 _atom_site_fract_y
 _atom_site_fract_z
 _atom_site_occupancy
 _atom_site_hle17_bader_spin_density
 _atom_site_hle17_ddec_charge
 _atom_site_hle17_ddec_spin_density
 _atom_site_hle17_ddec_sum_bond_order
 _atom_site_hle17_magmom
 _atom_site_hse06_10hf_bader_spin_density
 _atom_site_hse06_10hf_ddec_charge
 _atom_site_hse06_10hf_ddec_spin_density
 _atom_site_hse06_10hf_ddec_sum_bond_order
 _atom_site_hse06_10hf_magmom
 _atom_site_hse06_bader_spin_density
 _atom_site_hse06_ddec_charge
 _atom_site_hse06_ddec_spin_density
 _atom_site_hse06_ddec_sum_bond_order
 _atom_site_hse06_magmom
 _atom_site_pbe_bader_spin_density
 _atom_site_pbe_cm5_charge
 _atom_site_pbe_ddec_charge
 _atom_site_pbe_ddec_spin_density
 _atom_site_pbe_ddec_sum_bond_order
 _atom_site_pbe_magmom
Zn  Zn0  1  0.73693351  0.05447099  0.75184956  1  0  0.985516  0  1.881702  0  0  0.804992  0  2.318574  0  0  0.846319  0  2.276161  0  0  0.689385  0.776321  0  2.347426  0
Zn  Zn1  1  0.26308822  0.55448714  0.24815410  1  0  0.98553  0  1.881616  0  0  0.804995  0  2.318532  0  0  0.846321  0  2.27611  0  0  0.689381  0.776316  0  2.347381  0
H  H2  1  0.05729860  0.90923461  0.74709941  1  0  0.425662  0  0.885566  0  0  0.389505  0  0.95786  0  0  0.401747  0  0.940216  0  0  0.283395  0.380888  0  0.970254  0
H  H3  1  0.94266685  0.40928280  0.25291865  1  0  0.425686  0  0.88551  0  0  0.389536  0  0.957777  0  0  0.401779  0  0.940142  0  0  0.283477  0.380919  0  0.970172  0
H  H4  1  0.08264130  0.02116354  0.65857513  1  0  0.429632  0  0.812757  0  0  0.407705  0  0.87607  0  0  0.416839  0  0.865039  0  0  0.317669  0.401198  0  0.883962  0
H  H5  1  0.91726966  0.52137110  0.34139159  1  0  0.429651  0  0.812907  0  0  0.407826  0  0.876089  0  0  0.416948  0  0.865075  0  0  0.317612  0.401328  0  0.883969  0
H  H6  1  0.40308676  0.09929228  0.85105065  1  0  0.423836  0  0.819795  0  0  0.401124  0  0.885002  0  0  0.410084  0  0.874292  0  0  0.315468  0.394763  0  0.892635  0
H  H7  1  0.59701083  0.59904237  0.14898316  1  0  0.423954  0  0.819915  0  0  0.401127  0  0.885198  0  0  0.410078  0  0.874512  0  0  0.315576  0.394769  0  0.892816  0
H  H8  1  0.41886768  0.19921335  0.75869736  1  0  0.424703  0  0.886626  0  0  0.38907  0  0.95827  0  0  0.401349  0  0.940601  0  0  0.283618  0.380447  0  0.970659  0
H  H9  1  0.58115113  0.69914030  0.24129128  1  0  0.424666  0  0.886683  0  0  0.38909  0  0.958259  0  0  0.401378  0  0.94057  0  0  0.283634  0.380466  0  0.970651  0
H  H10  1  0.09656672  0.26612252  0.76540832  1  0  0.120446  0  0.96498  0  0  0.126588  0  1.030966  0  0  0.130116  0  1.026761  0  0  0.143006  0.123893  0  1.034115  0
H  H11  1  0.90346312  0.76618120  0.23456609  1  0  0.120164  0  0.965188  0  0  0.126372  0  1.031131  0  0  0.129908  0  1.026909  0  0  0.142904  0.123679  0  1.034281  0
H  H12  1  0.56718401  0.39147592  0.86363052  1  0  0.093577  0  0.972253  0  0  0.095643  0  1.044304  0  0  0.09891  0  1.040425  0  0  0.12862  0.093191  0  1.047256  0
H  H13  1  0.43282393  0.89143989  0.13637305  1  0  0.093594  0  0.972442  0  0  0.095737  0  1.044423  0  0  0.099014  0  1.040525  0  0  0.128613  0.09328  0  1.047382  0
H  H14  1  0.25751332  0.48645634  0.82621372  1  0  0.106774  0  0.956872  0  0  0.109901  0  1.025679  0  0  0.113515  0  1.022568  0  0  0.144205  0.107275  0  1.027962  0
H  H15  1  0.74247163  0.98650308  0.17379396  1  0  0.106914  0  0.956528  0  0  0.109949  0  1.025465  0  0  0.113573  0  1.022346  0  0  0.144281  0.107327  0  1.027746  0
H  H16  1  0.05395855  0.64447483  0.05832543  1  0  0.110928  0  0.927249  0  0  0.117753  0  0.992324  0  0  0.120477  0  0.988264  0  0  0.146353  0.115721  0  0.995243  0
H  H17  1  0.94599898  0.14446111  0.94167441  1  0  0.110856  0  0.927471  0  0  0.117683  0  0.992522  0  0  0.120403  0  0.988465  0  0  0.146376  0.115654  0  0.99544  0
H  H18  1  0.42754551  0.28750540  0.08981665  1  0  0.101815  0  0.919428  0  0  0.110485  0  0.979524  0  0  0.112518  0  0.977367  0  0  0.137511  0.108941  0  0.981134  0
H  H19  1  0.57249764  0.78752604  0.91017237  1  0  0.101857  0  0.919303  0  0  0.110465  0  0.979469  0  0  0.112503  0  0.977299  0  0  0.137422  0.108919  0  0.981082  0
H  H20  1  0.84823623  0.35175428  0.60466840  1  0  0.097801  0  0.934087  0  0  0.104027  0  0.998488  0  0  0.10621  0  0.996032  0  0  0.135061  0.102416  0  1.000251  0
H  H21  1  0.15172518  0.85180908  0.39532277  1  0  0.097743  0  0.933783  0  0  0.103928  0  0.998279  0  0  0.106114  0  0.995813  0  0  0.135054  0.10228  0  1.00008  0
H  H22  1  0.59990078  0.92918997  0.54850067  1  0  0.111235  0  0.949141  0  0  0.116513  0  1.016348  0  0  0.119031  0  1.01314  0  0  0.144113  0.114568  0  1.018669  0
H  H23  1  0.40016635  0.42923020  0.45148981  1  0  0.111345  0  0.948878  0  0  0.116561  0  1.016182  0  0  0.119106  0  1.012933  0  0  0.144121  0.114578  0  1.018568  0
H  H24  1  0.78386318  0.12108761  0.32638050  1  0  0.104869  0  0.949267  0  0  0.108945  0  1.017234  0  0  0.112471  0  1.014013  0  0  0.143013  0.106445  0  1.019673  0
H  H25  1  0.21611719  0.62117171  0.67362100  1  0  0.104498  0  0.949529  0  0  0.108591  0  1.01758  0  0  0.112062  0  1.014357  0  0  0.142807  0.106128  0  1.02004  0
H  H26  1  0.62673058  0.34406034  0.26489370  1  0  0.122019  0  0.961999  0  0  0.128799  0  1.026638  0  0  0.132244  0  1.022478  0  0  0.143708  0.12628  0  1.029811  0
H  H27  1  0.37322066  0.84413727  0.73514002  1  0  0.122055  0  0.961646  0  0  0.128832  0  1.026314  0  0  0.132279  0  1.022162  0  0  0.143732  0.126311  0  1.029492  0
H  H28  1  0.09333063  0.21326898  0.35045779  1  0  0.100671  0  0.94249  0  0  0.105591  0  1.009451  0  0  0.108664  0  1.005619  0  0  0.134318  0.103381  0  1.012274  0
H  H29  1  0.90663007  0.71323919  0.64955867  1  0  0.100664  0  0.942392  0  0  0.105636  0  1.009312  0  0  0.108708  0  1.005474  0  0  0.134317  0.103432  0  1.012124  0
C  C30  1  0.97965687  0.32590616  0.79842377  1  0  0.168768  0  3.629816  0  0  0.102253  0  3.897377  0  0  0.116882  0  3.907728  0  0  0.159182  0.09284  0  3.890235  0
C  C31  1  0.02037142  0.82594015  0.20156401  1  0  0.169329  0  3.629435  0  0  0.102727  0  3.897026  0  0  0.117356  0  3.907374  0  0  0.159404  0.093312  0  3.889882  0
C  C32  1  0.71278365  0.39319178  0.84953079  1  0  0.21285  0  3.672284  0  0  0.162466  0  3.959296  0  0  0.173843  0  3.970091  0  0  0.146578  0.155028  0  3.952001  0
C  C33  1  0.28725142  0.89318513  0.15047968  1  0  0.212787  0  3.671772  0  0  0.162325  0  3.958737  0  0  0.173705  0  3.969526  0  0  0.146429  0.154885  0  3.951448  0
C  C34  1  0.14707194  0.53065540  0.87515104  1  0  0.034591  0  3.602293  0  0  -0.014783  0  3.849705  0  0  -0.010474  0  3.858308  0  0  0.125992  -0.017708  0  3.844105  0
C  C35  1  0.85289527  0.03070840  0.12484985  1  0  0.034288  0  3.602868  0  0  -0.014951  0  3.850078  0  0  -0.010652  0  3.858688  0  0  0.126076  -0.01789  0  3.844476  0
C  C36  1  0.14768502  0.54921605  0.04710382  1  0  0.229984  0  3.606159  0  0  0.157603  0  3.879118  0  0  0.175638  0  3.886658  0  0  0.177863  0.145808  0  3.87394  0
C  C37  1  0.85229858  0.04923135  0.95290070  1  0  0.23046  0  3.606608  0  0  0.158  0  3.879591  0  0  0.176042  0  3.887127  0  0  0.177892  0.146202  0  3.874413  0
C  C38  1  0.33639476  0.36650734  0.06023565  1  0  0.226541  0  3.690075  0  0  0.171184  0  3.979411  0  0  0.184205  0  3.990327  0  0  0.154171  0.162702  0  3.971901  0
C  C39  1  0.66364549  0.86653263  0.93975984  1  0  0.226381  0  3.690306  0  0  0.171091  0  3.979532  0  0  0.184109  0  3.990449  0  0  0.154177  0.162612  0  3.972023  0
C  C40  1  0.13788500  0.70997688  0.85985611  1  0  0.622447  0  3.942696  0  0  0.567348  0  4.265694  0  0  0.599531  0  4.258995  0  0  0.200924  0.545526  0  4.269378  0
C  C41  1  0.86210943  0.21001235  0.14016439  1  0  0.622387  0  3.943225  0  0  0.567425  0  4.265935  0  0  0.599618  0  4.259217  0  0  0.200887  0.545607  0  4.269619  0
C  C42  1  0.79239204  0.25638276  0.56890779  1  0  0.229516  0  3.689547  0  0  0.175001  0  3.979631  0  0  0.187846  0  3.990541  0  0  0.152132  0.166636  0  3.972128  0
C  C43  1  0.20758999  0.75644756  0.43108888  1  0  0.229908  0  3.689085  0  0  0.175361  0  3.979227  0  0  0.188211  0  3.99013  0  0  0.152219  0.167024  0  3.971737  0
C  C44  1  0.66353823  0.04172886  0.54409419  1  0  0.215528  0  3.612321  0  0  0.145535  0  3.879264  0  0  0.162771  0  3.888017  0  0  0.173745  0.134479  0  3.873138  0
C  C45  1  0.33647136  0.54177455  0.45590639  1  0  0.215613  0  3.612069  0  0  0.145445  0  3.878933  0  0  0.162651  0  3.887705  0  0  0.1737  0.134412  0  3.872791  0
C  C46  1  0.67039476  0.07410694  0.37242565  1  0  0.039347  0  3.597763  0  0  -0.011049  0  3.846248  0  0  -0.006573  0  3.854787  0  0  0.127221  -0.015181  0  3.841444  0
C  C47  1  0.32958297  0.57416880  0.62756729  1  0  0.040218  0  3.597001  0  0  -0.010647  0  3.845971  0  0  -0.005916  0  3.854125  0  0  0.127351  -0.014951  0  3.841422  0
C  C48  1  0.50841985  0.28270379  0.29496200  1  0  0.176241  0  3.617584  0  0  0.108784  0  3.885778  0  0  0.123799  0  3.895774  0  0  0.162442  0.097935  0  3.879598  0
C  C49  1  0.49156881  0.78276476  0.70505280  1  0  0.176097  0  3.617387  0  0  0.108577  0  3.885558  0  0  0.123589  0  3.895582  0  0  0.162545  0.097727  0  3.879366  0
C  C50  1  0.23937514  0.21304912  0.34014361  1  0  0.211465  0  3.676268  0  0  0.161047  0  3.963609  0  0  0.17261  0  3.97429  0  0  0.15036  0.153616  0  3.956602  0
C  C51  1  0.76060840  0.71304191  0.65986143  1  0  0.211422  0  3.676083  0  0  0.160896  0  3.963472  0  0  0.172466  0  3.974143  0  0  0.150296  0.153466  0  3.956472  0
C  C52  1  0.66582148  0.89541064  0.35418665  1  0  0.623048  0  3.94448  0  0  0.568448  0  4.266519  0  0  0.600485  0  4.2599  0  0  0.203296  0.546832  0  4.270251  0
C  C53  1  0.33418808  0.39547135  0.64579640  1  0  0.623367  0  3.944459  0  0  0.568699  0  4.266634  0  0  0.600695  0  4.259995  0  0  0.203442  0.547111  0  4.270378  0
N  N54  1  0.98585483  0.45279165  0.85138767  1  0  0.018691  0  3.583127  0  0  0.098081  0  3.820142  0  0  0.086225  0  3.844818  0  0  -0.132225  0.10576  0  3.803628  0
N  N55  1  0.01413782  0.95281150  0.14860569  1  0  0.018948  0  3.582815  0  0  0.098324  0  3.819808  0  0  0.086475  0  3.84448  0  0  -0.132306  0.106005  0  3.803293  0
N  N56  1  0.81640687  0.49777487  0.88469788  1  0  -0.249985  0  2.81531  0  0  -0.246908  0  3.092602  0  0  -0.253426  0  3.104853  0  0  -0.219242  -0.24269  0  3.084492  0
N  N57  1  0.18358182  0.99777837  0.11530625  1  0  -0.250178  0  2.814963  0  0  -0.247104  0  3.092273  0  0  -0.253626  0  3.104529  0  0  -0.219166  -0.242889  0  3.084164  0
N  N58  1  0.80769661  0.28499917  0.79566718  1  0  -0.40468  0  3.202114  0  0  -0.330602  0  3.485387  0  0  -0.351222  0  3.498762  0  0  -0.339095  -0.316725  0  3.475955  0
N  N59  1  0.19232973  0.78500575  0.20433177  1  0  -0.404901  0  3.201958  0  0  -0.330755  0  3.485244  0  0  -0.351382  0  3.498627  0  0  -0.339165  -0.316865  0  3.475785  0
N  N60  1  0.19306544  0.48479885  0.96477675  1  0  0.014454  0  3.546973  0  0  0.096112  0  3.777418  0  0  0.08328  0  3.801966  0  0  -0.131135  0.104405  0  3.760963  0
N  N61  1  0.80692963  0.98484431  0.03522730  1  0  0.013974  0  3.547874  0  0  0.09561  0  3.778334  0  0  0.082771  0  3.802887  0  0  -0.131296  0.103917  0  3.761868  0
N  N62  1  0.31375189  0.36646538  0.97195132  1  0  -0.284307  0  2.848928  0  0  -0.272222  0  3.12314  0  0  -0.280955  0  3.135236  0  0  -0.223711  -0.266447  0  3.115144  0
N  N63  1  0.68627361  0.86653403  0.02804381  1  0  -0.283962  0  2.84912  0  0  -0.271921  0  3.123314  0  0  -0.280645  0  3.135407  0  0  -0.223591  -0.266149  0  3.115312  0
N  N64  1  0.23717686  0.47765191  0.10922653  1  0  -0.404429  0  3.185641  0  0  -0.328576  0  3.468184  0  0  -0.350406  0  3.481116  0  0  -0.334231  -0.313956  0  3.459124  0
N  N65  1  0.76284256  0.97767066  0.89077566  1  0  -0.404448  0  3.185859  0  0  -0.328488  0  3.46824  0  0  -0.350322  0  3.48118  0  0  -0.3341  -0.313871  0  3.459183  0
N  N66  1  0.70333539  0.11714013  0.46463143  1  0  0.013917  0  3.560231  0  0  0.096673  0  3.789367  0  0  0.083864  0  3.814285  0  0  -0.131065  0.10511  0  3.772746  0
N  N67  1  0.29665955  0.61722137  0.53536635  1  0  0.013008  0  3.560201  0  0  0.096424  0  3.788739  0  0  0.083561  0  3.813604  0  0  -0.131263  0.104891  0  3.772155  0
N  N68  1  0.78555466  0.25574604  0.47914637  1  0  -0.285945  0  2.820998  0  0  -0.279075  0  3.095023  0  0  -0.287277  0  3.107034  0  0  -0.230533  -0.273627  0  3.087038  0
N  N69  1  0.21441979  0.75584561  0.52084705  1  0  -0.285686  0  2.820638  0  0  -0.279012  0  3.094559  0  0  -0.287222  0  3.106576  0  0  -0.230404  -0.273562  0  3.086563  0
N  N70  1  0.71958231  0.12649446  0.61181879  1  0  -0.40417  0  3.182726  0  0  -0.327259  0  3.463581  0  0  -0.34912  0  3.476549  0  0  -0.334043  -0.312575  0  3.454397  0
N  N71  1  0.28042015  0.62653514  0.38818083  1  0  -0.404402  0  3.182543  0  0  -0.327374  0  3.463359  0  0  -0.349239  0  3.476333  0  0  -0.334081  -0.312678  0  3.454136  0
N  N72  1  0.51147750  0.15304328  0.34588984  1  0  0.017166  0  3.571099  0  0  0.097085  0  3.80747  0  0  0.085185  0  3.831955  0  0  -0.129938  0.106569  0  3.791064  0
N  N73  1  0.48851722  0.65311468  0.65410026  1  0  0.017114  0  3.570118  0  0  0.097142  0  3.806626  0  0  0.085174  0  3.831067  0  0  -0.130137  0.106668  0  3.790251  0
N  N74  1  0.34055194  0.10710500  0.37571784  1  0  -0.249799  0  2.831605  0  0  -0.244675  0  3.108346  0  0  -0.251446  0  3.120678  0  0  -0.215653  -0.241306  0  3.100671  0
N  N75  1  0.65945473  0.60710872  0.62427565  1  0  -0.249648  0  2.830826  0  0  -0.244544  0  3.107579  0  0  -0.251314  0  3.119922  0  0  -0.215473  -0.241173  0  3.099898  0
N  N76  1  0.33712271  0.32355900  0.28964054  1  0  -0.401455  0  3.201867  0  0  -0.329467  0  3.488211  0  0  -0.349872  0  3.501044  0  0  -0.338204  -0.315533  0  3.479407  0
N  N77  1  0.66287965  0.82358524  0.71036624  1  0  -0.401588  0  3.201877  0  0  -0.329455  0  3.488132  0  0  -0.349873  0  3.500976  0  0  -0.338234  -0.315528  0  3.479353  0
O  O78  1  0.08659606  0.74072673  0.78134808  1  0  -0.647153  0  2.033585  0  0  -0.592685  0  2.270106  0  0  -0.619378  0  2.261598  0  0  -0.326538  -0.57374  0  2.275256  0
O  O79  1  0.91335659  0.24078693  0.21867182  1  0  -0.64694  0  2.034034  0  0  -0.592636  0  2.270606  0  0  -0.619335  0  2.262097  0  0  -0.32649  -0.573691  0  2.275758  0
O  O80  1  0.18967974  0.79924531  0.91814958  1  0  -0.596247  0  1.901058  0  0  -0.562497  0  2.124062  0  0  -0.584298  0  2.117749  0  0  -0.332682  -0.547056  0  2.127759  0
O  O81  1  0.81026855  0.29927913  0.08187489  1  0  -0.596468  0  1.900888  0  0  -0.562774  0  2.123834  0  0  -0.584574  0  2.117496  0  0  -0.332841  -0.547335  0  2.127537  0
O  O82  1  0.72671697  0.80490080  0.40923457  1  0  -0.596931  0  1.887839  0  0  -0.562439  0  2.105069  0  0  -0.583787  0  2.098262  0  0  -0.336466  -0.547276  0  2.109049  0
O  O83  1  0.27332320  0.30502310  0.59072919  1  0  -0.597039  0  1.88878  0  0  -0.562445  0  2.106009  0  0  -0.583769  0  2.099166  0  0  -0.336451  -0.54729  0  2.109991  0
O  O84  1  0.60931396  0.86666886  0.27665943  1  0  -0.642523  0  2.039897  0  0  -0.589072  0  2.27737  0  0  -0.615416  0  2.268724  0  0  -0.326007  -0.570524  0  2.282807  0
O  O85  1  0.39077677  0.36673030  0.72331721  1  0  -0.642874  0  2.039305  0  0  -0.589336  0  2.276832  0  0  -0.615682  0  2.268148  0  0  -0.326065  -0.570758  0  2.282242  0
O  O86  1  0.02317419  0.01330293  0.72057328  1  0  -0.826864  0  1.909319  0  0  -0.770052  0  2.125296  0  0  -0.790177  0  2.094253  0  0  -0.571925  -0.75584  0  2.146796  0
O  O87  1  0.97682068  0.51337234  0.27941277  1  0  -0.826963  0  1.90935  0  0  -0.770282  0  2.12529  0  0  -0.790392  0  2.094278  0  0  -0.571975  -0.756093  0  2.146751  0
O  O88  1  0.45114122  0.09578964  0.78689421  1  0  -0.819386  0  1.902444  0  0  -0.762784  0  2.11708  0  0  -0.782751  0  2.086212  0  0  -0.570634  -0.748655  0  2.138349  0
O  O89  1  0.54885368  0.59569584  0.21312619  1  0  -0.819546  0  1.902999  0  0  -0.762768  0  2.117743  0  0  -0.782738  0  2.086871  0  0  -0.570707  -0.748639  0  2.139022  0
