# generated using pymatgen
data_CuH7C16N9
_symmetry_space_group_name_H-M   'P 1'
_cell_length_a   7.48269071
_cell_length_b   10.91520425
_cell_length_c   11.36011915
_cell_angle_alpha   115.50972374
_cell_angle_beta   88.27366342
_cell_angle_gamma   110.43348892
_symmetry_Int_Tables_number   1
_chemical_formula_structural   CuH7C16N9
_chemical_formula_sum   'Cu2 H14 C32 N18'
_cell_volume   776.72640866
_cell_formula_units_Z   2
loop_
 _symmetry_equiv_pos_site_id
 _symmetry_equiv_pos_as_xyz
  1  'x, y, z'
loop_
 _atom_site_type_symbol
 _atom_site_label
 _atom_site_symmetry_multiplicity
 _atom_site_fract_x
 _atom_site_fract_y
 _atom_site_fract_z
 _atom_site_occupancy
 _atom_site_hle17_ddec_charge
 _atom_site_hle17_ddec_spin_density
 _atom_site_hle17_ddec_sum_bond_order
 _atom_site_hle17_magmom
 _atom_site_hse06_10hf_ddec_charge
 _atom_site_hse06_10hf_ddec_spin_density
 _atom_site_hse06_10hf_ddec_sum_bond_order
 _atom_site_hse06_10hf_magmom
 _atom_site_hse06_ddec_charge
 _atom_site_hse06_ddec_spin_density
 _atom_site_hse06_ddec_sum_bond_order
 _atom_site_hse06_magmom
 _atom_site_pbe_cm5_charge
 _atom_site_pbe_ddec_charge
 _atom_site_pbe_ddec_spin_density
 _atom_site_pbe_ddec_sum_bond_order
 _atom_site_pbe_magmom
Cu  Cu0  1  0.43417941  0.34955974  0.74238356  1  0.827503  0.708269  2.054878  0.472  0.832045  0.820843  2.468947  0.631  0.914758  0.899082  2.399544  0.721  0.818861  0.77748  0.751672  2.52046  0.559
Cu  Cu1  1  0.56581593  0.65043903  0.25761880  1  0.827261  -0.708154  2.055006  -0.472  0.831955  -0.820812  2.469177  -0.631  0.914713  -0.899071  2.399657  -0.721  0.818914  0.777404  -0.751654  2.520734  -0.56
H  H2  1  0.43203687  0.05651417  0.72666752  1  0.090046  0.001374  0.988564  0.002  0.096106  0.001321  1.058668  0.002  0.097622  0.000867  1.056382  0.001  0.116493  0.094132  0.001679  1.060655  0.003
H  H3  1  0.56796115  0.94348692  0.27332875  1  0.090086  -0.001374  0.988517  -0.002  0.096165  -0.001321  1.058566  -0.002  0.097681  -0.000868  1.056279  -0.001  0.116503  0.094189  -0.001679  1.060552  -0.003
H  H4  1  0.31708647  0.56825637  0.63277294  1  0.114719  0.000324  0.950344  0.001  0.125608  0.000508  1.006487  0.001  0.127197  0.000336  1.00609  0.001  0.120778  0.123428  0.000621  1.007871  0.001
H  H5  1  0.68291583  0.43175119  0.36723130  1  0.114622  -0.000317  0.950614  -0.001  0.125571  -0.000507  1.006666  -0.001  0.127166  -0.000336  1.006269  -0.001  0.120745  0.123393  -0.00062  1.008055  -0.001
H  H6  1  0.09311682  0.92929744  0.30026053  1  0.118034  0.000607  0.960527  0.001  0.127775  0.000697  1.024546  0.001  0.130181  0.00046  1.024392  0.001  0.110291  0.125501  0.000862  1.024932  0.001
H  H7  1  0.90688442  0.07070246  0.69974226  1  0.118044  -0.000605  0.960448  -0.001  0.127755  -0.000697  1.024508  -0.001  0.130164  -0.00046  1.024347  -0.001  0.110259  0.125484  -0.000862  1.024894  -0.001
H  H8  1  0.11304824  0.41558927  0.37669140  1  0.120161  0.000856  0.973852  0.001  0.127521  0.000884  1.037496  0.001  0.129836  0.000627  1.03645  0.001  0.123012  0.125291  0.001026  1.038812  0.001
H  H9  1  0.88695592  0.58441075  0.62330527  1  0.120193  -0.000856  0.97394  -0.001  0.127513  -0.000884  1.037619  -0.001  0.12981  -0.000627  1.036594  -0.001  0.122984  0.125289  -0.001026  1.038935  -0.001
H  H10  1  0.29173719  0.79610255  0.56366525  1  0.113047  0.000597  0.925703  0.001  0.128987  0.000695  0.975179  0.001  0.131444  0.000474  0.974826  0.0  0.11419  0.125943  0.000863  0.977485  0.001
H  H11  1  0.70826591  0.20389845  0.43633799  1  0.113066  -0.000594  0.925763  -0.001  0.128955  -0.000695  0.975292  -0.001  0.131438  -0.000475  0.974906  0.0  0.114182  0.125913  -0.000863  0.977599  -0.001
H  H12  1  0.07529933  0.15123837  0.29997307  1  0.312675  0.000317  0.925515  0.001  0.292631  0.000384  0.991937  0.001  0.301297  0.000282  0.984744  0.001  0.31132  0.285796  0.000429  0.9976  0.001
H  H13  1  0.92470567  0.84876375  0.70002976  1  0.312681  -0.000316  0.925444  -0.001  0.292635  -0.000383  0.991875  -0.001  0.301295  -0.000283  0.984686  -0.001  0.311328  0.285804  -0.00043  0.997534  -0.001
H  H14  1  0.11512651  0.72833249  0.34528373  1  0.096897  0.000453  0.934122  0.001  0.110313  0.000141  0.988883  0.0  0.111261  7e-05  0.989301  0.0  0.110023  0.109324  0.000215  0.988948  0.0
H  H15  1  0.88487322  0.27166416  0.65471596  1  0.096925  -0.000448  0.934185  -0.001  0.110337  -0.000141  0.988945  0.0  0.111284  -7e-05  0.989364  0.0  0.110047  0.109335  -0.000215  0.989031  0.0
C  C16  1  0.16693538  0.95281967  0.39299158  1  -0.123674  0.007334  3.671782  0.007  -0.143591  0.003302  3.917855  0.004  -0.149888  0.00278  3.937557  0.003  -0.078382  -0.139888  0.003502  3.905165  0.004
C  C17  1  0.83306233  0.04717811  0.60700507  1  -0.123667  -0.007327  3.671618  -0.007  -0.143579  -0.003303  3.917691  -0.004  -0.149876  -0.002778  3.937394  -0.003  -0.078373  -0.139877  -0.003501  3.904998  -0.004
C  C18  1  0.35496037  0.02479680  0.63217325  1  0.142556  -0.006644  3.6931  -0.007  0.116748  -0.000536  3.944839  -0.002  0.12767  -0.001764  3.963107  -0.003  0.05304  0.10981  0.000463  3.932668  -0.001
C  C19  1  0.64503429  0.97520628  0.36783356  1  0.142321  0.006634  3.693198  0.007  0.116569  0.000536  3.944875  0.002  0.127487  0.001765  3.963158  0.003  0.052956  0.109632  -0.000463  3.9327  0.001
C  C20  1  0.27684080  0.87844783  0.53908835  1  -0.107786  0.01106  3.694969  0.011  -0.124823  0.005083  3.948448  0.006  -0.130588  0.004044  3.966524  0.005  -0.080366  -0.12113  0.005636  3.937368  0.006
C  C21  1  0.72316329  0.12156081  0.46091808  1  -0.107589  -0.011048  3.6953  -0.011  -0.124612  -0.005083  3.948744  -0.006  -0.130397  -0.004041  3.966816  -0.005  -0.080294  -0.120919  -0.005635  3.937656  -0.006
C  C22  1  0.18065361  0.84224178  0.41852712  1  0.005851  -0.007984  3.706186  -0.007  -0.016536  -0.002631  3.963739  -0.003  -0.012135  -0.002667  3.981327  -0.003  -0.065528  -0.019213  -0.002485  3.951976  -0.002
C  C23  1  0.81935346  0.15776153  0.58147091  1  0.005834  0.007959  3.706308  0.007  -0.016562  0.002629  3.963874  0.003  -0.012165  0.002664  3.981473  0.003  -0.06548  -0.019225  0.002485  3.952114  0.002
C  C24  1  0.24788465  0.09699234  0.49095867  1  0.151491  -0.003221  3.813423  -0.003  0.154253  0.000574  4.056929  0.0  0.162886  -0.000575  4.076519  -0.001  0.119313  0.148347  0.00132  4.044138  0.001
C  C25  1  0.75211105  0.90300428  0.50904103  1  0.151467  0.003218  3.8135  0.003  0.154293  -0.000573  4.056928  0.0  0.162924  0.000579  4.07652  0.001  0.119324  0.148391  -0.001321  4.044142  -0.001
C  C26  1  0.23968964  0.22419383  0.48451652  1  0.266221  -0.001932  3.784825  -0.001  0.235694  0.000203  4.048009  0.001  0.249173  -0.000801  4.064206  -0.001  0.209166  0.227194  0.000948  4.037572  0.002
C  C27  1  0.76030964  0.77580723  0.51548149  1  0.266156  0.001937  3.785311  0.001  0.235613  -0.000206  4.048519  -0.001  0.249094  0.000801  4.064724  0.001  0.209147  0.227111  -0.000949  4.038085  -0.002
C  C28  1  0.17435702  0.38082596  0.43636854  1  0.014371  0.007002  3.635527  0.007  -0.020582  0.003913  3.885754  0.004  -0.020997  0.003095  3.907011  0.004  0.017363  -0.02074  0.004282  3.872836  0.005
C  C29  1  0.82565023  0.61916965  0.56363066  1  0.01435  -0.006996  3.635035  -0.007  -0.020553  -0.003917  3.885276  -0.004  -0.020952  -0.003097  3.906542  -0.004  0.017382  -0.020713  -0.004282  3.872361  -0.005
C  C30  1  0.27558267  0.45426706  0.56216874  1  0.018622  -0.00114  3.709661  -0.001  -0.009554  0.001602  3.974097  0.001  -0.006756  0.000637  3.998279  0.0  0.009314  -0.011238  0.002167  3.959601  0.002
C  C31  1  0.72441064  0.54571871  0.43782205  1  0.018634  0.001122  3.709352  0.001  -0.009581  -0.001598  3.973759  -0.001  -0.006789  -0.000635  3.997943  0.0  0.009315  -0.011265  -0.002166  3.959261  -0.002
C  C32  1  0.89417702  0.32377156  0.96799168  1  -0.238358  0.015573  4.057007  0.015  -0.223958  0.002051  4.292062  0.003  -0.2397  0.000765  4.307438  0.002  -0.037759  -0.211299  0.005133  4.280313  0.006
C  C33  1  0.10581248  0.67622379  0.03201546  1  -0.238512  -0.015589  4.057107  -0.015  -0.223986  -0.002048  4.292007  -0.003  -0.239722  -0.000772  4.307379  -0.002  -0.037683  -0.211334  -0.00513  4.280276  -0.006
C  C34  1  0.73624757  0.32240625  0.90481738  1  0.352187  -0.015193  3.820955  -0.012  0.347068  -0.001585  4.079419  0.002  0.370477  -0.002705  4.092083  0.001  0.212485  0.329489  -0.001117  4.071488  0.003
C  C35  1  0.26374550  0.67758806  0.09518754  1  0.352355  0.015194  3.820768  0.012  0.34719  0.001586  4.079221  -0.002  0.370598  0.002706  4.091877  -0.001  0.212573  0.329616  0.001116  4.071298  -0.003
C  C36  1  0.06136549  0.33344452  0.90805685  1  0.320891  -0.006993  3.851317  -0.007  0.318123  -0.001709  4.11341  -0.002  0.3371  -0.001554  4.129125  -0.002  0.194062  0.304529  -0.001904  4.102287  -0.002
C  C37  1  0.93862964  0.66654551  0.09194274  1  0.320988  0.006985  3.851616  0.007  0.318168  0.001708  4.113686  0.002  0.337139  0.001556  4.129399  0.002  0.193974  0.304577  0.001903  4.10257  0.002
C  C38  1  0.88955372  0.32430004  0.09209789  1  0.297377  -0.005372  3.848074  -0.006  0.285002  -0.000431  4.114171  -0.001  0.296688  -0.000303  4.132441  0.0  0.173134  0.275725  -0.000697  4.102179  -0.001
C  C39  1  0.11045883  0.67570422  0.90791107  1  0.297373  0.005369  3.847846  0.006  0.284963  0.000434  4.113898  0.001  0.29665  0.000304  4.132163  0.0  0.173075  0.275691  0.000696  4.101923  0.001
C  C40  1  0.62577295  0.68711447  0.87959963  1  0.343546  -0.036115  3.794693  -0.033  0.343142  -0.001545  4.077166  0.002  0.365972  -0.001698  4.096973  0.001  0.204957  0.325902  -0.001867  4.060338  0.001
C  C41  1  0.37422766  0.31287247  0.12038983  1  0.343294  0.036193  3.794263  0.034  0.342933  0.001543  4.076817  -0.002  0.365776  0.0017  4.096632  -0.001  0.204738  0.325692  0.001866  4.059994  -0.001
C  C42  1  0.67925150  0.83813305  0.94243256  1  -0.18754  0.079151  3.993395  0.073  -0.208111  0.009864  4.272059  0.01  -0.228552  0.003638  4.294844  0.004  -0.030424  -0.18806  0.02024  4.249826  0.02
C  C43  1  0.32076082  0.16187255  0.05756199  1  -0.187389  -0.079221  3.993361  -0.074  -0.208126  -0.009868  4.272186  -0.01  -0.228585  -0.003651  4.294974  -0.004  -0.030408  -0.188087  -0.020245  4.249984  -0.02
C  C44  1  0.80926909  0.92467152  0.05975551  1  0.331508  -0.025197  3.800994  -0.027  0.316836  -0.00096  4.092796  -0.002  0.331244  -0.000506  4.113582  -0.001  0.19833  0.305608  -0.001715  4.076036  -0.003
C  C45  1  0.19073063  0.07532426  0.94023060  1  0.331467  0.02518  3.800922  0.027  0.316829  0.00096  4.092752  0.002  0.331247  0.000507  4.113526  0.001  0.198496  0.305607  0.001713  4.076022  0.003
C  C46  1  0.61685455  0.90531218  0.87917210  1  0.286771  -0.02686  3.830793  -0.028  0.275886  -0.001312  4.130151  -0.002  0.290118  -0.000697  4.151152  -0.001  0.174637  0.265039  -0.002097  4.112362  -0.004
C  C47  1  0.38314728  0.09468567  0.12082192  1  0.286912  0.026859  3.830759  0.028  0.276064  0.001314  4.130146  0.002  0.290306  0.000699  4.151137  0.001  0.174697  0.265217  0.002095  4.11238  0.004
N  N48  1  0.33956664  0.13094368  0.60861920  1  -0.338158  0.085988  3.318025  0.099  -0.295382  0.070894  3.605001  0.093  -0.330195  0.055395  3.630374  0.077  -0.332281  -0.27531  0.076578  3.590657  0.096
N  N49  1  0.66043473  0.86905627  0.39138010  1  -0.33817  -0.085959  3.317972  -0.099  -0.295421  -0.070883  3.604936  -0.093  -0.330235  -0.055391  3.630293  -0.077  -0.332314  -0.275358  -0.07657  3.590615  -0.096
N  N50  1  0.31486435  0.35543675  0.59034722  1  -0.3898  0.081015  3.311995  0.093  -0.351537  0.069786  3.622575  0.091  -0.385695  0.056164  3.645254  0.078  -0.364539  -0.333173  0.073862  3.611564  0.092
N  N51  1  0.68513806  0.64456856  0.40966048  1  -0.38962  -0.081028  3.311967  -0.093  -0.351402  -0.069789  3.622645  -0.091  -0.38557  -0.056164  3.645319  -0.078  -0.364479  -0.333041  -0.073869  3.61165  -0.092
N  N52  1  0.60639515  0.31895000  0.84678943  1  -0.462702  0.050717  2.989006  0.056  -0.44389  0.039763  3.291012  0.049  -0.468528  0.035143  3.289579  0.045  -0.366462  -0.428323  0.041354  3.294541  0.049
N  N53  1  0.39359894  0.68104650  0.15321727  1  -0.462746  -0.050709  2.988971  -0.056  -0.44394  -0.039767  3.291057  -0.049  -0.468594  -0.035145  3.28962  -0.045  -0.366556  -0.428378  -0.041354  3.294609  -0.049
N  N54  1  0.19932480  0.34265850  0.85561194  1  -0.460673  0.008084  2.850107  0.01  -0.452123  0.000548  3.135887  0.002  -0.472183  -1e-06  3.140013  0.001  -0.350669  -0.43766  0.002089  3.133839  0.003
N  N55  1  0.80066784  0.65733707  0.14438382  1  -0.460683  -0.008071  2.850185  -0.01  -0.45214  -0.000548  3.135993  -0.002  -0.472205  3e-06  3.140107  -0.001  -0.350627  -0.437682  -0.002088  3.133959  -0.003
N  N56  1  0.88658262  0.32641537  0.19616843  1  -0.435716  0.008974  2.6045  0.009  -0.41502  0.000798  2.829563  0.001  -0.423369  0.000121  2.84083  0.0  -0.323573  -0.407686  0.002494  2.821855  0.003
N  N57  1  0.11343012  0.67359444  0.80383669  1  -0.435746  -0.008964  2.604285  -0.009  -0.41506  -0.000803  2.829382  -0.001  -0.423406  -0.000121  2.840643  0.0  -0.32357  -0.407726  -0.002493  2.821681  -0.003
N  N58  1  0.58713723  0.56057874  0.81947997  1  -0.442953  0.086158  2.96188  0.095  -0.457408  0.042779  3.285565  0.054  -0.488274  0.035643  3.289869  0.047  -0.374108  -0.433668  0.048218  3.28164  0.058
N  N59  1  0.41285975  0.43943428  0.18052395  1  -0.442867  -0.086304  2.961023  -0.095  -0.457386  -0.042795  3.284799  -0.054  -0.488275  -0.035651  3.289078  -0.047  -0.374052  -0.433643  -0.04824  3.280893  -0.058
N  N60  1  0.92037170  0.99838409  0.15636958  1  -0.431461  0.045383  2.696947  0.047  -0.430328  0.004567  2.955855  0.005  -0.446236  0.001634  2.969543  0.002  -0.311899  -0.415037  0.009857  2.943908  0.011
N  N61  1  0.07963552  0.00161927  0.84362495  1  -0.431356  -0.045358  2.697216  -0.047  -0.430218  -0.00457  2.956087  -0.005  -0.446126  -0.001635  2.969766  -0.002  -0.311975  -0.414938  -0.009851  2.944155  -0.011
N  N62  1  0.56637084  0.95984407  0.82448668  1  -0.405553  0.047818  2.610818  0.05  -0.413806  0.004622  2.86826  0.005  -0.429104  0.001569  2.883313  0.002  -0.31606  -0.398523  0.010192  2.854876  0.011
N  N63  1  0.43361219  0.04016229  0.17551629  1  -0.405582  -0.047818  2.610906  -0.05  -0.413854  -0.004629  2.868347  -0.005  -0.429154  -0.00157  2.883395  -0.002  -0.31609  -0.398578  -0.01019  2.854973  -0.011
N  N64  1  0.15479003  0.23714829  0.38923361  1  -0.300114  -0.001012  3.433346  -0.002  -0.227093  0.000338  3.646874  0.0  -0.242729  -3.9e-05  3.662658  0.0  -0.358712  -0.217593  0.000578  3.637644  0.0
N  N65  1  0.84520694  0.76285608  0.61076228  1  -0.30009  0.001012  3.433152  0.002  -0.227081  -0.000339  3.64669  0.0  -0.242713  3.9e-05  3.662475  0.0  -0.358744  -0.21758  -0.000579  3.637462  0.0
