# generated using pymatgen
data_ZnH18C10(NO4)2
_symmetry_space_group_name_H-M   'P 1'
_cell_length_a   7.99630852
_cell_length_b   8.51068858
_cell_length_c   11.83310428
_cell_angle_alpha   89.99988695
_cell_angle_beta   90.00014281
_cell_angle_gamma   113.63259138
_symmetry_Int_Tables_number   1
_chemical_formula_structural   ZnH18C10(NO4)2
_chemical_formula_sum   'Zn2 H36 C20 N4 O16'
_cell_volume   737.75529997
_cell_formula_units_Z   2
loop_
 _symmetry_equiv_pos_site_id
 _symmetry_equiv_pos_as_xyz
  1  'x, y, z'
loop_
 _atom_site_type_symbol
 _atom_site_label
 _atom_site_symmetry_multiplicity
 _atom_site_fract_x
 _atom_site_fract_y
 _atom_site_fract_z
 _atom_site_occupancy
 _atom_site_hle17_bader_spin_density
 _atom_site_hle17_ddec_charge
 _atom_site_hle17_ddec_spin_density
 _atom_site_hle17_ddec_sum_bond_order
 _atom_site_hle17_magmom
 _atom_site_hse06_10hf_bader_spin_density
 _atom_site_hse06_10hf_ddec_charge
 _atom_site_hse06_10hf_ddec_spin_density
 _atom_site_hse06_10hf_ddec_sum_bond_order
 _atom_site_hse06_10hf_magmom
 _atom_site_hse06_bader_spin_density
 _atom_site_hse06_ddec_charge
 _atom_site_hse06_ddec_spin_density
 _atom_site_hse06_ddec_sum_bond_order
 _atom_site_hse06_magmom
 _atom_site_pbe_bader_spin_density
 _atom_site_pbe_cm5_charge
 _atom_site_pbe_ddec_charge
 _atom_site_pbe_ddec_spin_density
 _atom_site_pbe_ddec_sum_bond_order
 _atom_site_pbe_magmom
Zn  Zn0  1  0.00000053  0.00000128  0.00000085  1  0  1.168006  0  1.71372  0  0  1.015929  0  2.154383  0  0  1.063158  0  2.095461  0  0  0.666171  0.982421  0  2.194956  0
Zn  Zn1  1  0.50000198  0.99999897  0.49999954  1  0  1.168034  0  1.713667  0  0  1.015966  0  2.154324  0  0  1.063195  0  2.0954  0  0  0.6662  0.982459  0  2.194898  0
H  H2  1  0.00203911  0.83403096  0.24430555  1  0  0.040821  0  0.955959  0  0  0.047684  0  1.030566  0  0  0.049523  0  1.025419  0  0  0.12195  0.046111  0  1.034436  0
H  H3  1  0.50203812  0.83402801  0.25569605  1  0  0.040843  0  0.955976  0  0  0.047713  0  1.030565  0  0  0.04955  0  1.025419  0  0  0.121974  0.046139  0  1.034435  0
H  H4  1  0.99796152  0.16597103  0.75569760  1  0  0.040822  0  0.955953  0  0  0.04769  0  1.030547  0  0  0.049528  0  1.025398  0  0  0.121969  0.046116  0  1.034419  0
H  H5  1  0.49796144  0.16597141  0.74430457  1  0  0.040794  0  0.955979  0  0  0.047666  0  1.030568  0  0  0.049504  0  1.025421  0  0  0.121949  0.046093  0  1.034439  0
H  H6  1  0.77746681  0.32323398  0.18316707  1  0  0.102126  0  0.961179  0  0  0.1212  0  1.027825  0  0  0.12175  0  1.027867  0  0  0.104561  0.120652  0  1.027949  0
H  H7  1  0.27746535  0.32323039  0.31683403  1  0  0.102156  0  0.961117  0  0  0.121219  0  1.027771  0  0  0.121768  0  1.027814  0  0  0.104595  0.120671  0  1.027896  0
H  H8  1  0.22253256  0.67676799  0.81683440  1  0  0.102115  0  0.961177  0  0  0.121193  0  1.027818  0  0  0.121742  0  1.027859  0  0  0.104567  0.120644  0  1.027943  0
H  H9  1  0.72253440  0.67676648  0.68316659  1  0  0.102128  0  0.961159  0  0  0.121194  0  1.027814  0  0  0.121744  0  1.027857  0  0  0.104569  0.120646  0  1.02794  0
H  H10  1  0.01455312  0.38303580  0.15929015  1  0  0.111677  0  0.939414  0  0  0.133418  0  0.999923  0  0  0.134089  0  0.999716  0  0  0.107375  0.132795  0  1.000238  0
H  H11  1  0.51455186  0.38303143  0.34071042  1  0  0.1117  0  0.939337  0  0  0.133406  0  0.999886  0  0  0.134078  0  0.999677  0  0  0.107369  0.132784  0  1.0002  0
H  H12  1  0.98544750  0.61696618  0.84071131  1  0  0.111688  0  0.939418  0  0  0.133409  0  0.999944  0  0  0.13408  0  0.999735  0  0  0.107362  0.132786  0  1.000258  0
H  H13  1  0.48544717  0.61696670  0.65928935  1  0  0.111688  0  0.939347  0  0  0.133399  0  0.999894  0  0  0.134072  0  0.999684  0  0  0.107362  0.132776  0  1.000208  0
H  H14  1  0.88847598  0.46167848  0.06740707  1  0  0.110825  0  0.954499  0  0  0.127403  0  1.021743  0  0  0.129147  0  1.02041  0  0  0.109383  0.126061  0  1.022761  0
H  H15  1  0.38847540  0.46167599  0.43259232  1  0  0.110738  0  0.954616  0  0  0.127339  0  1.021833  0  0  0.129082  0  1.020502  0  0  0.109356  0.125998  0  1.022851  0
H  H16  1  0.11152518  0.53832478  0.93259354  1  0  0.11082  0  0.954499  0  0  0.127398  0  1.02174  0  0  0.129141  0  1.020407  0  0  0.109394  0.126056  0  1.022757  0
H  H17  1  0.61152362  0.53832214  0.56740661  1  0  0.1108  0  0.954524  0  0  0.127379  0  1.021761  0  0  0.129123  0  1.02043  0  0  0.109374  0.126038  0  1.022779  0
H  H18  1  0.06968038  0.52097030  0.36703356  1  0  0.101884  0  0.930518  0  0  0.12457  0  0.987419  0  0  0.125063  0  0.988093  0  0  0.104456  0.124083  0  0.987054  0
H  H19  1  0.56967830  0.52096882  0.13296606  1  0  0.101871  0  0.930553  0  0  0.124553  0  0.987459  0  0  0.125044  0  0.988135  0  0  0.104456  0.124071  0  0.987086  0
H  H20  1  0.93032222  0.47903044  0.63296706  1  0  0.101873  0  0.930558  0  0  0.124555  0  0.987468  0  0  0.125046  0  0.988145  0  0  0.104444  0.124074  0  0.987096  0
H  H21  1  0.43032073  0.47902932  0.86703202  1  0  0.101872  0  0.93055  0  0  0.124558  0  0.987447  0  0  0.12505  0  0.988121  0  0  0.104442  0.124071  0  0.987081  0
H  H22  1  0.82862135  0.45355003  0.37913926  1  0  0.11281  0  0.948434  0  0  0.13103  0  1.011694  0  0  0.132855  0  1.010012  0  0  0.105372  0.129546  0  1.013069  0
H  H23  1  0.32862109  0.45354807  0.12086004  1  0  0.112804  0  0.948425  0  0  0.13102  0  1.011691  0  0  0.132845  0  1.01001  0  0  0.105364  0.129536  0  1.013066  0
H  H24  1  0.17137927  0.54645195  0.62086220  1  0  0.112831  0  0.948391  0  0  0.131064  0  1.011641  0  0  0.132899  0  1.009949  0  0  0.105376  0.129578  0  1.013017  0
H  H25  1  0.67137847  0.54645135  0.87913888  1  0  0.112812  0  0.948429  0  0  0.131027  0  1.01169  0  0  0.132852  0  1.010008  0  0  0.105367  0.129543  0  1.013064  0
H  H26  1  0.97740233  0.67695656  0.39050734  1  0  0.097311  0  0.964485  0  0  0.114661  0  1.03342  0  0  0.114245  0  1.035158  0  0  0.104603  0.114768  0  1.032333  0
H  H27  1  0.47740078  0.67695460  0.10949275  1  0  0.097323  0  0.964469  0  0  0.114668  0  1.03341  0  0  0.114253  0  1.035146  0  0  0.104601  0.11477  0  1.032322  0
H  H28  1  0.02259757  0.32304670  0.60949497  1  0  0.09723  0  0.964551  0  0  0.114603  0  1.033465  0  0  0.114187  0  1.035202  0  0  0.104574  0.114709  0  1.032379  0
H  H29  1  0.52259627  0.32304479  0.89050533  1  0  0.097321  0  0.964506  0  0  0.114666  0  1.033431  0  0  0.11425  0  1.035168  0  0  0.104613  0.114772  0  1.032342  0
H  H30  1  0.94617336  0.88422739  0.79021547  1  0  0.416659  0  0.893819  0  0  0.381766  0  0.965392  0  0  0.393173  0  0.948799  0  0  0.288947  0.373699  0  0.977109  0
H  H31  1  0.44617337  0.88422528  0.70978476  1  0  0.416687  0  0.893768  0  0  0.381791  0  0.965344  0  0  0.393201  0  0.948745  0  0  0.288964  0.373725  0  0.977061  0
H  H32  1  0.05382726  0.11577459  0.20978431  1  0  0.416709  0  0.893745  0  0  0.381814  0  0.965316  0  0  0.393227  0  0.948715  0  0  0.288965  0.373749  0  0.977032  0
H  H33  1  0.55382744  0.11577415  0.29021501  1  0  0.416682  0  0.893775  0  0  0.38179  0  0.965345  0  0  0.393199  0  0.948749  0  0  0.28896  0.373724  0  0.977062  0
H  H34  1  0.75504770  0.87860081  0.83950077  1  0  0.409464  0  0.905438  0  0  0.375127  0  0.975232  0  0  0.386315  0  0.95921  0  0  0.286182  0.367242  0  0.986492  0
H  H35  1  0.25504756  0.87859878  0.66049830  1  0  0.409475  0  0.905419  0  0  0.375144  0  0.975203  0  0  0.386328  0  0.959189  0  0  0.286192  0.367258  0  0.986465  0
H  H36  1  0.24495292  0.12140118  0.16049900  1  0  0.409481  0  0.905416  0  0  0.375144  0  0.975209  0  0  0.386332  0  0.959188  0  0  0.28618  0.367258  0  0.98647  0
H  H37  1  0.74495200  0.12140064  0.33950063  1  0  0.409468  0  0.905433  0  0  0.375126  0  0.975233  0  0  0.386316  0  0.959209  0  0  0.286176  0.367241  0  0.986493  0
C  C38  1  0.61885703  0.99649013  0.03525430  1  0  0.18439  0  3.907125  0  0  0.163774  0  4.188836  0  0  0.176895  0  4.201394  0  0  0.092152  0.154833  0  4.180152  0
C  C39  1  0.11885762  0.99649015  0.46474473  1  0  0.184409  0  3.907219  0  0  0.163793  0  4.188917  0  0  0.176916  0  4.201476  0  0  0.092152  0.154852  0  4.180235  0
C  C40  1  0.38114074  0.00350800  0.96474631  1  0  0.184432  0  3.907132  0  0  0.163837  0  4.188802  0  0  0.176959  0  4.201359  0  0  0.09219  0.154895  0  4.180119  0
C  C41  1  0.88114319  0.00350929  0.53525166  1  0  0.184373  0  3.907214  0  0  0.163745  0  4.188929  0  0  0.176868  0  4.201489  0  0  0.092155  0.154805  0  4.180246  0
C  C42  1  0.53148036  0.96040499  0.92260214  1  0  0.174138  0  3.874987  0  0  0.149205  0  4.154121  0  0  0.160831  0  4.167078  0  0  0.092735  0.141354  0  4.145146  0
C  C43  1  0.03148122  0.96040311  0.57739814  1  0  0.174093  0  3.875072  0  0  0.149165  0  4.154221  0  0  0.160786  0  4.167175  0  0  0.092726  0.141313  0  4.145248  0
C  C44  1  0.46851741  0.03959314  0.07739933  1  0  0.174109  0  3.875043  0  0  0.149155  0  4.15421  0  0  0.160789  0  4.167152  0  0  0.092747  0.141303  0  4.145234  0
C  C45  1  0.96851925  0.03959249  0.42259995  1  0  0.174102  0  3.875178  0  0  0.149163  0  4.154321  0  0  0.160796  0  4.167276  0  0  0.092738  0.141312  0  4.145346  0
C  C46  1  0.97309922  0.73102710  0.18134832  1  0  0.386557  0  3.814438  0  0  0.315022  0  4.096883  0  0  0.343609  0  4.097171  0  0  0.172113  0.295895  0  4.096214  0
C  C47  1  0.47309579  0.73102477  0.31865168  1  0  0.386573  0  3.81436  0  0  0.315047  0  4.096796  0  0  0.343635  0  4.097081  0  0  0.172125  0.29592  0  4.096127  0
C  C48  1  0.02690087  0.26897360  0.81865314  1  0  0.386598  0  3.814396  0  0  0.315084  0  4.096821  0  0  0.343674  0  4.097102  0  0  0.172113  0.295957  0  4.096155  0
C  C49  1  0.52690251  0.26897463  0.68134640  1  0  0.386569  0  3.814437  0  0  0.315066  0  4.096877  0  0  0.343655  0  4.097161  0  0  0.172122  0.295939  0  4.096211  0
C  C50  1  0.90349948  0.42763782  0.15471810  1  0  -0.174936  0  3.627811  0  0  -0.275751  0  3.875164  0  0  -0.271879  0  3.883971  0  0  -0.138269  -0.278081  0  3.869268  0
C  C51  1  0.40349917  0.42763675  0.34528052  1  0  -0.174889  0  3.627803  0  0  -0.27568  0  3.875145  0  0  -0.271806  0  3.883952  0  0  -0.13827  -0.27801  0  3.869249  0
C  C52  1  0.09650115  0.57236417  0.84528252  1  0  -0.174956  0  3.627834  0  0  -0.275738  0  3.875157  0  0  -0.271871  0  3.883979  0  0  -0.138293  -0.278067  0  3.869259  0
C  C53  1  0.59650111  0.57236140  0.65471756  1  0  -0.174967  0  3.627751  0  0  -0.275732  0  3.875118  0  0  -0.271859  0  3.883919  0  0  -0.138277  -0.278061  0  3.869222  0
C  C54  1  0.95445453  0.55596832  0.34769531  1  0  -0.174488  0  3.648874  0  0  -0.272324  0  3.892901  0  0  -0.269149  0  3.903894  0  0  -0.132686  -0.274062  0  3.885474  0
C  C55  1  0.45445364  0.55596757  0.15230491  1  0  -0.174463  0  3.648865  0  0  -0.272285  0  3.892891  0  0  -0.26911  0  3.903885  0  0  -0.132671  -0.274023  0  3.885463  0
C  C56  1  0.04554736  0.44403368  0.65230531  1  0  -0.174423  0  3.648852  0  0  -0.272273  0  3.892869  0  0  -0.269106  0  3.903854  0  0  -0.132658  -0.274012  0  3.88544  0
C  C57  1  0.54554646  0.44403314  0.84769486  1  0  -0.174485  0  3.648895  0  0  -0.272282  0  3.892918  0  0  -0.269107  0  3.90391  0  0  -0.132659  -0.27402  0  3.88549  0
N  N58  1  0.94226981  0.57752037  0.22623349  1  0  -0.08532  0  3.499443  0  0  0.015315  0  3.737022  0  0  -0.004881  0  3.76212  0  0  -0.282365  0.028811  0  3.719569  0
N  N59  1  0.44227055  0.57751943  0.27376667  1  0  -0.085373  0  3.49951  0  0  0.015253  0  3.737093  0  0  -0.004944  0  3.762189  0  0  -0.282369  0.028749  0  3.719642  0
N  N60  1  0.05772723  0.42247903  0.77376881  1  0  -0.085273  0  3.499312  0  0  0.01532  0  3.736941  0  0  -0.004877  0  3.762037  0  0  -0.282301  0.028817  0  3.719491  0
N  N61  1  0.55772848  0.42247870  0.72623310  1  0  -0.085254  0  3.499334  0  0  0.015306  0  3.736981  0  0  -0.004891  0  3.762078  0  0  -0.282362  0.028803  0  3.719531  0
O  O62  1  0.75884099  0.99144417  0.08084347  1  0  -0.501045  0  2.13539  0  0  -0.44436  0  2.387489  0  0  -0.467573  0  2.382185  0  0  -0.300509  -0.428135  0  2.39071  0
O  O63  1  0.25884197  0.99144555  0.41915496  1  0  -0.501079  0  2.135502  0  0  -0.444375  0  2.387567  0  0  -0.467588  0  2.382263  0  0  -0.300509  -0.428148  0  2.390789  0
O  O64  1  0.24115857  0.00855525  0.91915545  1  0  -0.501074  0  2.135444  0  0  -0.444391  0  2.387523  0  0  -0.467604  0  2.382219  0  0  -0.300525  -0.428164  0  2.390744  0
O  O65  1  0.74115957  0.00855262  0.58084312  1  0  -0.501004  0  2.135422  0  0  -0.444303  0  2.387505  0  0  -0.467516  0  2.382202  0  0  -0.300488  -0.428075  0  2.390725  0
O  O66  1  0.56926191  0.91180804  0.82860996  1  0  -0.496696  0  2.140268  0  0  -0.435544  0  2.35753  0  0  -0.457538  0  2.353809  0  0  -0.288085  -0.42022  0  2.359772  0
O  O67  1  0.06926181  0.91180599  0.67138960  1  0  -0.496616  0  2.14033  0  0  -0.435484  0  2.357603  0  0  -0.457459  0  2.353872  0  0  -0.288071  -0.42016  0  2.359847  0
O  O68  1  0.43073871  0.08819395  0.17138981  1  0  -0.496692  0  2.140312  0  0  -0.435538  0  2.357578  0  0  -0.457534  0  2.353859  0  0  -0.288101  -0.420215  0  2.35982  0
O  O69  1  0.93074225  0.08819221  0.32860848  1  0  -0.496744  0  2.140366  0  0  -0.435577  0  2.357613  0  0  -0.457586  0  2.3539  0  0  -0.288114  -0.420252  0  2.359855  0
O  O70  1  0.96984896  0.75814516  0.07727586  1  0  -0.547179  0  2.107344  0  0  -0.488004  0  2.368221  0  0  -0.513397  0  2.360131  0  0  -0.301387  -0.470426  0  2.373112  0
O  O71  1  0.46985068  0.75814527  0.42272494  1  0  -0.5472  0  2.107241  0  0  -0.488032  0  2.368126  0  0  -0.513427  0  2.360036  0  0  -0.301421  -0.470453  0  2.373016  0
O  O72  1  0.03015041  0.24185681  0.92272645  1  0  -0.547258  0  2.107355  0  0  -0.488082  0  2.368229  0  0  -0.513477  0  2.360137  0  0  -0.301441  -0.4705  0  2.373114  0
O  O73  1  0.53015067  0.24185545  0.57727483  1  0  -0.547195  0  2.107372  0  0  -0.48803  0  2.368236  0  0  -0.513424  0  2.360146  0  0  -0.301406  -0.470451  0  2.373127  0
O  O74  1  0.86752009  0.85871045  0.85921929  1  0  -0.853008  0  1.963627  0  0  -0.792167  0  2.182991  0  0  -0.814675  0  2.146828  0  0  -0.579632  -0.776154  0  2.207918  0
O  O75  1  0.36752042  0.85870973  0.64077915  1  0  -0.853033  0  1.963585  0  0  -0.792203  0  2.182966  0  0  -0.814714  0  2.146804  0  0  -0.579648  -0.776189  0  2.207895  0
O  O76  1  0.13248054  0.14129154  0.14077964  1  0  -0.853022  0  1.963556  0  0  -0.792183  0  2.182942  0  0  -0.814682  0  2.146753  0  0  -0.579623  -0.776167  0  2.207864  0
O  O77  1  0.63248040  0.14128970  0.35921978  1  0  -0.853022  0  1.963602  0  0  -0.792189  0  2.182973  0  0  -0.814695  0  2.146803  0  0  -0.579641  -0.776175  0  2.207901  0
