# generated using pymatgen
data_ZnH16C21N2O5
_symmetry_space_group_name_H-M   'P 1'
_cell_length_a   8.84065294
_cell_length_b   9.63067255
_cell_length_c   13.57876325
_cell_angle_alpha   102.55785357
_cell_angle_beta   97.09625436
_cell_angle_gamma   112.09739446
_symmetry_Int_Tables_number   1
_chemical_formula_structural   ZnH16C21N2O5
_chemical_formula_sum   'Zn2 H32 C42 N4 O10'
_cell_volume   1018.26363916
_cell_formula_units_Z   2
loop_
 _symmetry_equiv_pos_site_id
 _symmetry_equiv_pos_as_xyz
  1  'x, y, z'
loop_
 _atom_site_type_symbol
 _atom_site_label
 _atom_site_symmetry_multiplicity
 _atom_site_fract_x
 _atom_site_fract_y
 _atom_site_fract_z
 _atom_site_occupancy
 _atom_site_hle17_bader_spin_density
 _atom_site_hle17_ddec_charge
 _atom_site_hle17_ddec_spin_density
 _atom_site_hle17_ddec_sum_bond_order
 _atom_site_hle17_magmom
 _atom_site_hse06_10hf_bader_spin_density
 _atom_site_hse06_10hf_ddec_charge
 _atom_site_hse06_10hf_ddec_spin_density
 _atom_site_hse06_10hf_ddec_sum_bond_order
 _atom_site_hse06_10hf_magmom
 _atom_site_hse06_bader_spin_density
 _atom_site_hse06_ddec_charge
 _atom_site_hse06_ddec_spin_density
 _atom_site_hse06_ddec_sum_bond_order
 _atom_site_hse06_magmom
 _atom_site_pbe_bader_spin_density
 _atom_site_pbe_cm5_charge
 _atom_site_pbe_ddec_charge
 _atom_site_pbe_ddec_spin_density
 _atom_site_pbe_ddec_sum_bond_order
 _atom_site_pbe_magmom
Zn  Zn0  1  0.84410687  0.56065423  0.74185089  1  0  0.982388  0  1.876381  0  0  0.788908  0  2.351119  0  0  0.836533  0  2.29604  0  0  0.693736  0.755927  0  2.388713  0
Zn  Zn1  1  0.15589586  0.43934823  0.25814907  1  0  0.982325  0  1.876458  0  0  0.788853  0  2.351194  0  0  0.836475  0  2.296117  0  0  0.693736  0.755867  0  2.388808  0
H  H2  1  0.37392918  0.07622165  0.78102354  1  0  0.099559  0  0.973063  0  0  0.104734  0  1.047069  0  0  0.109337  0  1.042786  0  0  0.097355  0.101539  0  1.049944  0
H  H3  1  0.62607464  0.92378314  0.21897834  1  0  0.099578  0  0.97304  0  0  0.104743  0  1.047066  0  0  0.109346  0  1.042783  0  0  0.097372  0.101548  0  1.049935  0
H  H4  1  0.00725150  0.77604546  0.49959439  1  0  0.12335  0  0.930426  0  0  0.133568  0  0.990073  0  0  0.138057  0  0.986361  0  0  0.111095  0.13031  0  0.992814  0
H  H5  1  0.99275005  0.22395936  0.50040732  1  0  0.123394  0  0.930394  0  0  0.133594  0  0.990058  0  0  0.138085  0  0.986345  0  0  0.111103  0.130338  0  0.992799  0
H  H6  1  0.43841290  0.18148087  0.49379396  1  0  0.119107  0  0.956701  0  0  0.128709  0  1.018503  0  0  0.133124  0  1.01503  0  0  0.107032  0.125535  0  1.021027  0
H  H7  1  0.56158817  0.81852043  0.50620643  1  0  0.119117  0  0.956702  0  0  0.128714  0  1.018508  0  0  0.133128  0  1.015034  0  0  0.107037  0.12554  0  1.021028  0
H  H8  1  0.24077901  0.14478702  0.34864644  1  0  0.081146  0  0.951776  0  0  0.09704  0  1.01929  0  0  0.097107  0  1.019684  0  0  0.095931  0.096919  0  1.019117  0
H  H9  1  0.75922312  0.85521662  0.65135366  1  0  0.081097  0  0.95174  0  0  0.096999  0  1.019254  0  0  0.097065  0  1.019648  0  0  0.09592  0.096876  0  1.019085  0
H  H10  1  0.16155920  0.97191604  0.24077658  1  0  0.092516  0  0.925913  0  0  0.112098  0  0.985376  0  0  0.112499  0  0.985845  0  0  0.102806  0.111872  0  0.984851  0
H  H11  1  0.83844295  0.02808760  0.75922499  1  0  0.092483  0  0.925892  0  0  0.112074  0  0.98535  0  0  0.112474  0  0.98582  0  0  0.102819  0.111849  0  0.984831  0
H  H12  1  0.36227551  0.03184547  0.32437553  1  0  0.078276  0  0.952194  0  0  0.094191  0  1.021184  0  0  0.093861  0  1.022436  0  0  0.093858  0.094432  0  1.020196  0
H  H13  1  0.63772496  0.96815701  0.67562500  1  0  0.078253  0  0.952181  0  0  0.094152  0  1.021194  0  0  0.093821  0  1.022447  0  0  0.093836  0.094396  0  1.020203  0
H  H14  1  0.06974501  0.68746344  0.95863286  1  0  0.070912  0  0.943994  0  0  0.083659  0  1.003285  0  0  0.085668  0  1.001482  0  0  0.116827  0.082162  0  1.004665  0
H  H15  1  0.93025613  0.31253550  0.04136717  1  0  0.070878  0  0.94402  0  0  0.083624  0  1.003318  0  0  0.085633  0  1.001517  0  0  0.116812  0.082122  0  1.004702  0
H  H16  1  0.30547498  0.65036987  0.04781299  1  0  0.137252  0  0.983201  0  0  0.146564  0  1.041846  0  0  0.150815  0  1.039189  0  0  0.111881  0.143491  0  1.043886  0
H  H17  1  0.69452563  0.34962791  0.95218681  1  0  0.13723  0  0.983242  0  0  0.146536  0  1.041883  0  0  0.150789  0  1.039227  0  0  0.111877  0.143463  0  1.043928  0
H  H18  1  0.22811242  0.28726766  0.76908845  1  0  0.117072  0  0.948982  0  0  0.126664  0  1.0088  0  0  0.129349  0  1.00922  0  0  0.110891  0.124935  0  1.008317  0
H  H19  1  0.77188599  0.71272779  0.23091156  1  0  0.117129  0  0.948964  0  0  0.126711  0  1.008783  0  0  0.129396  0  1.009202  0  0  0.110903  0.124978  0  1.008304  0
H  H20  1  0.98724976  0.33408875  0.69361381  1  0  0.090504  0  0.958771  0  0  0.095877  0  1.023832  0  0  0.099239  0  1.020289  0  0  0.122545  0.093339  0  1.026473  0
H  H21  1  0.01275025  0.66591020  0.30638613  1  0  0.090532  0  0.95874  0  0  0.095888  0  1.023825  0  0  0.099255  0  1.020275  0  0  0.122531  0.093347  0  1.026475  0
H  H22  1  0.46677149  0.35940720  0.90650569  1  0  0.10677  0  0.967769  0  0  0.117557  0  1.029567  0  0  0.120654  0  1.028035  0  0  0.106301  0.115426  0  1.03053  0
H  H23  1  0.53322745  0.64058942  0.09349380  1  0  0.10672  0  0.967775  0  0  0.117537  0  1.029547  0  0  0.120633  0  1.028022  0  0  0.106306  0.115404  0  1.030505  0
H  H24  1  0.92792714  0.81137157  0.94722837  1  0  0.071645  0  0.955791  0  0  0.081123  0  1.020687  0  0  0.083617  0  1.017996  0  0  0.115533  0.079302  0  1.022631  0
H  H25  1  0.07206844  0.18862509  0.05277456  1  0  0.07166  0  0.955867  0  0  0.081154  0  1.020732  0  0  0.083648  0  1.018043  0  0  0.115546  0.079328  0  1.022677  0
H  H26  1  0.78922405  0.96619023  0.03635828  1  0  0.12885  0  0.968952  0  0  0.137595  0  1.029709  0  0  0.141619  0  1.027489  0  0  0.111229  0.13474  0  1.03139  0
H  H27  1  0.21076872  0.03380529  0.96364352  1  0  0.128835  0  0.968944  0  0  0.137579  0  1.029714  0  0  0.141602  0  1.027493  0  0  0.111225  0.134722  0  1.031399  0
H  H28  1  0.37448468  0.73576214  0.76672223  1  0  0.11957  0  0.933697  0  0  0.131673  0  0.987063  0  0  0.134211  0  0.987782  0  0  0.115684  0.129873  0  0.986556  0
H  H29  1  0.62551363  0.26423566  0.23327519  1  0  0.119584  0  0.933682  0  0  0.131689  0  0.987046  0  0  0.134229  0  0.987765  0  0  0.115699  0.12989  0  0.986543  0
H  H30  1  0.52484429  0.57689887  0.69423385  1  0  0.089762  0  0.919349  0  0  0.102591  0  0.97143  0  0  0.105162  0  0.969365  0  0  0.127094  0.10068  0  0.972931  0
H  H31  1  0.47515735  0.42310125  0.30576419  1  0  0.089739  0  0.919304  0  0  0.102515  0  0.971444  0  0  0.105088  0  0.969377  0  0  0.127044  0.100603  0  0.972948  0
H  H32  1  0.35911039  0.92964633  0.89967959  1  0  0.108584  0  0.993209  0  0  0.116299  0  1.059402  0  0  0.119901  0  1.057366  0  0  0.104068  0.113564  0  1.061256  0
H  H33  1  0.64088725  0.07035500  0.10031760  1  0  0.108677  0  0.993144  0  0  0.116382  0  1.059346  0  0  0.119982  0  1.057313  0  0  0.104105  0.113648  0  1.061202  0
C  C34  1  0.42068956  0.14090317  0.64199531  1  0  -0.051622  0  3.803181  0  0  -0.025708  0  4.037803  0  0  -0.032851  0  4.061245  0  0  -0.026337  -0.021198  0  4.022096  0
C  C35  1  0.57931318  0.85909929  0.35800465  1  0  -0.05164  0  3.803165  0  0  -0.025706  0  4.037759  0  0  -0.032853  0  4.061209  0  0  -0.026342  -0.021195  0  4.02205  0
C  C36  1  0.32879558  0.04669858  0.69770172  1  0  -0.116758  0  3.7532  0  0  -0.15563  0  4.008104  0  0  -0.154498  0  4.026039  0  0  -0.096591  -0.156181  0  3.995775  0
C  C37  1  0.67120770  0.95330504  0.30229919  1  0  -0.116777  0  3.753237  0  0  -0.155664  0  4.008149  0  0  -0.154531  0  4.026083  0  0  -0.096628  -0.156217  0  3.995813  0
C  C38  1  0.17956989  0.91523989  0.64639653  1  0  -0.048471  0  3.793024  0  0  -0.0229  0  4.027808  0  0  -0.029727  0  4.050223  0  0  -0.024406  -0.018538  0  4.012562  0
C  C39  1  0.82043339  0.08476373  0.35360439  1  0  -0.048445  0  3.793108  0  0  -0.022855  0  4.027871  0  0  -0.02968  0  4.050286  0  0  -0.024404  -0.018492  0  4.012624  0
C  C40  1  0.12324384  0.87843605  0.53945217  1  0  -0.147603  0  3.672372  0  0  -0.186734  0  3.92654  0  0  -0.187212  0  3.942232  0  0  -0.084604  -0.186048  0  3.915899  0
C  C41  1  0.87675831  0.12156759  0.46054940  1  0  -0.147666  0  3.672393  0  0  -0.186794  0  3.926567  0  0  -0.187271  0  3.942259  0  0  -0.084602  -0.186115  0  3.915933  0
C  C42  1  0.21470255  0.97375834  0.48370894  1  0  0.263169  0  3.810159  0  0  0.258427  0  4.071298  0  0  0.267168  0  4.088972  0  0  0.082528  0.252103  0  4.059354  0
C  C43  1  0.78529853  0.02624296  0.51629219  1  0  0.263228  0  3.810173  0  0  0.258506  0  4.071292  0  0  0.267249  0  4.088965  0  0  0.082554  0.252182  0  4.059352  0
C  C44  1  0.36387470  0.10529057  0.53460477  1  0  -0.188935  0  3.707597  0  0  -0.223025  0  3.955351  0  0  -0.225415  0  3.974119  0  0  -0.099395  -0.221106  0  3.942729  0
C  C45  1  0.63612750  0.89471072  0.46539570  1  0  -0.189003  0  3.707611  0  0  -0.2231  0  3.955364  0  0  -0.225486  0  3.974131  0  0  -0.099446  -0.221184  0  3.942744  0
C  C46  1  0.57871304  0.28245186  0.69906836  1  0  0.626027  0  3.932671  0  0  0.579982  0  4.221628  0  0  0.613272  0  4.215333  0  0  0.193897  0.557504  0  4.225072  0
C  C47  1  0.42129023  0.71755176  0.30093183  1  0  0.626022  0  3.932827  0  0  0.579979  0  4.221768  0  0  0.61327  0  4.215471  0  0  0.193938  0.557505  0  4.225207  0
C  C48  1  0.07978239  0.81513256  0.70654450  1  0  0.630152  0  3.930592  0  0  0.58364  0  4.221244  0  0  0.617368  0  4.214519  0  0  0.195698  0.560869  0  4.224919  0
C  C49  1  0.92021923  0.18486991  0.29345685  1  0  0.630161  0  3.930591  0  0  0.583647  0  4.22124  0  0  0.617376  0  4.214516  0  0  0.195728  0.560882  0  4.224907  0
C  C50  1  0.23503337  0.02637509  0.32078054  1  0  -0.076352  0  3.649399  0  0  -0.174543  0  3.917316  0  0  -0.168044  0  3.9229  0  0  -0.145143  -0.178737  0  3.913151  0
C  C51  1  0.76496824  0.97362738  0.67922007  1  0  -0.076208  0  3.649228  0  0  -0.174384  0  3.917152  0  0  -0.167883  0  3.922739  0  0  -0.145097  -0.178581  0  3.912996  0
C  C52  1  0.10842027  0.59969396  0.91921488  1  0  0.137501  0  3.723547  0  0  0.103423  0  3.979138  0  0  0.110809  0  3.997716  0  0  0.047  0.098837  0  3.966423  0
C  C53  1  0.89157920  0.40030383  0.08078483  1  0  0.137545  0  3.72355  0  0  0.103466  0  3.979148  0  0  0.110851  0  3.997727  0  0  0.047009  0.098883  0  3.96643  0
C  C54  1  0.24247778  0.58015932  0.96821979  1  0  -0.167557  0  3.671898  0  0  -0.184256  0  3.914685  0  0  -0.192931  0  3.935722  0  0  -0.081422  -0.178546  0  3.900821  0
C  C55  1  0.75752002  0.41983731  0.03177962  1  0  -0.167588  0  3.67193  0  0  -0.184246  0  3.91471  0  0  -0.192927  0  3.935751  0  0  -0.081432  -0.178539  0  3.900848  0
C  C56  1  0.29414914  0.46980131  0.91410127  1  0  0.136226  0  3.802717  0  0  0.150045  0  4.036086  0  0  0.156219  0  4.05856  0  0  0.008846  0.14583  0  4.021092  0
C  C57  1  0.70585034  0.53019648  0.08589919  1  0  0.136284  0  3.802633  0  0  0.15004  0  4.036072  0  0  0.156217  0  4.058542  0  0  0.00887  0.14583  0  4.02107  0
C  C58  1  0.19730573  0.37743807  0.81409571  1  0  -0.164779  0  3.68005  0  0  -0.180141  0  3.922561  0  0  -0.188839  0  3.943698  0  0  -0.080654  -0.174787  0  3.90836  0
C  C59  1  0.80269209  0.62255856  0.18590518  1  0  -0.164875  0  3.680088  0  0  -0.180206  0  3.922586  0  0  -0.188904  0  3.943723  0  0  -0.080673  -0.174852  0  3.908379  0
C  C60  1  0.06373191  0.40400024  0.77082715  1  0  0.133974  0  3.696241  0  0  0.10159  0  3.945798  0  0  0.109843  0  3.962185  0  0  0.049164  0.096452  0  3.934698  0
C  C61  1  0.93626696  0.59599873  0.22917271  1  0  0.133986  0  3.696302  0  0  0.101621  0  3.945839  0  0  0.109873  0  3.962226  0  0  0.049186  0.096483  0  3.934741  0
C  C62  1  0.44386997  0.45255197  0.95524901  1  0  -0.09428  0  3.683738  0  0  -0.116937  0  3.93794  0  0  -0.120576  0  3.958879  0  0  -0.078344  -0.114026  0  3.923663  0
C  C63  1  0.55612896  0.54744465  0.04475048  1  0  -0.094178  0  3.683666  0  0  -0.116843  0  3.937869  0  0  -0.120485  0  3.958807  0  0  -0.07833  -0.11393  0  3.923585  0
C  C64  1  0.80316280  0.79535092  0.91135649  1  0  0.134767  0  3.72437  0  0  0.099986  0  3.978787  0  0  0.107391  0  3.997327  0  0  0.047068  0.095261  0  3.96653  0
C  C65  1  0.19683162  0.20464575  0.08864414  1  0  0.134723  0  3.724508  0  0  0.099943  0  3.978932  0  0  0.107347  0  3.997471  0  0  0.047057  0.095222  0  3.966668  0
C  C66  1  0.72647469  0.88395126  0.95943699  1  0  -0.169835  0  3.66457  0  0  -0.182687  0  3.901591  0  0  -0.191392  0  3.922277  0  0  -0.077929  -0.177006  0  3.888187  0
C  C67  1  0.27351806  0.11604426  0.04056333  1  0  -0.169801  0  3.664595  0  0  -0.182696  0  3.901625  0  0  -0.191407  0  3.922321  0  0  -0.077984  -0.177014  0  3.888218  0
C  C68  1  0.56811657  0.86497113  0.90809260  1  0  0.151369  0  3.777541  0  0  0.166808  0  4.005587  0  0  0.173517  0  4.027111  0  0  0.015909  0.162117  0  3.991398  0
C  C69  1  0.43187780  0.13502554  0.09190435  1  0  0.15133  0  3.777579  0  0  0.166859  0  4.00551  0  0  0.173574  0  4.027022  0  0  0.015965  0.162171  0  3.99132  0
C  C70  1  0.49623994  0.75430585  0.80986255  1  0  -0.15738  0  3.683716  0  0  -0.173857  0  3.9287  0  0  -0.182372  0  3.950434  0  0  -0.073947  -0.168092  0  3.914178  0
C  C71  1  0.50375724  0.24569197  0.19013553  1  0  -0.157338  0  3.683666  0  0  -0.173851  0  3.92861  0  0  -0.18237  0  3.950346  0  0  -0.073944  -0.168085  0  3.914089  0
C  C72  1  0.57897798  0.66645664  0.76893876  1  0  0.130536  0  3.706826  0  0  0.098805  0  3.9568  0  0  0.106422  0  3.974583  0  0  0.052633  0.093721  0  3.944915  0
C  C73  1  0.42102088  0.33354234  0.23106036  1  0  0.130577  0  3.706769  0  0  0.098907  0  3.956726  0  0  0.106522  0  3.974509  0  0  0.052674  0.093825  0  3.944837  0
C  C74  1  0.47584178  0.95096030  0.95141870  1  0  -0.100254  0  3.683774  0  0  -0.119935  0  3.932007  0  0  -0.123852  0  3.95233  0  0  -0.078097  -0.117322  0  3.918704  0
C  C75  1  0.52415419  0.04903988  0.04857819  1  0  -0.100382  0  3.683851  0  0  -0.120066  0  3.932039  0  0  -0.123985  0  3.95236  0  0  -0.078134  -0.11746  0  3.918741  0
N  N76  1  0.02114727  0.51564962  0.82149986  1  0  -0.332795  0  3.331042  0  0  -0.246225  0  3.610629  0  0  -0.265589  0  3.624072  0  0  -0.333964  -0.233474  0  3.601254  0
N  N77  1  0.97885387  0.48434932  0.17850017  1  0  -0.332804  0  3.331028  0  0  -0.246264  0  3.610649  0  0  -0.265625  0  3.624089  0  0  -0.333968  -0.233509  0  3.601272  0
N  N78  1  0.73107596  0.68679700  0.81832974  1  0  -0.33131  0  3.318554  0  0  -0.246353  0  3.598498  0  0  -0.265614  0  3.61315  0  0  -0.331191  -0.233923  0  3.588877  0
N  N79  1  0.26892123  0.31320082  0.18166908  1  0  -0.331293  0  3.318622  0  0  -0.246352  0  3.598564  0  0  -0.265611  0  3.613215  0  0  -0.331166  -0.233918  0  3.588937  0
O  O80  1  0.65435193  0.37248560  0.64532864  1  0  -0.638252  0  1.984668  0  0  -0.565408  0  2.238294  0  0  -0.593111  0  2.222649  0  0  -0.340548  -0.546155  0  2.248299  0
O  O81  1  0.34565199  0.62751449  0.35466956  1  0  -0.638251  0  1.984684  0  0  -0.565406  0  2.238305  0  0  -0.593109  0  2.222663  0  0  -0.340599  -0.546157  0  2.248316  0
O  O82  1  0.62976473  0.31027796  0.79475167  1  0  -0.632655  0  1.964381  0  0  -0.588237  0  2.195015  0  0  -0.611182  0  2.186753  0  0  -0.327859  -0.572043  0  2.19975  0
O  O83  1  0.37023674  0.68972922  0.20524894  1  0  -0.63262  0  1.964554  0  0  -0.58821  0  2.195197  0  0  -0.611162  0  2.186952  0  0  -0.327815  -0.572013  0  2.199924  0
O  O84  1  0.11770313  0.85978317  0.80415449  1  0  -0.646806  0  1.954788  0  0  -0.603492  0  2.192273  0  0  -0.626973  0  2.183747  0  0  -0.33163  -0.586848  0  2.19713  0
O  O85  1  0.88229848  0.14021930  0.19584612  1  0  -0.646812  0  1.954797  0  0  -0.603475  0  2.192237  0  0  -0.626958  0  2.183715  0  0  -0.33162  -0.586833  0  2.197091  0
O  O86  1  0.95710471  0.68452119  0.65194827  1  0  -0.637162  0  2.009053  0  0  -0.564736  0  2.264058  0  0  -0.592997  0  2.248808  0  0  -0.338282  -0.545224  0  2.273933  0
O  O87  1  0.04289857  0.31548244  0.34805265  1  0  -0.637185  0  2.009023  0  0  -0.564758  0  2.264024  0  0  -0.593019  0  2.248774  0  0  -0.338331  -0.545249  0  2.273902  0
O  O88  1  0.14801209  0.92889676  0.37958385  1  0  -0.258189  0  2.355653  0  0  -0.180765  0  2.590869  0  0  -0.199593  0  2.595667  0  0  -0.18629  -0.167493  0  2.587144  0
O  O89  1  0.85199120  0.07110686  0.62041781  1  0  -0.258213  0  2.355681  0  0  -0.180822  0  2.59092  0  0  -0.199655  0  2.59572  0  0  -0.186314  -0.167552  0  2.587198  0
