# generated using pymatgen
data_Zr3H14C15O16
_symmetry_space_group_name_H-M   'P 1'
_cell_length_a   17.49456426
_cell_length_b   20.33179533
_cell_length_c   20.92608333
_cell_angle_alpha   90.01915333
_cell_angle_beta   100.17222250
_cell_angle_gamma   89.96767907
_symmetry_Int_Tables_number   1
_chemical_formula_structural   Zr3H14C15O16
_chemical_formula_sum   'Zr12 H56 C60 O64'
_cell_volume   7326.32165256
_cell_formula_units_Z   4
loop_
 _symmetry_equiv_pos_site_id
 _symmetry_equiv_pos_as_xyz
  1  'x, y, z'
loop_
 _atom_site_type_symbol
 _atom_site_label
 _atom_site_symmetry_multiplicity
 _atom_site_fract_x
 _atom_site_fract_y
 _atom_site_fract_z
 _atom_site_occupancy
 _atom_site_pbe_bader_charge
 _atom_site_pbe_bader_spin_density
 _atom_site_pbe_cm5_charge
 _atom_site_pbe_ddec_charge
 _atom_site_pbe_ddec_spin_density
 _atom_site_pbe_ddec_sum_bond_order
 _atom_site_pbe_magmom
Zr  Zr0  1  0.86026945  0.46796760  0.61554148  1  2.626785  0  1.592677  2.360158  0  2.753227  0
Zr  Zr1  1  0.07500979  0.58728897  0.54676322  1  2.603167  0  1.576772  2.330048  0  2.821487  0
Zr  Zr2  1  0.05621988  0.50240256  0.69137076  1  2.615324  0  1.541583  2.375259  0  2.827709  0
Zr  Zr3  1  0.88069476  0.55435313  0.47074206  1  2.626227  0  1.564155  2.387842  0  2.757293  0
Zr  Zr4  1  0.92156523  0.63160944  0.62633815  1  2.608469  0  1.557325  2.370883  0  2.768873  0
Zr  Zr5  1  0.01241974  0.42417224  0.53260417  1  2.618576  0  1.566331  2.380289  0  2.721773  0
Zr  Zr6  1  0.36751161  0.06298047  0.14380416  1  2.626069  0  1.594157  2.361102  0  2.756408  0
Zr  Zr7  1  0.56957896  0.99833894  0.02101198  1  2.604962  0  1.57629  2.329466  0  2.817534  0
Zr  Zr8  1  0.53757753  0.14272968  0.10752537  1  2.610918  0  1.541441  2.37596  0  2.82755  0
Zr  Zr9  1  0.40116067  0.91816238  0.05571686  1  2.632996  0  1.565117  2.389285  0  2.755671  0
Zr  Zr10  1  0.38807336  0.07687652  0.98145607  1  2.60868  0  1.557951  2.370202  0  2.770641  0
Zr  Zr11  1  0.54795825  0.98125203  0.18310621  1  2.620165  0  1.566704  2.379888  0  2.722237  0
H  H12  1  0.12736676  0.79518468  0.26909383  1  0.115062  0  0.118313  0.128374  0  0.974229  0
H  H13  1  0.87920887  0.80046160  0.26077028  1  0.100986  0  0.119855  0.13076  0  0.970156  0
H  H14  1  0.98523933  0.92481590  0.13376136  1  0.082168  0  0.118206  0.128582  0  0.973876  0
H  H15  1  0.81071467  0.26163547  0.89460697  1  0.108102  0  0.118214  0.128996  0  0.9737  0
H  H16  1  0.05914771  0.27572815  0.90768294  1  0.091059  0  0.119681  0.131829  0  0.971107  0
H  H17  1  0.96273580  0.13632437  0.02729947  1  0.083554  0  0.11696  0.126463  0  0.976382  0
H  H18  1  0.77945477  0.58277916  0.55863353  1  0.605401  0  0.331391  0.426968  0  0.855705  0
H  H19  1  0.08204168  0.63825996  0.68159793  1  0.614987  0  0.327637  0.434251  0  0.852886  0
H  H20  1  0.01989992  0.51862205  0.42969869  1  0.605283  0  0.330052  0.424899  0  0.857492  0
H  H21  1  0.98881172  0.37495880  0.65213501  1  0.618957  0  0.333193  0.431827  0  0.841248  0
H  H22  1  0.96889534  0.71456648  0.71254264  1  0.643692  0  0.295884  0.396485  0  0.928422  0
H  H23  1  0.17826435  0.42532102  0.72527532  1  0.587048  0  0.30408  0.396462  0  0.901223  0
H  H24  1  0.15548399  0.36519931  0.57632216  1  0.61911  0  0.32067  0.405768  0  0.885829  0
H  H25  1  0.86303101  0.73680316  0.56238397  1  0.636702  0  0.311996  0.407106  0  0.89291  0
H  H26  1  0.75143721  0.62737976  0.43472484  1  0.596342  0  0.299034  0.392773  0  0.906487  0
H  H27  1  0.82508955  0.47606460  0.37152860  1  0.585853  0  0.304596  0.398415  0  0.899079  0
H  H28  1  0.00581596  0.39387886  0.39807025  1  0.606407  0  0.325013  0.408929  0  0.874687  0
H  H29  1  0.01110186  0.73872133  0.61261300  1  0.604081  0  0.277496  0.392453  0  0.926264  0
H  H30  1  0.10251693  0.71744357  0.51581007  1  0.610661  0  0.328153  0.41429  0  0.881649  0
H  H31  1  0.84197149  0.33146106  0.62933308  1  0.625308  0  0.325647  0.409985  0  0.875602  0
H  H32  1  0.93417502  0.31751489  0.49132893  1  0.616223  0  0.297819  0.392302  0  0.910837  0
H  H33  1  0.81907370  0.67918931  0.51394105  1  0.654352  0  0.283243  0.406635  0  0.929274  0
H  H34  1  0.15891374  0.70264007  0.58179556  1  0.637725  0  0.330056  0.416433  0  0.876357  0
H  H35  1  0.06671978  0.54843890  0.81016135  1  0.589171  0  0.298009  0.405883  0  0.888011  0
H  H36  1  0.91296824  0.67750405  0.75381967  1  0.607081  0  0.32999  0.415653  0  0.867622  0
H  H37  1  0.92553073  0.43543866  0.40555433  1  0.642943  0  0.277159  0.406983  0  0.936833  0
H  H38  1  0.12140357  0.38457594  0.64311393  1  0.646417  0  0.278079  0.406902  0  0.937081  0
H  H39  1  0.88683533  0.34317018  0.56636926  1  0.648416  0  0.278313  0.406117  0  0.939138  0
H  H40  1  0.29471247  0.34849454  0.34142060  1  0.093596  0  0.117333  0.127702  0  0.9756  0
H  H41  1  0.54167727  0.35171247  0.34332653  1  0.101104  0  0.120177  0.130924  0  0.968269  0
H  H42  1  0.44344387  0.47230301  0.47828574  1  0.086172  0  0.117241  0.127087  0  0.975641  0
H  H43  1  0.64031127  0.71636878  0.81813273  1  0.122457  0  0.116581  0.12627  0  0.977797  0
H  H44  1  0.39079032  0.71347216  0.80181288  1  0.108431  0  0.120347  0.131516  0  0.969293  0
H  H45  1  0.50257318  0.58251033  0.68444623  1  0.109921  0  0.117774  0.127828  0  0.974606  0
H  H46  1  0.27346476  0.00560285  0.03098079  1  0.621549  0  0.331657  0.426793  0  0.855099  0
H  H47  1  0.53430883  0.13497670  0.97314358  1  0.608154  0  0.328213  0.434682  0  0.851847  0
H  H48  1  0.55740175  0.87845342  0.08798021  1  0.599582  0  0.330151  0.425863  0  0.85729  0
H  H49  1  0.50864096  0.10080825  0.23407801  1  0.588115  0  0.333286  0.431457  0  0.841306  0
H  H50  1  0.39656610  0.16660510  0.90087539  1  0.654219  0  0.297182  0.396581  0  0.92685  0
H  H51  1  0.67012069  0.17669589  0.18108313  1  0.609963  0  0.304598  0.398052  0  0.899439  0
H  H52  1  0.69353380  0.02673548  0.24151663  1  0.610962  0  0.320134  0.405193  0  0.88592  0
H  H53  1  0.31940492  0.01261927  0.87750958  1  0.624724  0  0.312291  0.405653  0  0.894  0
H  H54  1  0.26400133  0.87946989  0.98465045  1  0.596645  0  0.301473  0.396864  0  0.899983  0
H  H55  1  0.38652291  0.81619011  0.13200808  1  0.610403  0  0.303929  0.397471  0  0.90076  0
H  H56  1  0.57871744  0.84494785  0.21128189  1  0.61064  0  0.324476  0.408896  0  0.875753  0
H  H57  1  0.45541593  0.06558056  0.87427317  1  0.601708  0  0.276175  0.391727  0  0.928226  0
H  H58  1  0.57224508  0.96912614  0.89117776  1  0.612248  0  0.32805  0.414094  0  0.881969  0
H  H59  1  0.37782480  0.07573002  0.27913219  1  0.606435  0  0.32556  0.409613  0  0.875896  0
H  H60  1  0.50283874  0.93683691  0.28845281  1  0.604907  0  0.296302  0.390595  0  0.913573  0
H  H61  1  0.30054628  0.96243991  0.93458142  1  0.639177  0  0.283756  0.406803  0  0.928938  0
H  H62  1  0.61660322  0.03649908  0.90584202  1  0.656013  0  0.328794  0.415858  0  0.878367  0
H  H63  1  0.51503695  0.26457828  0.06596734  1  0.61141  0  0.29938  0.408034  0  0.884649  0
H  H64  1  0.34088619  0.20696297  0.93988443  1  0.622984  0  0.331968  0.417672  0  0.864269  0
H  H65  1  0.48761928  0.85181533  0.17108993  1  0.635636  0  0.277242  0.407652  0  0.936429  0
H  H66  1  0.64036138  0.09399375  0.22202628  1  0.649149  0  0.277762  0.407099  0  0.937173  0
H  H67  1  0.43406412  0.01258781  0.26576338  1  0.646654  0  0.277241  0.40505  0  0.940956  0
C  C68  1  0.06390853  0.86262812  0.19888351  1  0.099174  0  0.007746  0.137703  0  4.138419  0
C  C69  1  0.07057018  0.81482295  0.24806660  1  0.023732  0  -0.06078  -0.152535  0  3.840095  0
C  C70  1  0.00400841  0.79224642  0.27020534  1  0.082281  0  0.005281  0.132937  0  4.146633  0
C  C71  1  0.93071068  0.81781655  0.24337921  1  -0.052314  0  -0.059134  -0.147394  0  3.833054  0
C  C72  1  0.92370220  0.86549506  0.19408892  1  0.12478  0  0.00557  0.130515  0  4.145075  0
C  C73  1  0.99037986  0.88779207  0.17184779  1  0.019973  0  -0.060777  -0.151969  0  3.835058  0
C  C74  1  0.87927525  0.19583311  0.96354733  1  0.067166  0  0.006452  0.136077  0  4.138002  0
C  C75  1  0.86897568  0.24544882  0.91596323  1  -0.001466  0  -0.062102  -0.154611  0  3.838382  0
C  C76  1  0.93384327  0.27457500  0.89617979  1  0.152792  0  0.006109  0.136289  0  4.142125  0
C  C77  1  0.00907753  0.25331000  0.92337707  1  0.01042  0  -0.060476  -0.152844  0  3.835017  0
C  C78  1  0.01969123  0.20331720  0.97044355  1  0.07454  0  0.006129  0.133272  0  4.142787  0
C  C79  1  0.95468787  0.17490569  0.99066140  1  -0.023793  0  -0.063249  -0.15461  0  3.839446  0
C  C80  1  0.77302126  0.58101194  0.68646145  1  1.685439  0  0.239944  0.714229  0  4.181411  0
C  C81  1  0.72123605  0.47427258  0.49054096  1  1.654707  0  0.236043  0.706153  0  4.192989  0
C  C82  1  0.92964926  0.41602926  0.75832305  1  1.677863  0  0.236125  0.708389  0  4.199611  0
C  C83  1  0.22257604  0.57819493  0.65979629  1  1.65358  0  0.233615  0.700281  0  4.210088  0
C  C84  1  0.16893334  0.47373506  0.48103212  1  1.613335  0  0.235867  0.709091  0  4.190151  0
C  C85  1  0.00222861  0.65177306  0.40827774  1  1.67339  0  0.236241  0.707002  0  4.192459  0
C  C86  1  0.36152938  0.41365988  0.41211815  1  0.060132  0  0.005799  0.1314  0  4.1406  0
C  C87  1  0.35224393  0.36721150  0.36149948  1  -0.014874  0  -0.063065  -0.155959  0  3.846441  0
C  C88  1  0.41714855  0.34527155  0.33646531  1  0.08493  0  0.005995  0.136212  0  4.145946  0
C  C89  1  0.49152895  0.36905782  0.36279312  1  0.009638  0  -0.057141  -0.144946  0  3.825172  0
C  C90  1  0.50139711  0.41425530  0.41439064  1  0.131582  0  0.006625  0.134465  0  4.140764  0
C  C91  1  0.43612503  0.43689470  0.43864833  1  0.035854  0  -0.06162  -0.152611  0  3.838821  0
C  C92  1  0.57917741  0.64633003  0.74948797  1  0.102324  0  0.005698  0.134412  0  4.140068  0
C  C93  1  0.58395455  0.69647255  0.79630759  1  4.7e-05  0  -0.062999  -0.157076  0  3.846175  0
C  C94  1  0.51604643  0.72038424  0.81540750  1  0.10308  0  0.00609  0.134847  0  4.142432  0
C  C95  1  0.44327823  0.69489118  0.78684002  1  -0.000583  0  -0.059633  -0.150015  0  3.828217  0
C  C96  1  0.43812338  0.64550625  0.73929733  1  0.091301  0  0.006966  0.137956  0  4.141162  0
C  C97  1  0.50626200  0.62103776  0.72100555  1  -0.002499  0  -0.060561  -0.152876  0  3.837407  0
C  C98  1  0.23835851  0.13498614  0.03532322  1  1.662703  0  0.239414  0.712897  0  4.183558  0
C  C99  1  0.25662659  0.93443421  0.13817024  1  1.676953  0  0.238149  0.710682  0  4.192525  0
C  C100  1  0.41590925  0.20797335  0.19514312  1  1.692721  0  0.237418  0.709772  0  4.19766  0
C  C101  1  0.69357887  0.11391834  0.02772397  1  1.68148  0  0.233455  0.69946  0  4.209134  0
C  C102  1  0.70427866  0.93312081  0.13092629  1  1.669859  0  0.237453  0.710729  0  4.186646  0
C  C103  1  0.51391229  0.85825624  0.95615636  1  1.650087  0  0.235821  0.70539  0  4.192188  0
C  C104  1  0.51967923  0.76948777  0.86393624  1  -0.444616  0  -0.021432  -0.030081  0  4.085129  0
C  C105  1  0.51955342  0.81046310  0.90634188  1  0.154632  0  -0.043355  -0.193535  0  3.959992  0
C  C106  1  0.40863965  0.25905420  0.24159022  1  0.208015  0  -0.03966  -0.182427  0  3.945743  0
C  C107  1  0.40978440  0.29881809  0.28524925  1  -0.485262  0  -0.024882  -0.039102  0  4.083569  0
C  C108  1  0.29538324  0.43626217  0.43634349  1  -0.163401  0  -0.019877  -0.024197  0  4.075251  0
C  C109  1  0.23766097  0.45481427  0.45626488  1  -0.075556  0  -0.046117  -0.19807  0  3.953372  0
C  C110  1  0.64301210  0.45421036  0.46313109  1  -0.1468  0  -0.038643  -0.182397  0  3.938915  0
C  C111  1  0.57715247  0.43648793  0.44118546  1  -0.124066  0  -0.021588  -0.032046  0  4.074871  0
C  C112  1  0.36436347  0.62051035  0.71051399  1  -0.114907  0  -0.022529  -0.035558  0  4.081352  0
C  C113  1  0.30062420  0.59959922  0.68627728  1  -0.147309  0  -0.03923  -0.181514  0  3.943305  0
C  C114  1  0.70603262  0.60103503  0.71307178  1  0.109339  0  -0.041494  -0.191504  0  3.941114  0
C  C115  1  0.64759478  0.62180792  0.73030174  1  -0.419659  0  -0.017854  -0.024415  0  4.068712  0
C  C116  1  0.09578865  0.18135179  0.99650703  1  -0.464373  0  -0.018001  -0.024239  0  4.070221  0
C  C117  1  0.16160933  0.16242086  0.01703254  1  0.203409  0  -0.04152  -0.191648  0  3.944263  0
C  C118  1  0.76004419  0.14179444  0.00501480  1  -0.092104  0  -0.040981  -0.183989  0  3.942797  0
C  C119  1  0.81441675  0.16687400  0.98494469  1  -0.187988  0  -0.022801  -0.034019  0  4.078942  0
C  C120  1  0.92559701  0.32525548  0.84889189  1  -0.444358  0  -0.023956  -0.036869  0  4.081068  0
C  C121  1  0.92419444  0.36909444  0.80905665  1  0.156453  0  -0.04156  -0.185674  0  3.947165  0
C  C122  1  0.13121178  0.88574718  0.17696331  1  -0.390764  0  -0.022576  -0.035078  0  4.082398  0
C  C123  1  0.18906630  0.90627534  0.15875156  1  0.126367  0  -0.037926  -0.180041  0  3.94216  0
C  C124  1  0.78295047  0.90971321  0.14894851  1  0.123693  0  -0.044227  -0.195209  0  3.95386  0
C  C125  1  0.84886006  0.89028854  0.16815643  1  -0.431293  0  -0.019878  -0.025563  0  4.076955  0
C  C126  1  0.00838816  0.70105542  0.36000772  1  0.197013  0  -0.042379  -0.191542  0  3.961111  0
C  C127  1  0.00906116  0.74346659  0.31909505  1  -0.485516  0  -0.022378  -0.032406  0  4.087877  0
O  O128  1  0.84100374  0.35890894  0.59116672  1  -1.266144  0  -0.610497  -0.830292  0  2.017957  0
O  O129  1  0.77708336  0.52131382  0.66955174  1  -1.154275  0  -0.335582  -0.590716  0  2.215918  0
O  O130  1  0.87185362  0.41784079  0.71098791  1  -1.168663  0  -0.363691  -0.641783  0  2.236754  0
O  O131  1  0.75869605  0.50586765  0.45334416  1  -1.181979  0  -0.341916  -0.638807  0  2.245607  0
O  O132  1  0.99187392  0.44897112  0.76384790  1  -1.171374  0  -0.329452  -0.604452  0  2.239262  0
O  O133  1  0.74472526  0.45894068  0.54969721  1  -1.155355  0  -0.343723  -0.592688  0  2.234372  0
O  O134  1  0.82174882  0.62678776  0.68066638  1  -1.179198  0  -0.35725  -0.641893  0  2.238774  0
O  O135  1  0.93955513  0.53509282  0.66028597  1  -1.219932  0  -0.782931  -1.184895  0  2.081091  0
O  O136  1  0.83264476  0.56710783  0.56543176  1  -1.243641  0  -0.694998  -1.070977  0  2.318426  0
O  O137  1  0.98240375  0.41876348  0.63343311  1  -1.253919  0  -0.676562  -1.01376  0  2.17505  0
O  O138  1  0.90550699  0.46990339  0.53095066  1  -1.217323  0  -0.782158  -1.153535  0  2.037992  0
O  O139  1  0.87755039  0.49050150  0.38931478  1  -1.222949  0  -0.648811  -0.916936  0  1.905471  0
O  O140  1  0.95987577  0.67254001  0.73512287  1  -1.226908  0  -0.587706  -0.778153  0  2.000001  0
O  O141  1  0.95939359  0.61126174  0.53967571  1  -1.221661  0  -0.780364  -1.156731  0  2.027559  0
O  O142  1  0.05135537  0.61085089  0.64859118  1  -1.265327  0  -0.677713  -1.049496  0  2.176779  0
O  O143  1  0.06845300  0.50106808  0.59008604  1  -1.212915  0  -0.791728  -1.176757  0  2.137683  0
O  O144  1  0.00602649  0.51915574  0.47255389  1  -1.248414  0  -0.692898  -1.064015  0  2.299874  0
O  O145  1  0.09017927  0.55458988  0.77192671  1  -1.198226  0  -0.70448  -0.955911  0  1.78711  0
O  O146  1  0.19134425  0.53586836  0.69029242  1  -1.150962  0  -0.299783  -0.559642  0  2.222249  0
O  O147  1  0.19128867  0.60706968  0.60637272  1  -1.190182  0  -0.374058  -0.66412  0  2.25837  0
O  O148  1  0.95204698  0.33351728  0.53525120  1  -1.255453  0  -0.656573  -0.923361  0  1.895087  0
O  O149  1  0.16242921  0.53371752  0.49626551  1  -1.15172  0  -0.339233  -0.594782  0  2.217248  0
O  O150  1  0.12518367  0.41602716  0.70435465  1  -1.225786  0  -0.65307  -0.924679  0  1.913624  0
O  O151  1  0.10829275  0.36428257  0.59486104  1  -1.26068  0  -0.61457  -0.831687  0  2.019049  0
O  O152  1  0.96607516  0.39661919  0.42510561  1  -1.256503  0  -0.604625  -0.842744  0  2.007533  0
O  O153  1  0.12042286  0.42718507  0.48538049  1  -1.185823  0  -0.357142  -0.656695  0  2.231681  0
O  O154  1  0.10410254  0.70656008  0.56167934  1  -1.209728  0  -0.564137  -0.768504  0  2.029023  0
O  O155  1  0.80607153  0.63546059  0.45111727  1  -1.243472  0  -0.662322  -0.937875  0  1.870604  0
O  O156  1  0.06263162  0.64395137  0.45311811  1  -1.18395  0  -0.36852  -0.661452  0  2.237328  0
O  O157  1  0.93874213  0.62124617  0.40274644  1  -1.146622  0  -0.31851  -0.567473  0  2.231795  0
O  O158  1  0.83093272  0.69718313  0.56081121  1  -1.282685  0  -0.613585  -0.814623  0  2.015137  0
O  O159  1  0.96413305  0.72976436  0.63005141  1  -1.276775  0  -0.684245  -0.993582  0  1.793035  0
O  O160  1  0.37902405  0.03749479  0.25142293  1  -1.24746  0  -0.611662  -0.832386  0  2.017917  0
O  O161  1  0.25978477  0.11663561  0.09374863  1  -1.153563  0  -0.336447  -0.592131  0  2.218709  0
O  O162  1  0.36884665  0.15935055  0.19380604  1  -1.17827  0  -0.363544  -0.640781  0  2.23924  0
O  O163  1  0.29496388  0.89761248  0.10587535  1  -1.176886  0  -0.342048  -0.64093  0  2.24215  0
O  O164  1  0.46961523  0.21463048  0.16227105  1  -1.157166  0  -0.328329  -0.602789  0  2.237418  0
O  O165  1  0.27018879  0.99429664  0.15392393  1  -1.156449  0  -0.344007  -0.593189  0  2.237898  0
O  O166  1  0.27765495  0.13025738  0.98924443  1  -1.168581  0  -0.355885  -0.639471  0  2.238519  0
O  O167  1  0.42079425  0.11012573  0.07700616  1  -1.221454  0  -0.783023  -1.185079  0  2.081926  0
O  O168  1  0.32851071  0.01302239  0.04575277  1  -1.263383  0  -0.695053  -1.070295  0  2.316345  0
O  O169  1  0.49649826  0.08246808  0.19059808  1  -1.223761  0  -0.676807  -1.013439  0  2.175373  0
O  O170  1  0.43147181  0.97826967  0.13973461  1  -1.218032  0  -0.783248  -1.15349  0  2.039028  0
O  O171  1  0.43158356  0.83506996  0.11745882  1  -1.247523  0  -0.647861  -0.914977  0  1.908427  0
O  O172  1  0.39260887  0.18796405  0.94327696  1  -1.251136  0  -0.586412  -0.776359  0  2.003947  0
O  O173  1  0.45047776  0.98969473  0.99947125  1  -1.224937  0  -0.779988  -1.156217  0  2.02647  0
O  O174  1  0.51734407  0.10111090  0.00028417  1  -1.255233  0  -0.677884  -1.048395  0  2.176402  0
O  O175  1  0.57313549  0.04087813  0.10707895  1  -1.210608  0  -0.791357  -1.175716  0  2.134945  0
O  O176  1  0.53362048  0.92151489  0.08831954  1  -1.243614  0  -0.692741  -1.065096  0  2.296945  0
O  O177  1  0.54297182  0.22526353  0.05739818  1  -1.222907  0  -0.705044  -0.957814  0  1.785004  0
O  O178  1  0.66674985  0.14336837  0.07150067  1  -1.145464  0  -0.297839  -0.558839  0  2.207506  0
O  O179  1  0.66673509  0.06015075  0.99874705  1  -1.190127  0  -0.375993  -0.667763  0  2.255732  0
O  O180  1  0.50752290  0.98176500  0.27362160  1  -1.247035  0  -0.655162  -0.921437  0  1.898373  0
O  O181  1  0.68059119  0.94858924  0.07195917  1  -1.15913  0  -0.339525  -0.594248  0  2.217469  0
O  O182  1  0.62386156  0.15567093  0.19139274  1  -1.248965  0  -0.653029  -0.924827  0  1.91335  0
O  O183  1  0.64230545  0.04499441  0.24218712  1  -1.255858  0  -0.614959  -0.833357  0  2.019181  0
O  O184  1  0.53237699  0.87182273  0.20933152  1  -1.254669  0  -0.605386  -0.84562  0  2.007569  0
O  O185  1  0.66543646  0.93592745  0.17758809  1  -1.182382  0  -0.358332  -0.657057  0  2.232052  0
O  O186  1  0.56570381  0.01534089  0.90250146  1  -1.231371  0  -0.564234  -0.768868  0  2.029174  0
O  O187  1  0.31245385  0.89840546  0.97690549  1  -1.24377  0  -0.662847  -0.940316  0  1.872113  0
O  O188  1  0.56573534  0.90430531  0.96381331  1  -1.177374  0  -0.369589  -0.66193  0  2.234149  0
O  O189  1  0.45907883  0.85123495  0.98733947  1  -1.147972  0  -0.316969  -0.566233  0  2.228823  0
O  O190  1  0.29749976  0.01015337  0.91739051  1  -1.253525  0  -0.612498  -0.812149  0  2.018428  0
O  O191  1  0.40689815  0.08277109  0.88423219  1  -1.272525  0  -0.685397  -0.993309  0  1.791876  0
