# generated using pymatgen
data_MnH7C6N9O5
_symmetry_space_group_name_H-M   'P 1'
_cell_length_a   8.74672185
_cell_length_b   9.18269247
_cell_length_c   9.18268757
_cell_angle_alpha   113.91640480
_cell_angle_beta   106.27941287
_cell_angle_gamma   106.27954120
_symmetry_Int_Tables_number   1
_chemical_formula_structural   MnH7C6N9O5
_chemical_formula_sum   'Mn2 H14 C12 N18 O10'
_cell_volume   578.28552996
_cell_formula_units_Z   2
loop_
 _symmetry_equiv_pos_site_id
 _symmetry_equiv_pos_as_xyz
  1  'x, y, z'
loop_
 _atom_site_type_symbol
 _atom_site_label
 _atom_site_symmetry_multiplicity
 _atom_site_fract_x
 _atom_site_fract_y
 _atom_site_fract_z
 _atom_site_occupancy
 _atom_site_hle17_ddec_charge
 _atom_site_hle17_ddec_spin_density
 _atom_site_hle17_ddec_sum_bond_order
 _atom_site_hle17_magmom
 _atom_site_hse06_10hf_ddec_charge
 _atom_site_hse06_10hf_ddec_spin_density
 _atom_site_hse06_10hf_ddec_sum_bond_order
 _atom_site_hse06_10hf_magmom
 _atom_site_hse06_ddec_charge
 _atom_site_hse06_ddec_spin_density
 _atom_site_hse06_ddec_sum_bond_order
 _atom_site_hse06_magmom
 _atom_site_pbe_cm5_charge
 _atom_site_pbe_ddec_charge
 _atom_site_pbe_ddec_spin_density
 _atom_site_pbe_ddec_sum_bond_order
 _atom_site_pbe_magmom
Mn  Mn0  1  0.17453234  0.68336976  0.41142512  1  1.181263  4.786157  1.837251  4.68  1.019269  4.70623  2.345553  4.535  1.072865  4.749778  2.27606  4.597  0.618655  0.977802  4.661331  2.396654  4.474
Mn  Mn1  1  0.67453161  0.41142586  0.68336944  1  1.18133  4.786158  1.837179  4.68  1.019346  4.706237  2.345441  4.535  1.07294  4.749784  2.275952  4.597  0.61868  0.977862  4.661345  2.396557  4.474
H  H2  1  0.38631483  0.22018098  0.95554324  1  0.33486  6.3e-05  0.910454  0.0  0.305247  0.000142  0.987579  0.0  0.314565  0.000103  0.980167  0.0  0.314784  0.298739  0.000183  0.992643  0.0
H  H3  1  0.88631594  0.95554532  0.22018266  1  0.334897  6.2e-05  0.910378  0.0  0.305255  0.000141  0.987536  0.0  0.314576  0.000103  0.980122  0.0  0.314776  0.298742  0.000183  0.992606  0.0
H  H4  1  0.75055195  0.10805453  0.65269985  1  0.144335  -8e-05  0.95792  0.0  0.146968  0.000187  1.029691  0.0  0.150654  5.2e-05  1.027139  0.0  0.127231  0.144324  0.000327  1.031651  0.0
H  H5  1  0.25055363  0.65270140  0.10805784  1  0.144325  -7e-05  0.957948  0.0  0.146983  0.000187  1.029701  0.0  0.150666  5.2e-05  1.02715  0.0  0.127228  0.144341  0.000327  1.031664  0.0
H  H6  1  0.65535937  0.92240562  0.42741233  1  0.14301  -8.4e-05  0.924665  0.0  0.147727  9.1e-05  0.995334  0.0  0.151302  -1.5e-05  0.992216  0.0  0.130779  0.145158  0.000226  0.997709  0.0
H  H7  1  0.15535963  0.42741408  0.92240674  1  0.143011  -7.6e-05  0.924649  0.0  0.147735  9.1e-05  0.995324  0.0  0.151308  -1.5e-05  0.992202  0.0  0.130785  0.145168  0.000226  0.997695  0.0
H  H8  1  0.84274752  0.25891400  0.18405328  1  0.132365  -1e-06  0.931365  0.0  0.141197  0.000284  0.996721  0.0  0.145018  0.000129  0.993017  0.0  0.129719  0.138257  0.000471  0.999643  0.001
H  H9  1  0.34274723  0.18405421  0.25891387  1  0.13233  -5e-06  0.931405  0.0  0.141172  0.000284  0.996765  0.0  0.144994  0.000129  0.993061  0.0  0.129702  0.138235  0.000471  0.999679  0.001
H  H10  1  0.66817079  0.32130751  0.16018859  1  0.143801  0.000293  0.906181  0.0  0.157939  0.000689  0.959792  0.001  0.161217  0.000442  0.95724  0.001  0.133562  0.155358  0.000987  0.961955  0.001
H  H11  1  0.16817070  0.16018894  0.32130866  1  0.14381  0.000289  0.906211  0.0  0.157951  0.000689  0.959832  0.001  0.161229  0.000442  0.957281  0.001  0.133569  0.15537  0.000988  0.961995  0.001
H  H12  1  0.03751918  0.39543611  0.46917728  1  0.423649  0.00049  0.873592  0.002  0.392383  0.001202  0.938981  0.003  0.403127  0.000838  0.923278  0.002  0.294792  0.384642  0.001545  0.950269  0.003
H  H13  1  0.53751902  0.46917568  0.39543455  1  0.423648  0.00049  0.873602  0.002  0.39238  0.001202  0.93899  0.003  0.403123  0.000838  0.923287  0.002  0.294786  0.384638  0.001545  0.950276  0.003
H  H14  1  0.07457506  0.58016712  0.62802349  1  0.394266  -0.000181  0.915711  0.001  0.350684  0.000441  1.002908  0.002  0.360887  0.000155  0.988075  0.001  0.291762  0.343465  0.000713  1.013348  0.002
H  H15  1  0.57457379  0.62802251  0.58016468  1  0.394294  -0.000181  0.915709  0.001  0.3507  0.000441  1.002892  0.002  0.360902  0.000155  0.988058  0.001  0.291772  0.343482  0.000712  1.013331  0.002
C  C16  1  0.17071944  0.02891131  0.71450654  1  0.500825  0.001868  3.789685  0.003  0.449964  0.003343  4.089275  0.004  0.468675  0.002703  4.100994  0.004  0.348151  0.437129  0.004019  4.08153  0.005
C  C17  1  0.67071940  0.71450846  0.02891098  1  0.500812  0.001868  3.789578  0.003  0.449942  0.003342  4.089182  0.004  0.468654  0.002704  4.100899  0.004  0.348115  0.437111  0.004019  4.081426  0.005
C  C18  1  0.45184485  0.02190429  0.81713430  1  0.500169  0.001364  3.755485  0.002  0.430855  0.003068  4.0539  0.004  0.455405  0.002253  4.061703  0.003  0.370487  0.414239  0.003922  4.048471  0.005
C  C19  1  0.95184416  0.81713393  0.02190575  1  0.500129  0.001327  3.755392  0.002  0.430838  0.003068  4.053773  0.004  0.45539  0.002254  4.061574  0.003  0.370501  0.414225  0.003922  4.048335  0.005
C  C20  1  0.83073529  0.39776842  0.03945791  1  0.713382  0.013318  3.836266  0.014  0.659888  0.021723  4.143645  0.021  0.695107  0.016232  4.135957  0.016  0.226207  0.634772  0.027937  4.148434  0.026
C  C21  1  0.33073859  0.03946321  0.39777177  1  0.713288  0.013318  3.836249  0.014  0.659844  0.021723  4.143569  0.021  0.695065  0.016232  4.135882  0.016  0.226232  0.634728  0.027939  4.148359  0.026
C  C22  1  0.77460271  0.04481911  0.53747558  1  -0.232652  0.000642  3.602837  0.001  -0.300995  0.001371  3.846666  0.001  -0.303974  0.00088  3.850755  0.001  -0.04967  -0.298929  0.001896  3.844122  0.001
C  C23  1  0.27460486  0.53747971  0.04482298  1  -0.232599  0.000607  3.602902  0.001  -0.301009  0.001372  3.846746  0.001  -0.303975  0.00088  3.850824  0.001  -0.049667  -0.298957  0.001896  3.844217  0.001
C  C24  1  0.82578166  0.17255870  0.47185681  1  0.710437  0.004536  3.818224  0.005  0.660476  0.008508  4.118634  0.008  0.694032  0.006397  4.112023  0.007  0.228634  0.637384  0.010767  4.122214  0.01
C  C25  1  0.32577979  0.47185592  0.17256004  1  0.71044  0.004553  3.818309  0.005  0.66047  0.008508  4.118758  0.008  0.694021  0.006398  4.112146  0.007  0.228629  0.637385  0.010767  4.122336  0.01
C  C26  1  0.74198651  0.26895696  0.09116831  1  -0.177827  0.001149  3.593901  0.001  -0.240116  0.002317  3.845039  0.002  -0.240083  0.001517  3.846922  0.001  -0.046453  -0.239892  0.003146  3.844268  0.002
C  C27  1  0.24198649  0.09116867  0.26895773  1  -0.177768  0.001164  3.59391  0.001  -0.240108  0.002318  3.845096  0.002  -0.24008  0.001516  3.846982  0.001  -0.04642  -0.239884  0.003146  3.84432  0.002
N  N28  1  0.91617931  0.99696996  0.58816184  1  0.221806  0.002374  3.632245  0.003  0.307787  0.004315  3.859643  0.005  0.30593  0.003424  3.879802  0.004  0.001595  0.308713  0.005342  3.84645  0.005
N  N29  1  0.41617825  0.58816101  0.99697120  1  0.221747  0.002392  3.63235  0.003  0.307837  0.004313  3.859619  0.005  0.305976  0.003428  3.879778  0.004  0.001601  0.308764  0.005342  3.846432  0.005
N  N30  1  0.08026009  0.86883492  0.55722928  1  -0.360713  0.026989  3.095815  0.013  -0.312295  0.032559  3.404592  0.015  -0.329378  0.029433  3.411511  0.012  -0.205867  -0.300188  0.035528  3.40011  0.017
N  N31  1  0.58025887  0.55722993  0.86883445  1  -0.360741  0.026994  3.095813  0.013  -0.312308  0.03256  3.40458  0.015  -0.32939  0.029432  3.411497  0.012  -0.205897  -0.300202  0.035527  3.400096  0.017
N  N32  1  0.06891371  0.11296047  0.73796958  1  -0.333012  -0.000756  2.770682  0.0  -0.338984  0.000266  3.038305  0.0  -0.348442  -0.000469  3.047999  0.0  -0.200295  -0.332971  0.000887  3.032361  0.001
N  N33  1  0.56891414  0.73797048  0.11296150  1  -0.332998  -0.00076  2.770599  0.0  -0.338993  0.000267  3.038192  0.0  -0.348453  -0.00047  3.047888  0.0  -0.200261  -0.332987  0.000887  3.032253  0.001
N  N34  1  0.91860234  0.85214583  0.47794588  1  -0.023934  0.001951  2.828085  0.003  -0.047061  0.0043  3.100431  0.005  -0.037887  0.003141  3.10699  0.004  -0.051107  -0.053298  0.005812  3.096238  0.007
N  N35  1  0.41860143  0.47794626  0.85214811  1  -0.023919  0.001933  2.828219  0.003  -0.047083  0.004303  3.100528  0.005  -0.03791  0.003137  3.10709  0.004  -0.051094  -0.053319  0.005812  3.096335  0.007
N  N36  1  0.41233231  0.86410886  0.68050910  1  -0.374385  0.027315  3.060095  0.015  -0.328989  0.033207  3.366308  0.017  -0.348576  0.030126  3.373147  0.014  -0.217773  -0.315224  0.036118  3.361738  0.019
N  N37  1  0.91233301  0.68051047  0.86410839  1  -0.374461  0.027346  3.060187  0.015  -0.329067  0.033204  3.366395  0.017  -0.348655  0.030134  3.373236  0.014  -0.217801  -0.315299  0.03612  3.361815  0.019
N  N38  1  0.34361105  0.10093971  0.83744316  1  -0.477012  4.3e-05  3.35717  0.001  -0.424174  0.000794  3.617976  0.001  -0.446044  0.000451  3.621891  0.001  -0.373103  -0.408985  0.001174  3.614968  0.002
N  N39  1  0.84361216  0.83744434  0.10093897  1  -0.476986  5e-05  3.357129  0.001  -0.424178  0.000794  3.618036  0.001  -0.446052  0.000451  3.621951  0.001  -0.37308  -0.408986  0.001174  3.615022  0.002
N  N40  1  0.56251734  0.84172363  0.71949795  1  -0.029529  0.000361  3.018431  0.002  -0.008391  0.00223  3.312605  0.003  -0.005714  0.001279  3.320634  0.002  -0.051877  -0.010172  0.003233  3.30737  0.004
N  N41  1  0.06251669  0.71949750  0.84172203  1  -0.02948  0.00037  3.018347  0.002  -0.008338  0.00223  3.312517  0.003  -0.005662  0.001276  3.320548  0.002  -0.051845  -0.010119  0.003233  3.307281  0.004
N  N42  1  0.62349031  0.09118390  0.93737324  1  -0.035695  -1.1e-05  3.490769  0.0  0.045099  0.000709  3.730604  0.001  0.030624  0.000307  3.751639  0.0  -0.123206  0.054451  0.001144  3.71657  0.001
N  N43  1  0.12349387  0.93737489  0.09118615  1  -0.035603  7e-06  3.49049  0.0  0.04518  0.000709  3.730361  0.001  0.030707  0.000312  3.751394  0.0  -0.123259  0.054526  0.001144  3.716331  0.001
N  N44  1  0.69033990  0.97622528  0.87087135  1  -0.080913  0.002254  2.848996  0.003  -0.099516  0.003726  3.145581  0.004  -0.096103  0.002876  3.154062  0.003  -0.07424  -0.101721  0.004721  3.140014  0.005
N  N45  1  0.19034057  0.87087206  0.97622574  1  -0.080979  0.002233  2.848875  0.003  -0.099574  0.00373  3.14546  0.004  -0.096161  0.002868  3.153942  0.003  -0.074255  -0.101784  0.004722  3.139901  0.005
O  O46  1  0.78473806  0.33860130  0.87531323  1  -0.657281  0.030705  2.062826  0.019  -0.599209  0.040916  2.336703  0.026  -0.627922  0.035675  2.323618  0.021  -0.310432  -0.578084  0.046269  2.345277  0.03
O  O47  1  0.28473771  0.87531168  0.33859963  1  -0.657248  0.030707  2.062663  0.019  -0.599184  0.040916  2.336505  0.026  -0.627898  0.035673  2.323423  0.021  -0.310446  -0.578067  0.046267  2.345102  0.03
O  O48  1  0.92076537  0.15570625  0.38941707  1  -0.64448  0.003973  1.959897  0.005  -0.588427  0.006558  2.181091  0.007  -0.61445  0.005074  2.172297  0.006  -0.314826  -0.570038  0.008157  2.186655  0.009
O  O49  1  0.42076219  0.38941408  0.15570604  1  -0.644467  0.003969  1.959938  0.005  -0.588432  0.006558  2.18115  0.007  -0.614453  0.005074  2.172361  0.006  -0.314821  -0.570036  0.008158  2.186702  0.009
O  O50  1  0.76958096  0.28942765  0.50405191  1  -0.630636  0.031576  2.033061  0.019  -0.557145  0.037416  2.286626  0.021  -0.588484  0.033645  2.274333  0.018  -0.307818  -0.53396  0.041102  2.294195  0.024
O  O51  1  0.26957635  0.50405019  0.28942631  1  -0.630636  0.031575  2.033161  0.019  -0.557143  0.037416  2.286735  0.021  -0.588483  0.033648  2.274444  0.018  -0.307819  -0.533965  0.041103  2.294309  0.024
O  O52  1  0.94138212  0.55459620  0.16708538  1  -0.644808  0.032276  2.058888  0.02  -0.583404  0.041674  2.335872  0.025  -0.613511  0.036513  2.322175  0.021  -0.312484  -0.561111  0.046909  2.344744  0.03
O  O53  1  0.44138261  0.16708492  0.55459575  1  -0.644777  0.032273  2.058969  0.02  -0.58341  0.041675  2.335977  0.025  -0.613515  0.036514  2.322279  0.021  -0.312496  -0.561112  0.046908  2.34485  0.03
O  O54  1  0.10264395  0.52610541  0.52774750  1  -0.84132  0.031409  1.964461  0.02  -0.786783  0.041725  2.187089  0.027  -0.808839  0.037055  2.150853  0.023  -0.577203  -0.76985  0.046125  2.212347  0.031
O  O55  1  0.60264719  0.52775076  0.52610766  1  -0.841369  0.03141  1.964429  0.02  -0.786801  0.041726  2.187061  0.027  -0.808865  0.037057  2.150842  0.023  -0.577217  -0.769869  0.046124  2.212318  0.031
