# generated using pymatgen
data_HgH14C14(BrN2)2
_symmetry_space_group_name_H-M   'P 1'
_cell_length_a   7.68109441
_cell_length_b   8.29965132
_cell_length_c   13.60314664
_cell_angle_alpha   88.07265092
_cell_angle_beta   99.16198722
_cell_angle_gamma   106.14696721
_symmetry_Int_Tables_number   1
_chemical_formula_structural   HgH14C14(BrN2)2
_chemical_formula_sum   'Hg2 H28 C28 Br4 N8'
_cell_volume   822.31702184
_cell_formula_units_Z   2
loop_
 _symmetry_equiv_pos_site_id
 _symmetry_equiv_pos_as_xyz
  1  'x, y, z'
loop_
 _atom_site_type_symbol
 _atom_site_label
 _atom_site_symmetry_multiplicity
 _atom_site_fract_x
 _atom_site_fract_y
 _atom_site_fract_z
 _atom_site_occupancy
 _atom_site_hle17_bader_spin_density
 _atom_site_hle17_ddec_charge
 _atom_site_hle17_ddec_spin_density
 _atom_site_hle17_ddec_sum_bond_order
 _atom_site_hle17_magmom
 _atom_site_hse06_10hf_bader_spin_density
 _atom_site_hse06_10hf_ddec_charge
 _atom_site_hse06_10hf_ddec_spin_density
 _atom_site_hse06_10hf_ddec_sum_bond_order
 _atom_site_hse06_10hf_magmom
 _atom_site_hse06_bader_spin_density
 _atom_site_hse06_ddec_charge
 _atom_site_hse06_ddec_spin_density
 _atom_site_hse06_ddec_sum_bond_order
 _atom_site_hse06_magmom
 _atom_site_pbe_bader_spin_density
 _atom_site_pbe_cm5_charge
 _atom_site_pbe_ddec_charge
 _atom_site_pbe_ddec_spin_density
 _atom_site_pbe_ddec_sum_bond_order
 _atom_site_pbe_magmom
Hg  Hg0  1  0.58718515  0.26535262  0.26015183  1  0  0.667185  0  2.072662  0  0  0.501617  0  2.579574  0  0  0.551434  0  2.547491  0  0  0.466298  0.468028  0  2.600575  0
Hg  Hg1  1  0.41282657  0.73465934  0.73983721  1  0  0.66728  0  2.072242  0  0  0.501663  0  2.579281  0  0  0.551479  0  2.547194  0  0  0.466335  0.468075  0  2.600288  0
H  H2  1  0.00332362  0.37057613  0.40824145  1  0  0.067252  0  0.944726  0  0  0.076264  0  1.011759  0  0  0.07841  0  1.009843  0  0  0.107434  0.074626  0  1.013298  0
H  H3  1  0.99666432  0.62942136  0.59175892  1  0  0.067266  0  0.944787  0  0  0.07624  0  1.011839  0  0  0.078411  0  1.009902  0  0  0.107417  0.074603  0  1.013374  0
H  H4  1  0.27533889  0.26031880  0.45902496  1  0  0.111873  0  0.975767  0  0  0.112631  0  1.052194  0  0  0.116915  0  1.049152  0  0  0.0986  0.109565  0  1.054541  0
H  H5  1  0.72466025  0.73969386  0.54097340  1  0  0.111881  0  0.975775  0  0  0.112682  0  1.052126  0  0  0.116969  0  1.049081  0  0  0.09864  0.109617  0  1.054473  0
H  H6  1  0.94101558  0.78285247  0.33032971  1  0  0.093295  0  0.991028  0  0  0.101447  0  1.060432  0  0  0.104483  0  1.059041  0  0  0.094466  0.099214  0  1.061655  0
H  H7  1  0.05895432  0.21712570  0.66969933  1  0  0.093279  0  0.991159  0  0  0.101383  0  1.06062  0  0  0.104433  0  1.059196  0  0  0.094425  0.099151  0  1.061843  0
H  H8  1  0.68715980  0.91264685  0.28435189  1  0  0.074223  0  0.959627  0  0  0.079246  0  1.031102  0  0  0.081871  0  1.028626  0  0  0.100773  0.077345  0  1.032908  0
H  H9  1  0.31282230  0.08733842  0.71566341  1  0  0.074184  0  0.959567  0  0  0.079169  0  1.031095  0  0  0.081782  0  1.028651  0  0  0.100733  0.077276  0  1.03288  0
H  H10  1  0.37323803  0.71192924  0.44960543  1  0  0.132091  0  0.98268  0  0  0.142735  0  1.056908  0  0  0.146149  0  1.054106  0  0  0.087748  0.140232  0  1.058975  0
H  H11  1  0.62678107  0.28809167  0.55040115  1  0  0.132191  0  0.982638  0  0  0.142836  0  1.056837  0  0  0.146256  0  1.054037  0  0  0.087815  0.140333  0  1.058903  0
H  H12  1  0.26207353  0.74307586  0.32796480  1  0  0.123695  0  0.950533  0  0  0.144637  0  1.013593  0  0  0.146034  0  1.013079  0  0  0.089112  0.143635  0  1.013937  0
H  H13  1  0.73792316  0.25693623  0.67204293  1  0  0.123708  0  0.950478  0  0  0.144678  0  1.013501  0  0  0.146075  0  1.012988  0  0  0.089119  0.143674  0  1.013845  0
H  H14  1  0.12976908  0.67677990  0.42559198  1  0  0.108909  0  0.963236  0  0  0.128574  0  1.031417  0  0  0.129856  0  1.03057  0  0  0.088263  0.127598  0  1.032072  0
H  H15  1  0.87024411  0.32321660  0.57442360  1  0  0.108894  0  0.963343  0  0  0.128599  0  1.031443  0  0  0.129894  0  1.030583  0  0  0.088266  0.127622  0  1.032101  0
H  H16  1  0.00040139  0.53509740  0.24214521  1  0  0.064475  0  0.952774  0  0  0.073385  0  1.021857  0  0  0.075261  0  1.020183  0  0  0.107259  0.071976  0  1.023187  0
H  H17  1  0.99962653  0.46490649  0.75785169  1  0  0.064426  0  0.952767  0  0  0.073328  0  1.021868  0  0  0.075198  0  1.020194  0  0  0.107256  0.07192  0  1.023196  0
H  H18  1  0.27622498  0.55633634  0.16053996  1  0  0.110373  0  0.964965  0  0  0.112191  0  1.039677  0  0  0.116493  0  1.036685  0  0  0.104117  0.109097  0  1.041993  0
H  H19  1  0.72380665  0.44366578  0.83946532  1  0  0.110452  0  0.964928  0  0  0.112214  0  1.039632  0  0  0.116515  0  1.036643  0  0  0.104171  0.109123  0  1.041945  0
H  H20  1  0.93657039  0.15438413  0.96253706  1  0  0.104257  0  0.979065  0  0  0.114361  0  1.041743  0  0  0.11752  0  1.040762  0  0  0.096807  0.112068  0  1.042685  0
H  H21  1  0.06346607  0.84561683  0.03746638  1  0  0.104301  0  0.979086  0  0  0.114397  0  1.041768  0  0  0.117556  0  1.040784  0  0  0.096855  0.112103  0  1.042712  0
H  H22  1  0.67749424  0.15237791  0.05077811  1  0  0.072111  0  0.959052  0  0  0.075918  0  1.033601  0  0  0.078717  0  1.03067  0  0  0.100502  0.073806  0  1.03584  0
H  H23  1  0.32254289  0.84761681  0.94922463  1  0  0.07209  0  0.959105  0  0  0.075879  0  1.033658  0  0  0.078689  0  1.03072  0  0  0.100439  0.073756  0  1.035897  0
H  H24  1  0.38495045  0.27581682  0.88143327  1  0  0.127923  0  0.977383  0  0  0.138258  0  1.052545  0  0  0.141727  0  1.049354  0  0  0.091845  0.135729  0  1.054846  0
H  H25  1  0.61507378  0.72417386  0.11857432  1  0  0.12797  0  0.977373  0  0  0.138281  0  1.052564  0  0  0.141749  0  1.049366  0  0  0.091877  0.135751  0  1.054868  0
H  H26  1  0.14274946  0.24854627  0.86102104  1  0  0.117818  0  0.952781  0  0  0.139171  0  1.015752  0  0  0.140063  0  1.016091  0  0  0.092586  0.138525  0  1.015511  0
H  H27  1  0.85726865  0.75144221  0.13898165  1  0  0.117862  0  0.952792  0  0  0.139146  0  1.015805  0  0  0.140038  0  1.016144  0  0  0.092598  0.1385  0  1.015564  0
H  H28  1  0.23691999  0.11845396  0.94662067  1  0  0.120212  0  0.961196  0  0  0.140172  0  1.027258  0  0  0.141145  0  1.027585  0  0  0.090302  0.139418  0  1.027091  0
H  H29  1  0.76311203  0.88154030  0.05338975  1  0  0.120238  0  0.961146  0  0  0.140183  0  1.027197  0  0  0.14116  0  1.027516  0  0  0.090325  0.139428  0  1.027037  0
C  C30  1  0.99656536  0.24095935  0.39161253  1  0  0.110749  0  3.728036  0  0  0.083829  0  3.977906  0  0  0.089366  0  3.998343  0  0  0.036772  0.080208  0  3.964045  0
C  C31  1  0.00342073  0.75904066  0.60838770  1  0  0.110853  0  3.728169  0  0  0.084014  0  3.978  0  0  0.089529  0  3.99843  0  0  0.036937  0.080393  0  3.964144  0
C  C32  1  0.14767085  0.17977760  0.41988145  1  0  -0.134133  0  3.700915  0  0  -0.153176  0  3.950318  0  0  -0.159831  0  3.971842  0  0  -0.077669  -0.14893  0  3.936071  0
C  C33  1  0.85231884  0.82023011  0.58011615  1  0  -0.134224  0  3.701129  0  0  -0.153291  0  3.950545  0  0  -0.159954  0  3.972084  0  0  -0.077763  -0.149047  0  3.936305  0
C  C34  1  0.13282105  0.01120070  0.39873275  1  0  0.048417  0  3.743451  0  0  0.062237  0  3.970489  0  0  0.064004  0  3.993522  0  0  0.009393  0.061161  0  3.95491  0
C  C35  1  0.86716550  0.98880034  0.60127120  1  0  0.048303  0  3.743444  0  0  0.062103  0  3.970592  0  0  0.063851  0  3.993617  0  0  0.009447  0.061027  0  3.955012  0
C  C36  1  0.96447195  0.91465652  0.34811690  1  0  -0.138895  0  3.707365  0  0  -0.156431  0  3.94853  0  0  -0.163304  0  3.970455  0  0  -0.084478  -0.151749  0  3.933651  0
C  C37  1  0.03550779  0.08533370  0.65189971  1  0  -0.138842  0  3.707234  0  0  -0.156344  0  3.948452  0  0  -0.163218  0  3.970385  0  0  -0.084471  -0.151666  0  3.93358  0
C  C38  1  0.82009393  0.98598260  0.32266944  1  0  0.128239  0  3.703762  0  0  0.099364  0  3.953603  0  0  0.106249  0  3.971934  0  0  0.039538  0.094848  0  3.940996  0
C  C39  1  0.17988574  0.01400785  0.67734349  1  0  0.128329  0  3.703418  0  0  0.0995  0  3.953299  0  0  0.106381  0  3.971621  0  0  0.039569  0.094986  0  3.9407  0
C  C40  1  0.28487902  0.93599197  0.43236975  1  0  0.272149  0  3.658106  0  0  0.272516  0  3.916137  0  0  0.280782  0  3.93201  0  0  0.148682  0.266677  0  3.905544  0
C  C41  1  0.71510613  0.06401267  0.56763705  1  0  0.272435  0  3.657675  0  0  0.272698  0  3.915903  0  0  0.281024  0  3.931685  0  0  0.148714  0.266865  0  3.905291  0
C  C42  1  0.26152282  0.75589729  0.40822487  1  0  -0.39148  0  3.716549  0  0  -0.473  0  3.951074  0  0  -0.475767  0  3.956949  0  0  -0.249894  -0.470715  0  3.946993  0
C  C43  1  0.73847850  0.24410849  0.59178320  1  0  -0.391717  0  3.716555  0  0  -0.473258  0  3.951121  0  0  -0.47606  0  3.956973  0  0  -0.249931  -0.470978  0  3.947057  0
C  C44  1  0.99299034  0.45319558  0.17956263  1  0  0.112807  0  3.732029  0  0  0.085454  0  3.982298  0  0  0.091137  0  4.002725  0  0  0.037658  0.081702  0  3.96845  0
C  C45  1  0.00704138  0.54680295  0.82043970  1  0  0.112718  0  3.732253  0  0  0.085405  0  3.982523  0  0  0.091095  0  4.002946  0  0  0.037577  0.081654  0  3.968675  0
C  C46  1  0.14594405  0.46473531  0.13458675  1  0  -0.136655  0  3.703559  0  0  -0.156594  0  3.952617  0  0  -0.163271  0  3.974028  0  0  -0.077771  -0.152284  0  3.938416  0
C  C47  1  0.85408842  0.53526582  0.86541417  1  0  -0.136761  0  3.703525  0  0  -0.156523  0  3.952601  0  0  -0.163196  0  3.974007  0  0  -0.077728  -0.152215  0  3.938407  0
C  C48  1  0.13028462  0.35671254  0.05410824  1  0  0.051165  0  3.741577  0  0  0.065459  0  3.968384  0  0  0.067432  0  3.991225  0  0  0.011292  0.064215  0  3.95294  0
C  C49  1  0.86973884  0.64329386  0.94588905  1  0  0.051382  0  3.740853  0  0  0.065453  0  3.967894  0  0  0.067427  0  3.990732  0  0  0.011195  0.06421  0  3.952454  0
C  C50  1  0.95904221  0.24125426  0.02446931  1  0  -0.142999  0  3.695042  0  0  -0.159505  0  3.935121  0  0  -0.16652  0  3.956531  0  0  -0.084199  -0.154771  0  3.920636  0
C  C51  1  0.04098011  0.75874829  0.97552935  1  0  -0.143061  0  3.695031  0  0  -0.159496  0  3.935138  0  0  -0.16651  0  3.956549  0  0  -0.084172  -0.154756  0  3.920638  0
C  C52  1  0.81281895  0.23932307  0.07339919  1  0  0.126531  0  3.714105  0  0  0.096237  0  3.967762  0  0  0.103319  0  3.985588  0  0  0.039801  0.091636  0  3.955538  0
C  C53  1  0.18721012  0.76067552  0.92660219  1  0  0.12654  0  3.714191  0  0  0.096328  0  3.967831  0  0  0.103403  0  3.985654  0  0  0.039919  0.091744  0  3.955599  0
C  C54  1  0.28460999  0.36885547  0.99938239  1  0  0.271022  0  3.657409  0  0  0.270346  0  3.917259  0  0  0.278739  0  3.932693  0  0  0.148526  0.264473  0  3.906902  0
C  C55  1  0.71541739  0.63114188  0.00061885  1  0  0.270651  0  3.657429  0  0  0.270047  0  3.917241  0  0  0.278433  0  3.932685  0  0  0.148486  0.264176  0  3.906884  0
C  C56  1  0.26217577  0.24637431  0.91703310  1  0  -0.385629  0  3.710714  0  0  -0.467763  0  3.946274  0  0  -0.470465  0  3.952495  0  0  -0.24675  -0.465554  0  3.941974  0
C  C57  1  0.73784787  0.75361907  0.08297152  1  0  -0.385679  0  3.710665  0  0  -0.467695  0  3.946307  0  0  -0.470387  0  3.952528  0  0  -0.246873  -0.465491  0  3.942007  0
Br  Br58  1  0.37726418  0.00457785  0.16749214  1  0  -0.422804  0  0.983532  0  0  -0.357068  0  1.272074  0  0  -0.375878  0  1.25447  0  0  -0.219145  -0.344347  0  1.284017  0
Br  Br59  1  0.62276058  0.99540377  0.83249927  1  0  -0.42276  0  0.983623  0  0  -0.356979  0  1.272152  0  0  -0.375793  0  1.254557  0  0  -0.219085  -0.34426  0  1.284098  0
Br  Br60  1  0.61023073  0.52634330  0.35566967  1  0  -0.40264  0  0.993887  0  0  -0.3344  0  1.290423  0  0  -0.353484  0  1.271148  0  0  -0.208389  -0.321417  0  1.303573  0
Br  Br61  1  0.38942136  0.47368611  0.64419124  1  0  -0.402731  0  0.993641  0  0  -0.334386  0  1.290021  0  0  -0.353468  0  1.270749  0  0  -0.208384  -0.321416  0  1.303194  0
N  N62  1  0.83477596  0.14613145  0.34422705  1  0  -0.29108  0  3.246416  0  0  -0.216448  0  3.506383  0  0  -0.236144  0  3.528966  0  0  -0.313477  -0.20279  0  3.490485  0
N  N63  1  0.16520905  0.85386453  0.65577749  1  0  -0.291246  0  3.246428  0  0  -0.216712  0  3.50645  0  0  -0.2364  0  3.529034  0  0  -0.313677  -0.203054  0  3.490554  0
N  N64  1  0.43082175  0.03627113  0.48335268  1  0  -0.237831  0  3.043747  0  0  -0.21033  0  3.328007  0  0  -0.220958  0  3.345984  0  0  -0.206623  -0.20294  0  3.315724  0
N  N65  1  0.56915986  0.96373470  0.51665532  1  0  -0.237826  0  3.043559  0  0  -0.210257  0  3.327823  0  0  -0.220902  0  3.345773  0  0  -0.206583  -0.202865  0  3.315534  0
N  N66  1  0.43013861  0.49284144  0.02696818  1  0  -0.238664  0  3.043306  0  0  -0.210871  0  3.326353  0  0  -0.221646  0  3.344471  0  0  -0.205112  -0.203263  0  3.313774  0
N  N67  1  0.56988669  0.50716243  0.97302925  1  0  -0.238494  0  3.043326  0  0  -0.21069  0  3.326348  0  0  -0.221464  0  3.344468  0  0  -0.205115  -0.203083  0  3.313772  0
N  N68  1  0.82858919  0.34334966  0.14963981  1  0  -0.293993  0  3.239973  0  0  -0.220512  0  3.500966  0  0  -0.2399  0  3.522989  0  0  -0.314307  -0.207071  0  3.485457  0
N  N69  1  0.17144421  0.65665020  0.85036118  1  0  -0.293864  0  3.239998  0  0  -0.220547  0  3.501131  0  0  -0.239936  0  3.523156  0  0  -0.314293  -0.207105  0  3.485617  0
