# generated using pymatgen
data_Zn2H22C27(NO2)4
_symmetry_space_group_name_H-M   'P 1'
_cell_length_a   9.88266420
_cell_length_b   10.97381073
_cell_length_c   13.99122463
_cell_angle_alpha   91.67063074
_cell_angle_beta   99.34064976
_cell_angle_gamma   89.17513665
_symmetry_Int_Tables_number   1
_chemical_formula_structural   Zn2H22C27(NO2)4
_chemical_formula_sum   'Zn2 H22 C27 N4 O8'
_cell_volume   1496.52795892
_cell_formula_units_Z   1
loop_
 _symmetry_equiv_pos_site_id
 _symmetry_equiv_pos_as_xyz
  1  'x, y, z'
loop_
 _atom_site_type_symbol
 _atom_site_label
 _atom_site_symmetry_multiplicity
 _atom_site_fract_x
 _atom_site_fract_y
 _atom_site_fract_z
 _atom_site_occupancy
 _atom_site_pbe_bader_charge
 _atom_site_pbe_bader_spin_density
 _atom_site_pbe_cm5_charge
 _atom_site_pbe_ddec_charge
 _atom_site_pbe_ddec_spin_density
 _atom_site_pbe_ddec_sum_bond_order
 _atom_site_pbe_magmom
Zn  Zn0  1  0.64137556  0.49176451  0.50855864  1  1.292053  0  0.676918  0.843918  0  2.353243  0
Zn  Zn1  1  0.34635840  0.49507150  0.49718039  1  1.29702  0  0.67499  0.833051  0  2.392982  0
H  H2  1  0.64644039  0.52277442  0.03549009  1  0.08641  0  0.107647  0.128342  0  0.998889  0
H  H3  1  0.71691571  0.43923619  0.32849769  1  0.542035  0  0.300771  0.330736  0  0.996811  0
H  H4  1  0.86439231  0.42503596  0.27278530  1  0.449297  0  0.325955  0.32029  0  0.917891  0
H  H5  1  0.95542282  0.45065233  0.82749822  1  0.012363  0  0.085244  0.114696  0  1.000978  0
H  H6  1  0.81469706  0.40624610  0.73819102  1  0.084326  0  0.092454  0.138908  0  1.022732  0
H  H7  1  0.98122964  0.34248779  0.73429180  1  0.024265  0  0.086563  0.113819  0  1.006609  0
H  H8  1  0.27153465  0.68916608  0.69216946  1  0.063313  0  0.092878  0.138995  0  1.00316  0
H  H9  1  0.10078439  0.74653227  0.66530373  1  0.039996  0  0.088829  0.118902  0  1.008205  0
H  H10  1  0.16923998  0.70462797  0.78577972  1  0.019824  0  0.086801  0.118051  0  1.004127  0
H  H11  1  0.22217019  0.47036127  0.97905767  1  0.469037  0  0.319909  0.314216  0  0.930047  0
H  H12  1  0.30953529  0.48922803  0.88236835  1  0.451587  0  0.308422  0.310455  0  0.955373  0
H  H13  1  0.90146120  0.61378220  0.70619631  1  0.086228  0  0.106933  0.094269  0  0.982206  0
H  H14  1  0.75906173  0.76867464  0.67132914  1  0.022921  0  0.086393  0.12458  0  1.028119  0
H  H15  1  0.89265453  0.87433707  0.71399330  1  0.022264  0  0.08319  0.110186  0  1.016145  0
H  H16  1  0.71918678  0.91118278  0.72367800  1  0.047112  0  0.087132  0.117985  0  0.999824  0
H  H17  1  0.18137532  0.48449917  0.72903074  1  0.06953  0  0.096881  0.075817  0  0.989839  0
H  H18  1  0.28382327  0.10527607  0.43493711  1  0.058632  0  0.100439  0.106041  0  1.004141  0
H  H19  1  0.28641628  0.87861973  0.43380426  1  0.092168  0  0.101805  0.107054  0  0.997772  0
H  H20  1  0.83505664  0.87955321  0.53237903  1  0.021667  0  0.094564  0.065825  0  0.96472  0
H  H21  1  0.78109497  0.11214097  0.64858218  1  0.044549  0  0.094679  0.108686  0  0.986713  0
H  H22  1  0.83301308  0.10724516  0.53218607  1  0.041486  0  0.093742  0.106042  0  0.98852  0
H  H23  1  0.09314130  0.45234830  0.35315815  1  0.132078  0  0.127121  0.119286  0  0.995582  0
C  C24  1  0.49404558  0.26021960  0.49898612  1  1.494927  0  0.215633  0.602627  0  4.171667  0
C  C25  1  0.76421222  0.06676410  0.57659112  1  0.011728  0  -0.15366  -0.241427  0  3.864681  0
C  C26  1  0.08205576  0.51439052  0.57983753  1  0.546596  0  0.108846  0.097509  0  3.913477  0
C  C27  1  0.52816070  0.50820353  0.69098901  1  1.702477  0  0.213268  0.65156  0  4.277009  0
C  C28  1  0.05020772  0.46812092  0.41960395  1  0.558237  0  0.051409  -0.066706  0  3.830499  0
C  C29  1  0.90542574  0.46064665  0.41792777  1  1.009338  0  0.243497  0.41375  0  4.058115  0
C  C30  1  0.94293276  0.50409121  0.57974741  1  0.478816  0  0.132419  0.163768  0  3.90572  0
C  C31  1  0.95575856  0.53029718  0.68826272  1  0.017691  0  -0.069861  -0.023478  0  3.804738  0
C  C32  1  0.11523826  0.55126830  0.68605612  1  -0.007416  0  -0.074312  -0.016465  0  3.842906  0
C  C33  1  0.50155076  0.72628418  0.49393258  1  1.577036  0  0.218176  0.604178  0  4.167764  0
C  C34  1  0.43520722  0.48688829  0.30751846  1  1.676075  0  0.221652  0.663685  0  4.244684  0
C  C35  1  0.54412500  0.51436633  0.79494313  1  0.176233  0  -0.056892  -0.228989  0  3.971904  0
C  C36  1  0.42704606  0.49194920  0.20341561  1  0.126447  0  -0.036794  -0.157192  0  3.952457  0
C  C37  1  0.42919534  0.50323695  0.01583360  1  0.542574  0  0.119078  0.339368  0  4.17825  0
C  C38  1  0.55298775  0.51474461  0.98268680  1  0.129507  0  -0.115408  -0.251089  0  4.073772  0
C  C39  1  0.55606741  0.51630553  0.88359180  1  -0.575387  0  -0.044494  0.020507  0  4.221592  0
C  C40  1  0.42651855  0.49810090  0.11652116  1  -0.399394  0  -0.034867  -0.100232  0  4.087271  0
C  C41  1  0.92469863  0.42564662  0.75038316  1  -0.066648  0  -0.241714  -0.380119  0  3.958226  0
C  C42  1  0.16735235  0.68049965  0.70875711  1  -0.067385  0  -0.241304  -0.385012  0  3.955536  0
C  C43  1  0.78581661  0.86576749  0.67741665  1  -0.073447  0  -0.243395  -0.390381  0  3.965557  0
C  C44  1  0.61548120  0.05758290  0.52897289  1  -0.096174  0  -0.005299  0.065226  0  3.906917  0
C  C45  1  0.49697307  0.12452644  0.49607957  1  0.086645  0  -0.016757  -0.077769  0  3.975707  0
C  C46  1  0.37844572  0.05598381  0.46123970  1  -0.084201  0  -0.089394  -0.103299  0  3.996745  0
C  C47  1  0.37997833  0.92883352  0.46050346  1  -0.000377  0  -0.088486  -0.107445  0  3.99475  0
C  C48  1  0.50071520  0.86201940  0.49373426  1  -0.045598  0  -0.012359  -0.059185  0  3.968018  0
C  C49  1  0.61718630  0.93040408  0.52739906  1  0.069685  0  -0.007194  0.012542  0  3.869454  0
C  C50  1  0.76539445  0.92212201  0.57780060  1  0.009606  0  -0.078255  0.046308  0  3.847987  0
N  N51  1  0.13888644  0.49618653  0.49976506  1  -1.233741  0  -0.295685  -0.159637  0  3.546927  0
N  N52  1  0.84964610  0.47988650  0.50097694  1  -1.215107  0  -0.306548  -0.308154  0  3.370618  0
N  N53  1  0.82255241  0.43368157  0.33396158  1  -1.303272  0  -0.565782  -0.617147  0  3.311317  0
N  N54  1  0.30637170  0.49942385  0.95437994  1  -1.232257  0  -0.569572  -0.598051  0  3.305654  0
O  O55  1  0.60976535  0.31282817  0.52218674  1  -1.159848  0  -0.318067  -0.545817  0  2.328768  0
O  O56  1  0.37800400  0.31365766  0.47877406  1  -1.174261  0  -0.320129  -0.54983  0  2.335316  0
O  O57  1  0.63452929  0.52839355  0.65293237  1  -1.157743  0  -0.307559  -0.54141  0  2.305581  0
O  O58  1  0.40852969  0.48279719  0.64603990  1  -1.15126  0  -0.310985  -0.548165  0  2.291829  0
O  O59  1  0.61432370  0.67241274  0.48489578  1  -1.1548  0  -0.317591  -0.544515  0  2.308119  0
O  O60  1  0.39002841  0.67481916  0.50382703  1  -1.171433  0  -0.316556  -0.550099  0  2.342445  0
O  O61  1  0.55417158  0.46379908  0.35510563  1  -1.171064  0  -0.30099  -0.558889  0  2.312093  0
O  O62  1  0.32628833  0.50589710  0.34260032  1  -1.142969  0  -0.304328  -0.530676  0  2.23375  0
