# generated using pymatgen
data_CuH20C20(NO2)2
_symmetry_space_group_name_H-M   'P 1'
_cell_length_a   7.61059159
_cell_length_b   10.78831214
_cell_length_c   14.08101428
_cell_angle_alpha   89.99971099
_cell_angle_beta   90.00240530
_cell_angle_gamma   101.91680360
_symmetry_Int_Tables_number   1
_chemical_formula_structural   CuH20C20(NO2)2
_chemical_formula_sum   'Cu2 H40 C40 N4 O8'
_cell_volume   1131.21151301
_cell_formula_units_Z   2
loop_
 _symmetry_equiv_pos_site_id
 _symmetry_equiv_pos_as_xyz
  1  'x, y, z'
loop_
 _atom_site_type_symbol
 _atom_site_label
 _atom_site_symmetry_multiplicity
 _atom_site_fract_x
 _atom_site_fract_y
 _atom_site_fract_z
 _atom_site_occupancy
 _atom_site_hle17_ddec_charge
 _atom_site_hle17_ddec_spin_density
 _atom_site_hle17_ddec_sum_bond_order
 _atom_site_hle17_magmom
 _atom_site_hse06_10hf_ddec_charge
 _atom_site_hse06_10hf_ddec_spin_density
 _atom_site_hse06_10hf_ddec_sum_bond_order
 _atom_site_hse06_10hf_magmom
 _atom_site_hse06_ddec_charge
 _atom_site_hse06_ddec_spin_density
 _atom_site_hse06_ddec_sum_bond_order
 _atom_site_hse06_magmom
 _atom_site_pbe_cm5_charge
 _atom_site_pbe_ddec_charge
 _atom_site_pbe_ddec_spin_density
 _atom_site_pbe_ddec_sum_bond_order
 _atom_site_pbe_magmom
Cu  Cu0  1  0.50000732  0.50000245  0.50000503  1  0.902236  0.69551  1.860645  0.519  0.892687  0.793239  2.264894  0.646  0.983344  0.861179  2.198593  0.74  0.70428  0.832578  0.743334  2.319306  0.583
Cu  Cu1  1  0.99999613  0.99999862  0.99999727  1  0.902216  0.695484  1.860685  0.519  0.89259  0.793224  2.264971  0.646  0.983301  0.86116  2.198616  0.74  0.704194  0.832469  0.743305  2.319377  0.583
H  H2  1  0.05158766  0.56493655  0.39158143  1  0.128342  -0.000617  0.953468  -0.001  0.147606  -0.000104  1.012156  0.0  0.149408  -9.5e-05  1.012807  0.0  0.093986  0.146239  -0.00011  1.011853  0.0
H  H3  1  0.55160785  0.06494425  0.10841460  1  0.128207  -0.000619  0.953565  -0.001  0.147539  -0.000104  1.012178  0.0  0.149344  -9.5e-05  1.012824  0.0  0.093969  0.146172  -0.00011  1.011875  0.0
H  H4  1  0.94842263  0.43506069  0.60842436  1  0.128269  -0.000616  0.953569  -0.001  0.147543  -0.000104  1.012249  0.0  0.149346  -9.5e-05  1.012898  0.0  0.09398  0.146169  -0.00011  1.011952  0.0
H  H5  1  0.44837815  0.93505025  0.89156705  1  0.12821  -0.000617  0.953446  -0.001  0.147494  -0.000104  1.012123  0.0  0.149298  -9.4e-05  1.01277  0.0  0.093994  0.146125  -0.00011  1.011818  0.0
H  H6  1  0.02196745  0.45819708  0.29228304  1  0.110398  0.000449  0.972077  0.001  0.127482  0.000517  1.037437  0.001  0.128045  0.000328  1.039617  0.0  0.087115  0.127079  0.000668  1.035922  0.001
H  H7  1  0.52198841  0.95820235  0.20771441  1  0.110418  0.000447  0.971993  0.001  0.127481  0.000517  1.037374  0.001  0.128052  0.000328  1.039547  0.0  0.087108  0.127077  0.000668  1.035864  0.001
H  H8  1  0.97804258  0.54180485  0.70772346  1  0.110404  0.000443  0.971955  0.001  0.12748  0.000517  1.037327  0.001  0.128046  0.000328  1.039503  0.0  0.087112  0.127075  0.000668  1.035811  0.001
H  H9  1  0.47799376  0.04179859  0.79227363  1  0.110376  0.000449  0.97191  0.001  0.127416  0.000517  1.037324  0.001  0.127981  0.000328  1.039502  0.0  0.087083  0.127021  0.000667  1.035804  0.001
H  H10  1  0.05871736  0.40371011  0.40760622  1  0.150721  -0.000535  0.925462  0.0  0.170534  -0.000167  0.983581  0.0  0.17431  -0.00022  0.981037  0.0  0.103171  0.167751  -0.000112  0.985462  0.0
H  H11  1  0.55872270  0.90371463  0.09238447  1  0.15066  -0.000538  0.925449  0.0  0.170432  -0.000167  0.983634  0.0  0.174207  -0.000219  0.98109  0.0  0.103134  0.167651  -0.000112  0.985516  0.0
H  H12  1  0.94130794  0.59628954  0.59239673  1  0.150672  -0.000538  0.925574  0.0  0.170427  -0.000167  0.983782  0.0  0.1742  -0.000219  0.981243  0.0  0.103169  0.167643  -0.000112  0.985663  0.0
H  H13  1  0.44125847  0.09627595  0.90760784  1  0.15059  -0.000531  0.925489  0.0  0.170374  -0.000167  0.983674  0.0  0.174152  -0.000219  0.98113  0.0  0.103113  0.167594  -0.000111  0.985556  0.0
H  H14  1  0.41958641  0.10115319  0.32779139  1  0.117978  -0.000322  0.947283  0.0  0.137397  -2.2e-05  1.009892  0.0  0.138974  -7.8e-05  1.010065  0.0  0.093422  0.136126  -0.0  1.00998  0.0
H  H15  1  0.91959918  0.60116937  0.17221935  1  0.117978  -0.000323  0.947264  0.0  0.137369  -2.2e-05  1.009929  0.0  0.138945  -7.7e-05  1.010105  0.0  0.093406  0.136097  0.0  1.010012  0.0
H  H16  1  0.58043052  0.89884429  0.67223287  1  0.117954  -0.00033  0.947164  0.0  0.137311  -2.2e-05  1.009872  0.0  0.138888  -7.7e-05  1.010043  0.0  0.093392  0.136032  -0.0  1.009973  0.0
H  H17  1  0.08035714  0.39885129  0.82779496  1  0.117907  -0.000315  0.947268  0.0  0.137321  -2.2e-05  1.00992  0.0  0.138897  -7.7e-05  1.010091  0.0  0.093341  0.136045  0.0  1.010008  0.0
H  H18  1  0.40740073  0.19760517  0.22802411  1  0.133491  0.000123  0.936448  0.0  0.155261  0.000312  0.990563  0.0  0.156965  0.000184  0.990814  0.0  0.098751  0.15399  0.00041  0.990412  0.0
H  H19  1  0.90743666  0.69763173  0.27198174  1  0.133441  0.000124  0.936439  0.0  0.155187  0.000312  0.990608  0.0  0.156889  0.000184  0.990861  0.0  0.098719  0.153916  0.00041  0.990457  0.0
H  H20  1  0.59259416  0.80236431  0.77199304  1  0.133404  0.000108  0.936466  0.0  0.155152  0.000312  0.990632  0.0  0.156857  0.000184  0.990878  0.0  0.098747  0.15388  0.000409  0.990479  0.0
H  H21  1  0.09254273  0.30240384  0.72802690  1  0.133558  0.00013  0.936377  0.0  0.155278  0.000312  0.990563  0.0  0.156982  0.000184  0.990814  0.0  0.098778  0.154005  0.000409  0.990408  0.0
H  H22  1  0.24125779  0.18546122  0.31945385  1  0.12688  -0.000563  0.951754  0.0  0.145122  -6.6e-05  1.012312  0.0  0.14761  -6.4e-05  1.011245  0.0  0.093652  0.143255  -6e-05  1.013194  0.0
H  H23  1  0.74126760  0.68548482  0.18055391  1  0.12683  -0.000569  0.95186  0.0  0.145177  -6.6e-05  1.012314  0.0  0.147664  -6.4e-05  1.011247  0.0  0.093657  0.143312  -6.1e-05  1.013197  0.0
H  H24  1  0.75876371  0.81452140  0.68057183  1  0.126734  -0.000571  0.951814  0.0  0.145096  -6.6e-05  1.012251  0.0  0.147578  -6.4e-05  1.01119  0.0  0.093716  0.143231  -6.1e-05  1.013129  0.0
H  H25  1  0.25870377  0.31455609  0.81945899  1  0.126769  -0.000562  0.951829  0.0  0.145061  -6.6e-05  1.012352  0.0  0.147548  -6.4e-05  1.011285  0.0  0.093634  0.143196  -6.1e-05  1.013233  0.0
H  H26  1  0.82627839  0.12734573  0.36376431  1  0.10191  -8e-05  0.936318  0.0  0.114061  -5.4e-05  0.989884  0.0  0.117669  -4e-05  0.988846  0.0  0.105018  0.111409  -6.5e-05  0.990924  0.0
H  H27  1  0.32632996  0.62738803  0.13622716  1  0.101882  -8.2e-05  0.936553  0.0  0.114025  -5.4e-05  0.990119  0.0  0.117632  -4e-05  0.989086  0.0  0.105032  0.111374  -6.5e-05  0.991156  0.0
H  H28  1  0.17373277  0.87263184  0.63623652  1  0.101853  -8.9e-05  0.936407  0.0  0.11402  -5.4e-05  0.989942  0.0  0.117626  -4e-05  0.988906  0.0  0.105035  0.111361  -6.6e-05  0.990995  0.0
H  H29  1  0.67365140  0.37262695  0.86376869  1  0.101865  -8e-05  0.936283  0.0  0.113989  -5.4e-05  0.989885  0.0  0.117597  -4e-05  0.988852  0.0  0.10502  0.111338  -6.6e-05  0.990925  0.0
H  H30  1  0.47034395  0.51899406  0.26258781  1  0.064413  -0.000102  0.944641  0.0  0.072934  -0.000118  1.007151  0.0  0.07533  -9.5e-05  1.005565  0.0  0.10885  0.071296  -0.000131  1.008094  0.0
H  H31  1  0.97031395  0.01899173  0.23739245  1  0.064383  -0.000101  0.944814  0.0  0.072976  -0.000118  1.00724  0.0  0.075369  -9.5e-05  1.005655  0.0  0.108881  0.071338  -0.000131  1.008184  0.0
H  H32  1  0.52964799  0.48100347  0.73739668  1  0.064357  -0.000109  0.944883  0.0  0.072864  -0.000118  1.00739  0.0  0.075254  -9.5e-05  1.005807  0.0  0.108845  0.071225  -0.000132  1.00833  0.0
H  H33  1  0.02969481  0.98100452  0.76259488  1  0.064361  -0.0001  0.944737  0.0  0.072972  -0.000118  1.007171  0.0  0.075366  -9.6e-05  1.005586  0.0  0.108928  0.071332  -0.000131  1.008114  0.0
H  H34  1  0.38056328  0.77298667  0.46718947  1  0.065937  -0.000126  0.947288  0.0  0.073664  -0.000152  1.011217  0.0  0.076165  -0.000125  1.009449  0.0  0.107204  0.071796  -0.000164  1.012545  0.0
H  H35  1  0.88056354  0.27302545  0.03280200  1  0.065855  -0.000129  0.947293  0.0  0.073602  -0.000152  1.011201  0.0  0.076092  -0.000124  1.009444  0.0  0.107144  0.071727  -0.000164  1.012532  0.0
H  H36  1  0.61945210  0.22700981  0.53279786  1  0.06584  -0.000131  0.947278  0.0  0.073545  -0.000152  1.011253  0.0  0.076065  -0.000125  1.009466  0.0  0.107139  0.07168  -0.000164  1.012578  0.0
H  H37  1  0.11942123  0.72698121  0.96718675  1  0.065971  -0.000126  0.94734  0.0  0.073674  -0.000152  1.011276  0.0  0.076192  -0.000125  1.00949  0.0  0.10721  0.071788  -0.000164  1.012621  0.0
H  H38  1  0.72612772  0.38963312  0.14940880  1  0.100794  -5.6e-05  0.947819  0.0  0.112821  -2.1e-05  1.004397  0.0  0.116189  -1.9e-05  1.003299  0.0  0.103187  0.110179  -2.8e-05  1.005648  0.0
H  H39  1  0.22613658  0.88962826  0.35059786  1  0.100718  -6.9e-05  0.947559  0.0  0.112731  -2e-05  1.004181  0.0  0.116102  -1.9e-05  1.003079  0.0  0.10311  0.110091  -2.8e-05  1.005433  0.0
H  H40  1  0.27387929  0.61036120  0.85059984  1  0.100835  -6.4e-05  0.947532  0.0  0.112832  -2e-05  1.00416  0.0  0.116201  -1.8e-05  1.003058  0.0  0.103218  0.11019  -2.8e-05  1.005411  0.0
H  H41  1  0.77387338  0.11037930  0.64940509  1  0.100762  -6e-05  0.947784  0.0  0.112813  -2e-05  1.004324  0.0  0.116186  -1.9e-05  1.003224  0.0  0.103175  0.110171  -2.8e-05  1.005578  0.0
C  C42  1  0.99262878  0.46895718  0.36762540  1  -0.404416  0.011354  3.673766  0.013  -0.483181  0.006557  3.90883  0.008  -0.491134  0.004237  3.914339  0.005  -0.24943  -0.477413  0.008528  3.904965  0.01
C  C43  1  0.49264284  0.96896248  0.13237005  1  -0.404192  0.011376  3.67347  0.013  -0.482881  0.006563  3.908534  0.008  -0.490841  0.004239  3.914038  0.005  -0.249308  -0.477113  0.008533  3.90467  0.01
C  C44  1  0.00738815  0.53104030  0.63238182  1  -0.404413  0.011372  3.673701  0.013  -0.483058  0.00656  3.908891  0.008  -0.491009  0.004238  3.914397  0.005  -0.249504  -0.477285  0.00853  3.905025  0.01
C  C45  1  0.50734470  0.03103302  0.86761728  1  -0.403989  0.01135  3.673436  0.013  -0.48267  0.00656  3.908597  0.008  -0.490627  0.004235  3.91411  0.005  -0.2493  -0.476915  0.008529  3.904721  0.01
C  C46  1  0.79400011  0.44099127  0.38774529  1  0.474321  -0.01059  3.742393  -0.009  0.463283  -0.003807  4.01832  -0.003  0.494166  -0.004266  4.02238  -0.003  0.124942  0.442297  -0.00341  4.014688  -0.004
C  C47  1  0.29400480  0.94100276  0.11224924  1  0.474414  -0.010635  3.742214  -0.009  0.463179  -0.003808  4.018394  -0.003  0.494061  -0.004266  4.022466  -0.003  0.125063  0.442198  -0.003409  4.014745  -0.004
C  C48  1  0.20602196  0.55899983  0.61225908  1  0.474546  -0.010634  3.741721  -0.009  0.463244  -0.003811  4.018068  -0.003  0.494123  -0.004268  4.022142  -0.003  0.125031  0.44226  -0.003413  4.014414  -0.004
C  C49  1  0.70597758  0.05899912  0.88774093  1  0.474251  -0.010591  3.742029  -0.009  0.463024  -0.00381  4.018176  -0.003  0.493908  -0.004265  4.022248  -0.003  0.124968  0.442031  -0.003411  4.014524  -0.004
C  C50  1  0.67984555  0.33894284  0.33972348  1  -0.365123  0.00422  3.768489  0.007  -0.368173  0.001633  4.038364  0.004  -0.39503  0.0003  4.065215  0.002  -0.083096  -0.350212  0.002934  4.019975  0.005
C  C51  1  0.17986522  0.83895777  0.16028230  1  -0.365378  0.004232  3.768446  0.007  -0.36822  0.001638  4.038221  0.004  -0.395071  0.000299  4.065063  0.002  -0.083248  -0.350292  0.002938  4.019856  0.005
C  C52  1  0.32017298  0.66105000  0.66028515  1  -0.365248  0.004245  3.768291  0.007  -0.368172  0.001635  4.038273  0.004  -0.39503  0.000301  4.065126  0.002  -0.083133  -0.350225  0.002936  4.019882  0.005
C  C53  1  0.82012108  0.16104988  0.83971781  1  -0.365269  0.004228  3.76835  0.007  -0.368145  0.001635  4.038269  0.004  -0.395001  0.000299  4.065113  0.002  -0.083192  -0.350185  0.002934  4.019864  0.005
C  C54  1  0.49347219  0.30119945  0.35849208  1  0.450419  -0.010319  3.774498  -0.009  0.43963  -0.003774  4.053403  -0.003  0.469282  -0.004143  4.058756  -0.003  0.114966  0.419635  -0.003463  4.048631  -0.004
C  C55  1  0.99348628  0.80122032  0.14151395  1  0.450497  -0.010329  3.774536  -0.009  0.439719  -0.003774  4.053325  -0.003  0.469369  -0.004142  4.058677  -0.003  0.114929  0.419737  -0.003462  4.048537  -0.004
C  C56  1  0.50654389  0.69879425  0.64151798  1  0.450609  -0.010351  3.774376  -0.009  0.439684  -0.003774  4.053466  -0.003  0.469337  -0.004145  4.05881  -0.003  0.114934  0.419694  -0.003464  4.048682  -0.004
C  C57  1  0.00649599  0.19879282  0.85848687  1  0.450453  -0.010321  3.774551  -0.009  0.439632  -0.003775  4.053444  -0.003  0.469286  -0.004144  4.05879  -0.003  0.114912  0.419638  -0.003464  4.048658  -0.004
C  C58  1  0.38366666  0.19023077  0.30489190  1  -0.396425  0.011076  3.675567  0.013  -0.472196  0.006437  3.905869  0.008  -0.47886  0.004206  3.910381  0.005  -0.245402  -0.467321  0.008259  3.902633  0.01
C  C59  1  0.88368668  0.69025381  0.19511344  1  -0.396328  0.011086  3.675697  0.013  -0.47217  0.00644  3.905978  0.008  -0.478831  0.004206  3.91049  0.005  -0.245327  -0.467289  0.008261  3.90273  0.01
C  C60  1  0.61634662  0.80975626  0.69512384  1  -0.396141  0.011117  3.675375  0.013  -0.471906  0.006437  3.905728  0.008  -0.478561  0.004206  3.910247  0.005  -0.245353  -0.46703  0.008259  3.902485  0.01
C  C61  1  0.11628571  0.30977399  0.80489591  1  -0.396339  0.011061  3.675575  0.013  -0.472096  0.006438  3.905884  0.008  -0.478757  0.004206  3.910395  0.005  -0.245314  -0.467219  0.008259  3.902639  0.01
C  C62  1  0.76318148  0.26843056  0.26720067  1  0.152336  -0.002257  3.806513  -0.002  0.171753  -0.000943  4.029027  -0.001  0.178796  -0.000812  4.054622  -0.001  0.010732  0.167101  -0.001097  4.011744  -0.001
C  C63  1  0.26319934  0.76844179  0.23279592  1  0.152491  -0.00228  3.806581  -0.002  0.171688  -0.000945  4.029373  -0.001  0.17873  -0.000815  4.054979  -0.001  0.010695  0.167044  -0.001098  4.012094  -0.001
C  C64  1  0.23683641  0.73155945  0.73280441  1  0.151986  -0.002296  3.807  -0.002  0.171417  -0.000945  4.029548  -0.001  0.178458  -0.00081  4.055157  -0.001  0.010609  0.166769  -0.001098  4.012249  -0.001
C  C65  1  0.73678516  0.23156955  0.76720277  1  0.152484  -0.002182  3.806372  -0.002  0.171623  -0.000944  4.029251  -0.001  0.178667  -0.000813  4.054852  -0.001  0.010634  0.16697  -0.001098  4.011957  -0.001
C  C66  1  0.83380712  0.16231613  0.29082498  1  -0.176423  0.001166  3.71556  0.001  -0.191905  0.000375  3.952467  0.0  -0.199702  0.000238  3.972781  0.0  -0.086268  -0.186957  0.000633  3.939034  0.001
C  C67  1  0.33382467  0.66232825  0.20916724  1  -0.176277  0.001184  3.715787  0.001  -0.191691  0.000376  3.952718  0.0  -0.199489  0.000239  3.973028  0.0  -0.086089  -0.186749  0.000634  3.939301  0.001
C  C68  1  0.16621607  0.83767407  0.70917300  1  -0.176116  0.001202  3.715783  0.001  -0.191603  0.000376  3.952676  0.0  -0.199398  0.000237  3.97299  0.0  -0.086063  -0.186654  0.000633  3.939253  0.001
C  C69  1  0.66614843  0.33767330  0.79082222  1  -0.176252  0.001114  3.715704  0.001  -0.191633  0.000376  3.952647  0.0  -0.199431  0.000238  3.972963  0.0  -0.086106  -0.186695  0.000632  3.939227  0.001
C  C70  1  0.41568484  0.60249182  0.27925841  1  0.131883  -0.001261  3.743377  -0.001  0.112702  -0.000461  3.999845  0.0  0.119366  -0.000455  4.016727  0.0  0.046347  0.108442  -0.000572  3.9882  0.0
C  C71  1  0.91567910  0.10249784  0.22073094  1  0.131996  -0.001222  3.743209  -0.001  0.112767  -0.00046  3.999679  0.0  0.119432  -0.000454  4.016569  0.0  0.046409  0.108504  -0.000572  3.988028  0.0
C  C72  1  0.58428127  0.39750197  0.72073389  1  0.131823  -0.00113  3.743302  -0.001  0.112686  -0.000462  3.999705  0.0  0.119354  -0.000453  4.016592  0.0  0.046372  0.108424  -0.000573  3.988045  0.0
C  C73  1  0.08433894  0.89749874  0.77926136  1  0.131952  -0.001266  3.743442  -0.001  0.112681  -0.000461  3.999992  0.0  0.119344  -0.000452  4.016883  0.0  0.046162  0.108422  -0.000572  3.988332  0.0
C  C74  1  0.36564724  0.74336067  0.39288504  1  0.121747  -0.001406  3.761888  -0.001  0.100254  -0.000563  4.020593  0.0  0.106841  -0.000537  4.037377  0.0  0.040273  0.096058  -0.00061  4.009054  0.0
C  C75  1  0.86562986  0.24337735  0.10710264  1  0.121879  -0.001323  3.761896  -0.001  0.100368  -0.000563  4.020608  0.0  0.106965  -0.000534  4.037394  0.0  0.040342  0.096172  -0.00061  4.009059  0.0
C  C76  1  0.63436915  0.25664618  0.60710087  1  0.121889  -0.001264  3.762011  -0.001  0.100402  -0.000563  4.02072  0.0  0.106974  -0.000534  4.037502  0.0  0.040421  0.0962  -0.00061  4.009177  0.0
C  C77  1  0.13437284  0.75662713  0.89289322  1  0.121572  -0.001378  3.761786  -0.001  0.100104  -0.000564  4.02049  0.0  0.106678  -0.000533  4.037266  0.0  0.040209  0.095916  -0.00061  4.008949  0.0
C  C78  1  0.77949509  0.30794399  0.17204003  1  -0.188199  0.001204  3.739586  0.001  -0.204502  0.000397  3.979616  0.0  -0.21217  0.000248  3.99971  0.0  -0.090381  -0.199546  0.000628  3.966309  0.001
C  C79  1  0.27950771  0.80794017  0.32795466  1  -0.188208  0.001259  3.739473  0.001  -0.204444  0.000397  3.979527  0.0  -0.212121  0.00025  3.999632  0.0  -0.090332  -0.199485  0.000629  3.966214  0.001
C  C80  1  0.22051345  0.69205132  0.82796079  1  -0.188081  0.001244  3.739392  0.001  -0.204347  0.000397  3.979389  0.0  -0.212017  0.000248  3.999489  0.0  -0.090403  -0.199385  0.000628  3.966061  0.001
C  C81  1  0.72049653  0.19206531  0.67203409  1  -0.188275  0.001168  3.739563  0.001  -0.204499  0.000397  3.979623  0.0  -0.212179  0.000248  3.999732  0.0  -0.090376  -0.199542  0.000629  3.966315  0.001
N  N82  1  0.43318984  0.64191183  0.36969875  1  -0.316555  -0.00135  3.16935  0.001  -0.287225  -0.001909  3.45426  0.0  -0.301743  -0.002258  3.468181  -0.001  -0.321688  -0.277583  -0.001331  3.445446  0.0
N  N83  1  0.93316414  0.14192450  0.13028730  1  -0.316608  -0.001391  3.169353  0.0  -0.287293  -0.00191  3.454313  0.0  -0.301817  -0.00226  3.468236  -0.001  -0.321678  -0.277646  -0.001332  3.445483  0.0
N  N84  1  0.56680964  0.35808409  0.63028573  1  -0.316398  -0.001432  3.169204  0.0  -0.287078  -0.001909  3.454107  0.0  -0.3016  -0.00226  3.468041  -0.001  -0.321712  -0.277434  -0.001332  3.445277  0.0
N  N85  1  0.06683856  0.85807999  0.86970145  1  -0.316453  -0.001367  3.169183  0.001  -0.287119  -0.001909  3.454124  0.0  -0.301644  -0.00226  3.468061  -0.001  -0.32151  -0.277474  -0.001332  3.445283  0.0
O  O86  1  0.74280549  0.51229994  0.44967335  1  -0.516238  0.077197  2.120091  0.107  -0.490685  0.049886  2.398088  0.076  -0.530335  0.036583  2.390992  0.061  -0.301664  -0.463556  0.059232  2.40277  0.085
O  O87  1  0.24280538  0.01230065  0.05032656  1  -0.51615  0.077194  2.120147  0.107  -0.490629  0.049878  2.398378  0.076  -0.530293  0.03658  2.391291  0.061  -0.301725  -0.463488  0.059226  2.403041  0.085
O  O88  1  0.25721484  0.48768921  0.55033386  1  -0.516135  0.077204  2.119815  0.107  -0.490558  0.049885  2.398033  0.076  -0.530213  0.036583  2.390949  0.061  -0.301654  -0.463424  0.059233  2.402703  0.085
O  O89  1  0.75718143  0.98767980  0.94966077  1  -0.516224  0.077199  2.119965  0.107  -0.490571  0.049888  2.398023  0.076  -0.530239  0.036587  2.390944  0.061  -0.301644  -0.463426  0.059239  2.402684  0.085
O  O90  1  0.40509364  0.35218394  0.41916841  1  -0.519413  0.07498  2.092601  0.104  -0.49307  0.04943  2.366031  0.075  -0.531896  0.036292  2.358346  0.06  -0.305899  -0.466431  0.058199  2.370925  0.084
O  O91  1  0.90509844  0.85219593  0.08083753  1  -0.519532  0.074993  2.09279  0.104  -0.493151  0.049433  2.36619  0.075  -0.531997  0.0363  2.358522  0.06  -0.305913  -0.466516  0.058204  2.371085  0.084
O  O92  1  0.59492546  0.64781737  0.58084164  1  -0.519615  0.074979  2.092617  0.104  -0.493199  0.049429  2.366095  0.075  -0.532018  0.036292  2.358393  0.06  -0.305954  -0.466568  0.0582  2.370997  0.084
O  O93  1  0.09489694  0.14781111  0.91915904  1  -0.519512  0.074974  2.092681  0.104  -0.493112  0.049429  2.366111  0.075  -0.531951  0.036294  2.358425  0.06  -0.305906  -0.466478  0.0582  2.371014  0.084
