# generated using pymatgen
data_CdH4C2(N5O)2
_symmetry_space_group_name_H-M   'P 1'
_cell_length_a   10.11343513
_cell_length_b   10.11365513
_cell_length_c   11.25518577
_cell_angle_alpha   116.70362052
_cell_angle_beta   116.70228177
_cell_angle_gamma   89.99682255
_symmetry_Int_Tables_number   1
_chemical_formula_structural   CdH4C2(N5O)2
_chemical_formula_sum   'Cd4 H16 C8 N40 O8'
_cell_volume   888.87886401
_cell_formula_units_Z   4
loop_
 _symmetry_equiv_pos_site_id
 _symmetry_equiv_pos_as_xyz
  1  'x, y, z'
loop_
 _atom_site_type_symbol
 _atom_site_label
 _atom_site_symmetry_multiplicity
 _atom_site_fract_x
 _atom_site_fract_y
 _atom_site_fract_z
 _atom_site_occupancy
 _atom_site_hle17_bader_spin_density
 _atom_site_hle17_ddec_charge
 _atom_site_hle17_ddec_spin_density
 _atom_site_hle17_ddec_sum_bond_order
 _atom_site_hle17_magmom
 _atom_site_hse06_10hf_bader_spin_density
 _atom_site_hse06_10hf_ddec_charge
 _atom_site_hse06_10hf_ddec_spin_density
 _atom_site_hse06_10hf_ddec_sum_bond_order
 _atom_site_hse06_10hf_magmom
 _atom_site_hse06_bader_spin_density
 _atom_site_hse06_ddec_charge
 _atom_site_hse06_ddec_spin_density
 _atom_site_hse06_ddec_sum_bond_order
 _atom_site_hse06_magmom
 _atom_site_pbe_bader_spin_density
 _atom_site_pbe_cm5_charge
 _atom_site_pbe_ddec_charge
 _atom_site_pbe_ddec_spin_density
 _atom_site_pbe_ddec_sum_bond_order
 _atom_site_pbe_magmom
Cd  Cd0  1  0.38565991  0.13572401  0.77145187  1  0  0.999992  0  1.821185  0  0  0.772814  0  2.286098  0  0  0.824785  0  2.241586  0  0  0.800719  0.735472  0  2.315324  0
Cd  Cd1  1  0.13573844  0.38577065  0.27147081  1  0  0.999826  0  1.820662  0  0  0.772841  0  2.285473  0  0  0.824824  0  2.240981  0  0  0.800519  0.735489  0  2.314685  0
Cd  Cd2  1  0.61433715  0.86427827  0.22854681  1  0  0.999947  0  1.821236  0  0  0.772816  0  2.286095  0  0  0.824782  0  2.241588  0  0  0.800752  0.735474  0  2.315321  0
Cd  Cd3  1  0.86426645  0.61423173  0.72853724  1  0  0.999844  0  1.82062  0  0  0.772864  0  2.285443  0  0  0.824847  0  2.240951  0  0  0.800482  0.735512  0  2.314656  0
H  H4  1  0.09976227  0.91007541  0.56329222  1  0  0.404983  0  0.865754  0  0  0.371528  0  0.953472  0  0  0.380882  0  0.942532  0  0  0.295641  0.364915  0  0.961087  0
H  H5  1  0.46343389  0.15279688  0.56310923  1  0  0.40463  0  0.866721  0  0  0.371404  0  0.953852  0  0  0.380754  0  0.942944  0  0  0.295878  0.364796  0  0.961449  0
H  H6  1  0.91015185  0.46351301  0.06322395  1  0  0.405238  0  0.866207  0  0  0.372048  0  0.953212  0  0  0.3814  0  0.942271  0  0  0.295876  0.365437  0  0.960833  0
H  H7  1  0.15308815  0.09979605  0.06320061  1  0  0.40517  0  0.866087  0  0  0.371811  0  0.953518  0  0  0.381163  0  0.942584  0  0  0.295673  0.365199  0  0.961139  0
H  H8  1  0.90024773  0.08992116  0.43670489  1  0  0.404996  0  0.865708  0  0  0.37153  0  0.953459  0  0  0.380884  0  0.942519  0  0  0.295654  0.364918  0  0.961074  0
H  H9  1  0.53656917  0.84720306  0.43688380  1  0  0.404577  0  0.866813  0  0  0.371372  0  0.953898  0  0  0.380722  0  0.942992  0  0  0.295827  0.364764  0  0.961495  0
H  H10  1  0.08986041  0.53648816  0.93677767  1  0  0.405145  0  0.866264  0  0  0.371958  0  0.953269  0  0  0.38131  0  0.94233  0  0  0.295848  0.365349  0  0.960888  0
H  H11  1  0.84691694  0.90020285  0.93680080  1  0  0.405193  0  0.866056  0  0  0.371856  0  0.953436  0  0  0.381207  0  0.942504  0  0  0.295683  0.365244  0  0.961057  0
H  H12  1  0.11981954  0.95032706  0.72191575  1  0  0.397698  0  0.901285  0  0  0.356554  0  0.99073  0  0  0.367174  0  0.975246  0  0  0.282937  0.349012  0  1.001721  0
H  H13  1  0.60198490  0.27126418  0.72170459  1  0  0.396821  0  0.901594  0  0  0.356166  0  0.991027  0  0  0.366775  0  0.975543  0  0  0.282708  0.34861  0  1.002044  0
H  H14  1  0.95035712  0.60213287  0.22181581  1  0  0.397453  0  0.901064  0  0  0.356607  0  0.990523  0  0  0.367218  0  0.975053  0  0  0.283069  0.349072  0  1.001502  0
H  H15  1  0.27151770  0.11983791  0.22179498  1  0  0.396387  0  0.901859  0  0  0.355678  0  0.991728  0  0  0.366293  0  0.976226  0  0  0.282627  0.348128  0  1.002741  0
H  H16  1  0.88017883  0.04967174  0.27807763  1  0  0.397716  0  0.901348  0  0  0.356584  0  0.990724  0  0  0.367205  0  0.975239  0  0  0.28295  0.349042  0  1.001715  0
H  H17  1  0.39801244  0.72873469  0.27829461  1  0  0.396818  0  0.901565  0  0  0.356167  0  0.991019  0  0  0.366776  0  0.975535  0  0  0.28271  0.348611  0  1.002036  0
H  H18  1  0.04964157  0.39786711  0.77818083  1  0  0.39738  0  0.901116  0  0  0.356526  0  0.990632  0  0  0.367135  0  0.975164  0  0  0.283047  0.348991  0  1.001609  0
H  H19  1  0.72848465  0.88016328  0.77820804  1  0  0.396362  0  0.901799  0  0  0.35567  0  0.991712  0  0  0.366284  0  0.97621  0  0  0.282612  0.348121  0  1.002722  0
C  C20  1  0.11052594  0.38530544  0.55600811  1  0  0.36092  0  3.836733  0  0  0.324596  0  4.128723  0  0  0.331688  0  4.147204  0  0  0.311774  0.319702  0  4.11635  0
C  C21  1  0.44549228  0.67071533  0.55622049  1  0  0.35906  0  3.83616  0  0  0.323337  0  4.127577  0  0  0.330392  0  4.146141  0  0  0.310954  0.318462  0  4.115151  0
C  C22  1  0.38557184  0.44545519  0.05622878  1  0  0.361727  0  3.834844  0  0  0.325233  0  4.126672  0  0  0.332372  0  4.145084  0  0  0.311992  0.320303  0  4.11435  0
C  C23  1  0.67066654  0.11065795  0.05605280  1  0  0.359545  0  3.836612  0  0  0.324254  0  4.12729  0  0  0.331358  0  4.145769  0  0  0.311539  0.319343  0  4.114928  0
C  C24  1  0.88948395  0.61470379  0.44400200  1  0  0.360979  0  3.836531  0  0  0.324628  0  4.128594  0  0  0.331721  0  4.147072  0  0  0.311772  0.31973  0  4.116223  0
C  C25  1  0.55451056  0.32929629  0.44380110  1  0  0.359163  0  3.836009  0  0  0.323504  0  4.127402  0  0  0.330564  0  4.145966  0  0  0.311115  0.31863  0  4.114976  0
C  C26  1  0.61440988  0.55454350  0.94375436  1  0  0.361539  0  3.835247  0  0  0.325174  0  4.126895  0  0  0.332314  0  4.145309  0  0  0.311979  0.320244  0  4.114572  0
C  C27  1  0.32933051  0.88933978  0.94394584  1  0  0.359448  0  3.837007  0  0  0.324203  0  4.12763  0  0  0.331303  0  4.146116  0  0  0.311576  0.319295  0  4.115268  0
N  N28  1  0.26212465  0.24660785  0.51713015  1  0  -0.042257  0  2.924293  0  0  -0.036158  0  3.200253  0  0  -0.034928  0  3.215133  0  0  -0.073606  -0.036962  0  3.190104  0
N  N29  1  0.25501973  0.77053494  0.51724632  1  0  -0.042368  0  2.922279  0  0  -0.036374  0  3.198457  0  0  -0.035141  0  3.213296  0  0  -0.074066  -0.037178  0  3.188326  0
N  N30  1  0.24669190  0.25503412  0.01722380  1  0  -0.042459  0  2.924359  0  0  -0.036545  0  3.200433  0  0  -0.03532  0  3.215309  0  0  -0.073972  -0.037344  0  3.190282  0
N  N31  1  0.77048882  0.26218306  0.01712170  1  0  -0.041867  0  2.921778  0  0  -0.035623  0  3.197885  0  0  -0.034396  0  3.21273  0  0  -0.07394  -0.036425  0  3.187756  0
N  N32  1  0.73786908  0.75339440  0.48286630  1  0  -0.042308  0  2.924218  0  0  -0.036199  0  3.200243  0  0  -0.03497  0  3.215121  0  0  -0.073634  -0.037004  0  3.190092  0
N  N33  1  0.74498489  0.22947084  0.48276120  1  0  -0.042388  0  2.922192  0  0  -0.036386  0  3.198375  0  0  -0.035152  0  3.213215  0  0  -0.074075  -0.03719  0  3.188246  0
N  N34  1  0.75330099  0.74495564  0.98277445  1  0  -0.042665  0  2.924416  0  0  -0.036775  0  3.200544  0  0  -0.03555  0  3.215421  0  0  -0.074088  -0.037575  0  3.190392  0
N  N35  1  0.22951564  0.73781803  0.98287324  1  0  -0.041645  0  2.92172  0  0  -0.035385  0  3.197822  0  0  -0.034157  0  3.212665  0  0  -0.073843  -0.036188  0  3.187694  0
N  N36  1  0.24265942  0.24666470  0.62713736  1  0  -0.097938  0  3.166931  0  0  -0.043138  0  3.459322  0  0  -0.0543  0  3.476767  0  0  -0.101729  -0.034642  0  3.44634  0
N  N37  1  0.38448728  0.88049211  0.62730451  1  0  -0.096484  0  3.165385  0  0  -0.04138  0  3.457237  0  0  -0.052535  0  3.474699  0  0  -0.101014  -0.032889  0  3.444234  0
N  N38  1  0.24686866  0.38452108  0.12732271  1  0  -0.096782  0  3.165397  0  0  -0.042042  0  3.45761  0  0  -0.053203  0  3.475107  0  0  -0.101369  -0.033544  0  3.444585  0
N  N39  1  0.88046255  0.24271046  0.12711981  1  0  -0.098766  0  3.16799  0  0  -0.04435  0  3.46092  0  0  -0.055501  0  3.478355  0  0  -0.101906  -0.035861  0  3.447941  0
N  N40  1  0.75733401  0.75333185  0.37285758  1  0  -0.097855  0  3.166888  0  0  -0.043078  0  3.459296  0  0  -0.054236  0  3.476738  0  0  -0.101715  -0.034581  0  3.446311  0
N  N41  1  0.61551535  0.11951476  0.37269822  1  0  -0.096455  0  3.165232  0  0  -0.041391  0  3.457131  0  0  -0.052548  0  3.474594  0  0  -0.101053  -0.0329  0  3.44413  0
N  N42  1  0.75312814  0.61547099  0.87267890  1  0  -0.096829  0  3.165434  0  0  -0.042115  0  3.45769  0  0  -0.053277  0  3.475186  0  0  -0.101405  -0.033615  0  3.444663  0
N  N43  1  0.11954410  0.75729061  0.87287333  1  0  -0.09908  0  3.167997  0  0  -0.044661  0  3.460945  0  0  -0.055811  0  3.478375  0  0  -0.102017  -0.036171  0  3.447969  0
N  N44  1  0.14876430  0.33219994  0.65429632  1  0  -0.27558  0  2.958998  0  0  -0.249967  0  3.226533  0  0  -0.25844  0  3.241862  0  0  -0.186473  -0.244231  0  3.216134  0
N  N45  1  0.50553963  0.82210753  0.65449685  1  0  -0.275634  0  2.958736  0  0  -0.250495  0  3.226535  0  0  -0.258977  0  3.241874  0  0  -0.186511  -0.244748  0  3.216125  0
N  N46  1  0.33248953  0.50555106  0.15453966  1  0  -0.276516  0  2.958454  0  0  -0.251012  0  3.226415  0  0  -0.259503  0  3.241713  0  0  -0.186356  -0.245254  0  3.216029  0
N  N47  1  0.82209185  0.14882232  0.15428057  1  0  -0.274182  0  2.95954  0  0  -0.248616  0  3.226758  0  0  -0.25711  0  3.242129  0  0  -0.18577  -0.242866  0  3.216336  0
N  N48  1  0.85123108  0.66779549  0.34570074  1  0  -0.275672  0  2.959067  0  0  -0.250047  0  3.226622  0  0  -0.25852  0  3.241946  0  0  -0.186418  -0.244308  0  3.216222  0
N  N49  1  0.49446111  0.17790052  0.34550914  1  0  -0.27578  0  2.958472  0  0  -0.250643  0  3.226272  0  0  -0.259124  0  3.24161  0  0  -0.186583  -0.244897  0  3.215864  0
N  N50  1  0.66750059  0.49444095  0.84545660  1  0  -0.276338  0  2.958411  0  0  -0.250849  0  3.226295  0  0  -0.259341  0  3.241597  0  0  -0.186247  -0.245091  0  3.215908  0
N  N51  1  0.17791399  0.85117991  0.84571358  1  0  -0.273955  0  2.959432  0  0  -0.248407  0  3.226589  0  0  -0.2569  0  3.241961  0  0  -0.185736  -0.242659  0  3.216168  0
N  N52  1  0.17949306  0.33307782  0.47079741  1  0  -0.305948  0  3.132492  0  0  -0.250658  0  3.41882  0  0  -0.267402  0  3.436935  0  0  -0.210271  -0.238981  0  3.406109  0
N  N53  1  0.29130517  0.63773570  0.47091168  1  0  -0.305697  0  3.129769  0  0  -0.250551  0  3.416085  0  0  -0.267287  0  3.43418  0  0  -0.210291  -0.238876  0  3.403384  0
N  N54  1  0.33318139  0.29129378  0.97089832  1  0  -0.306387  0  3.13162  0  0  -0.250483  0  3.417327  0  0  -0.267237  0  3.435411  0  0  -0.210567  -0.238795  0  3.40463  0
N  N55  1  0.63768259  0.17955638  0.97079170  1  0  -0.305456  0  3.1301  0  0  -0.25052  0  3.416386  0  0  -0.267267  0  3.434456  0  0  -0.210098  -0.238836  0  3.403705  0
N  N56  1  0.82050010  0.66692214  0.52919790  1  0  -0.305892  0  3.132221  0  0  -0.250648  0  3.418634  0  0  -0.267393  0  3.436748  0  0  -0.210272  -0.238969  0  3.405919  0
N  N57  1  0.70870361  0.36226898  0.52909885  1  0  -0.305654  0  3.129653  0  0  -0.250493  0  3.415941  0  0  -0.26723  0  3.434037  0  0  -0.210253  -0.238819  0  3.403242  0
N  N58  1  0.66680178  0.70870158  0.02909207  1  0  -0.306129  0  3.131616  0  0  -0.250241  0  3.417244  0  0  -0.266994  0  3.435331  0  0  -0.210476  -0.238553  0  3.404548  0
N  N59  1  0.36232442  0.82044592  0.02920918  1  0  -0.305474  0  3.130215  0  0  -0.2506  0  3.416542  0  0  -0.267344  0  3.434607  0  0  -0.210138  -0.238917  0  3.403862  0
N  N60  1  0.01356444  0.48116503  0.55048611  1  0  -0.154744  0  3.036855  0  0  -0.126496  0  3.32195  0  0  -0.125078  0  3.32657  0  0  -0.130989  -0.127571  0  3.31905  0
N  N61  1  0.53693467  0.56931338  0.55055426  1  0  -0.153989  0  3.036742  0  0  -0.125795  0  3.32154  0  0  -0.124368  0  3.326171  0  0  -0.130428  -0.126875  0  3.318635  0
N  N62  1  0.48129207  0.53690323  0.05059159  1  0  -0.154997  0  3.037417  0  0  -0.126888  0  3.322825  0  0  -0.125489  0  3.327437  0  0  -0.131079  -0.127949  0  3.319933  0
N  N63  1  0.56933346  0.01360488  0.05049364  1  0  -0.154536  0  3.036853  0  0  -0.126831  0  3.322216  0  0  -0.125414  0  3.326818  0  0  -0.130988  -0.127902  0  3.319327  0
N  N64  1  0.98644235  0.51883164  0.44952042  1  0  -0.154645  0  3.036618  0  0  -0.126361  0  3.321713  0  0  -0.124943  0  3.326331  0  0  -0.130934  -0.127436  0  3.318813  0
N  N65  1  0.46307835  0.43069027  0.44946554  1  0  -0.153587  0  3.036755  0  0  -0.125602  0  3.321643  0  0  -0.124178  0  3.326278  0  0  -0.13028  -0.126683  0  3.318738  0
N  N66  1  0.51868881  0.46309659  0.94939078  1  0  -0.154913  0  3.037463  0  0  -0.126825  0  3.322812  0  0  -0.125426  0  3.327424  0  0  -0.131075  -0.127887  0  3.319919  0
N  N67  1  0.43065890  0.98638716  0.94950530  1  0  -0.154614  0  3.037129  0  0  -0.12694  0  3.32253  0  0  -0.125521  0  3.327134  0  0  -0.131054  -0.128014  0  3.319643  0
O  O68  1  0.11842606  0.99697973  0.66079018  1  0  -0.787593  0  1.864568  0  0  -0.733178  0  2.066785  0  0  -0.752502  0  2.039524  0  0  -0.587641  -0.719486  0  2.085358  0
O  O69  1  0.54231383  0.16345802  0.66062250  1  0  -0.785893  0  1.866441  0  0  -0.732083  0  2.067724  0  0  -0.751382  0  2.040589  0  0  -0.587591  -0.7184  0  2.086257  0
O  O70  1  0.99703023  0.54242835  0.16069279  1  0  -0.787529  0  1.865292  0  0  -0.733627  0  2.067006  0  0  -0.752945  0  2.039761  0  0  -0.588044  -0.719943  0  2.085574  0
O  O71  1  0.16371686  0.11843773  0.16069839  1  0  -0.786187  0  1.865815  0  0  -0.732293  0  2.067572  0  0  -0.751588  0  2.040424  0  0  -0.587367  -0.718613  0  2.086105  0
O  O72  1  0.88157012  0.00301908  0.33920410  1  0  -0.787589  0  1.864586  0  0  -0.73321  0  2.066669  0  0  -0.752534  0  2.039411  0  0  -0.587662  -0.719518  0  2.085242  0
O  O73  1  0.45768516  0.83654313  0.33937650  1  0  -0.785784  0  1.866506  0  0  -0.731991  0  2.067756  0  0  -0.75129  0  2.040624  0  0  -0.58754  -0.718307  0  2.086289  0
O  O74  1  0.00297599  0.45757059  0.83931265  1  0  -0.787407  0  1.865355  0  0  -0.733517  0  2.067118  0  0  -0.752832  0  2.039877  0  0  -0.588004  -0.719832  0  2.085684  0
O  O75  1  0.83628544  0.88155887  0.83930100  1  0  -0.786108  0  1.865733  0  0  -0.732256  0  2.067491  0  0  -0.751547  0  2.040344  0  0  -0.587341  -0.718576  0  2.086024  0
