# generated using pymatgen
data_NaH11(C2O)4
_symmetry_space_group_name_H-M   'P 1'
_cell_length_a   7.28043948
_cell_length_b   7.98985109
_cell_length_c   16.19588332
_cell_angle_alpha   90.00011758
_cell_angle_beta   92.60220865
_cell_angle_gamma   90.00014163
_symmetry_Int_Tables_number   1
_chemical_formula_structural   NaH11(C2O)4
_chemical_formula_sum   'Na4 H44 C32 O16'
_cell_volume   941.13701408
_cell_formula_units_Z   4
loop_
 _symmetry_equiv_pos_site_id
 _symmetry_equiv_pos_as_xyz
  1  'x, y, z'
loop_
 _atom_site_type_symbol
 _atom_site_label
 _atom_site_symmetry_multiplicity
 _atom_site_fract_x
 _atom_site_fract_y
 _atom_site_fract_z
 _atom_site_occupancy
 _atom_site_hle17_bader_spin_density
 _atom_site_hle17_ddec_charge
 _atom_site_hle17_ddec_spin_density
 _atom_site_hle17_ddec_sum_bond_order
 _atom_site_hle17_magmom
 _atom_site_hse06_10hf_bader_spin_density
 _atom_site_hse06_10hf_ddec_charge
 _atom_site_hse06_10hf_ddec_spin_density
 _atom_site_hse06_10hf_ddec_sum_bond_order
 _atom_site_hse06_10hf_magmom
 _atom_site_hse06_bader_spin_density
 _atom_site_hse06_ddec_charge
 _atom_site_hse06_ddec_spin_density
 _atom_site_hse06_ddec_sum_bond_order
 _atom_site_hse06_magmom
 _atom_site_pbe_bader_spin_density
 _atom_site_pbe_cm5_charge
 _atom_site_pbe_ddec_charge
 _atom_site_pbe_ddec_spin_density
 _atom_site_pbe_ddec_sum_bond_order
 _atom_site_pbe_magmom
Na  Na0  1  0.74811739  0.35461899  0.98534545  1  0  0.892464  0  0.373962  0  0  0.849044  0  0.519275  0  0  0.859906  0  0.496743  0  0  0.665992  0.841  0  0.535454  0
Na  Na1  1  0.75188107  0.85462256  0.01465308  1  0  0.892455  0  0.373951  0  0  0.849019  0  0.519286  0  0  0.859878  0  0.496756  0  0  0.665999  0.840977  0  0.535463  0
Na  Na2  1  0.25187350  0.64538155  0.01465353  1  0  0.892457  0  0.373952  0  0  0.848993  0  0.519316  0  0  0.85986  0  0.49679  0  0  0.665982  0.840955  0  0.535499  0
Na  Na3  1  0.24811945  0.14537923  0.98534549  1  0  0.892457  0  0.373957  0  0  0.849033  0  0.519261  0  0  0.859899  0  0.496733  0  0  0.665986  0.841  0  0.535446  0
H  H4  1  0.36297011  0.58024425  0.72560882  1  0  0.115454  0  0.938708  0  0  0.137046  0  0.997002  0  0  0.138934  0  0.996099  0  0  0.092396  0.135682  0  0.997657  0
H  H5  1  0.13702677  0.08024502  0.27439207  1  0  0.115407  0  0.938752  0  0  0.136963  0  0.997081  0  0  0.138848  0  0.996181  0  0  0.092351  0.1356  0  0.997732  0
H  H6  1  0.63703037  0.41975253  0.27439469  1  0  0.115382  0  0.938804  0  0  0.136954  0  0.997107  0  0  0.138839  0  0.996207  0  0  0.092364  0.135592  0  0.997758  0
H  H7  1  0.86297102  0.91975552  0.72560459  1  0  0.115383  0  0.938794  0  0  0.13694  0  0.997112  0  0  0.138824  0  0.996213  0  0  0.092364  0.135578  0  0.997765  0
H  H8  1  0.40938203  0.72834452  0.64700401  1  0  0.099091  0  0.980172  0  0  0.119808  0  1.043267  0  0  0.120319  0  1.045288  0  0  0.084524  0.119368  0  1.041918  0
H  H9  1  0.09061802  0.22834676  0.35299710  1  0  0.099114  0  0.980173  0  0  0.119803  0  1.04329  0  0  0.120316  0  1.045307  0  0  0.084523  0.119362  0  1.041942  0
H  H10  1  0.59061707  0.27165101  0.35299947  1  0  0.099102  0  0.980133  0  0  0.119773  0  1.043278  0  0  0.120274  0  1.045308  0  0  0.084496  0.119335  0  1.04193  0
H  H11  1  0.90938251  0.77165253  0.64700085  1  0  0.09907  0  0.980171  0  0  0.119773  0  1.043278  0  0  0.120273  0  1.045309  0  0  0.084497  0.119332  0  1.041926  0
H  H12  1  0.51831615  0.74559424  0.74677229  1  0  0.110732  0  0.947606  0  0  0.132067  0  1.00696  0  0  0.133391  0  1.007117  0  0  0.09185  0.131051  0  1.006937  0
H  H13  1  0.98168334  0.24559569  0.25322986  1  0  0.110741  0  0.94753  0  0  0.13206  0  1.006904  0  0  0.133383  0  1.00706  0  0  0.091828  0.131038  0  1.006888  0
H  H14  1  0.48168571  0.25440255  0.25323064  1  0  0.110761  0  0.947563  0  0  0.132084  0  1.006934  0  0  0.133409  0  1.007086  0  0  0.091862  0.131066  0  1.006915  0
H  H15  1  0.01831168  0.75440235  0.74676921  1  0  0.11076  0  0.947457  0  0  0.132053  0  1.006866  0  0  0.133379  0  1.007014  0  0  0.091834  0.131032  0  1.006848  0
H  H16  1  0.84257605  0.07741721  0.87737711  1  0  0.434185  0  0.858683  0  0  0.406087  0  0.918043  0  0  0.415762  0  0.903573  0  0  0.301979  0.399246  0  0.928275  0
H  H17  1  0.65741477  0.57741851  0.12261850  1  0  0.434025  0  0.858879  0  0  0.406012  0  0.918141  0  0  0.415688  0  0.903668  0  0  0.301935  0.399169  0  0.928374  0
H  H18  1  0.15741486  0.92258208  0.12262001  1  0  0.434166  0  0.858695  0  0  0.406074  0  0.918057  0  0  0.41575  0  0.903585  0  0  0.30197  0.399229  0  0.928294  0
H  H19  1  0.34258162  0.42258078  0.87738122  1  0  0.434053  0  0.858854  0  0  0.406033  0  0.918126  0  0  0.41571  0  0.903652  0  0  0.301922  0.399194  0  0.928354  0
H  H20  1  0.62410093  0.07505272  0.87985278  1  0  0.430816  0  0.866722  0  0  0.401672  0  0.927844  0  0  0.411976  0  0.912436  0  0  0.298014  0.394361  0  0.938772  0
H  H21  1  0.87588849  0.57505450  0.12014403  1  0  0.430926  0  0.866603  0  0  0.401762  0  0.927755  0  0  0.412067  0  0.912344  0  0  0.298038  0.39445  0  0.938687  0
H  H22  1  0.37588997  0.92494532  0.12014434  1  0  0.430913  0  0.866624  0  0  0.401748  0  0.927777  0  0  0.412052  0  0.912369  0  0  0.298021  0.394436  0  0.938709  0
H  H23  1  0.12410787  0.42494604  0.87985754  1  0  0.430905  0  0.866629  0  0  0.401745  0  0.927777  0  0  0.412049  0  0.912369  0  0  0.298032  0.394431  0  0.938713  0
H  H24  1  0.46988381  0.34719994  0.09795404  1  0  0.415548  0  0.896514  0  0  0.385336  0  0.960223  0  0  0.395453  0  0.945258  0  0  0.291455  0.37821  0  0.970757  0
H  H25  1  0.03011936  0.84721542  0.90204232  1  0  0.415502  0  0.896547  0  0  0.385366  0  0.960133  0  0  0.395481  0  0.945172  0  0  0.291467  0.378243  0  0.970663  0
H  H26  1  0.53011805  0.65279684  0.90204827  1  0  0.415537  0  0.896517  0  0  0.385346  0  0.96018  0  0  0.395461  0  0.945218  0  0  0.291481  0.378222  0  0.97071  0
H  H27  1  0.96988255  0.15280014  0.09795381  1  0  0.415561  0  0.896497  0  0  0.385345  0  0.960213  0  0  0.395461  0  0.945248  0  0  0.291453  0.378225  0  0.970736  0
H  H28  1  0.54947554  0.16071970  0.09543356  1  0  0.417681  0  0.892239  0  0  0.387927  0  0.955054  0  0  0.397813  0  0.94042  0  0  0.291902  0.380968  0  0.96535  0
H  H29  1  0.95052649  0.66073489  0.90456547  1  0  0.417545  0  0.892362  0  0  0.387844  0  0.955122  0  0  0.397727  0  0.940491  0  0  0.291851  0.380885  0  0.96542  0
H  H30  1  0.45052356  0.83927583  0.90456992  1  0  0.417538  0  0.892383  0  0  0.387825  0  0.95516  0  0  0.39771  0  0.940526  0  0  0.291853  0.380865  0  0.965458  0
H  H31  1  0.04947540  0.33928192  0.09543375  1  0  0.417742  0  0.892157  0  0  0.388004  0  0.954937  0  0  0.397889  0  0.940304  0  0  0.291937  0.381043  0  0.965239  0
H  H32  1  0.98645594  0.30214342  0.73553726  1  0  0.093136  0  0.966713  0  0  0.099186  0  1.035415  0  0  0.102198  0  1.034126  0  0  0.100157  0.096998  0  1.036431  0
H  H33  1  0.51354234  0.80214123  0.26446430  1  0  0.093148  0  0.966677  0  0  0.099199  0  1.035389  0  0  0.102211  0  1.034101  0  0  0.100153  0.097012  0  1.036406  0
H  H34  1  0.01355006  0.69786087  0.26446390  1  0  0.093233  0  0.966683  0  0  0.099257  0  1.035395  0  0  0.102272  0  1.0341  0  0  0.100159  0.097069  0  1.036407  0
H  H35  1  0.48646367  0.19785055  0.73553501  1  0  0.093182  0  0.966703  0  0  0.099225  0  1.035415  0  0  0.102241  0  1.03412  0  0  0.100167  0.097037  0  1.036435  0
H  H36  1  0.56479294  0.61415838  0.54279095  1  0  0.0875  0  0.972732  0  0  0.099499  0  1.03477  0  0  0.101752  0  1.034827  0  0  0.097242  0.097898  0  1.034822  0
H  H37  1  0.93520481  0.11416056  0.45721040  1  0  0.087494  0  0.972776  0  0  0.099499  0  1.034806  0  0  0.101753  0  1.034862  0  0  0.097271  0.097898  0  1.034854  0
H  H38  1  0.43520342  0.38583966  0.45721185  1  0  0.087459  0  0.97276  0  0  0.09946  0  1.034807  0  0  0.101714  0  1.034865  0  0  0.097255  0.097859  0  1.034859  0
H  H39  1  0.06479296  0.88584123  0.54278811  1  0  0.087481  0  0.97269  0  0  0.099487  0  1.034733  0  0  0.10174  0  1.034789  0  0  0.097265  0.097886  0  1.034781  0
H  H40  1  0.02972714  0.28606163  0.58454982  1  0  0.083793  0  0.985411  0  0  0.092544  0  1.051561  0  0  0.094319  0  1.052933  0  0  0.093743  0.09126  0  1.050727  0
H  H41  1  0.47027170  0.78606109  0.41545133  1  0  0.083808  0  0.985429  0  0  0.092578  0  1.051547  0  0  0.094353  0  1.052919  0  0  0.093768  0.091294  0  1.050717  0
H  H42  1  0.97027474  0.71394141  0.41545064  1  0  0.083793  0  0.985432  0  0  0.092586  0  1.051527  0  0  0.094361  0  1.052898  0  0  0.093765  0.091303  0  1.050693  0
H  H43  1  0.52973432  0.21393319  0.58454675  1  0  0.083758  0  0.9854  0  0  0.092526  0  1.05153  0  0  0.0943  0  1.052903  0  0  0.093727  0.091243  0  1.050698  0
H  H44  1  0.81668091  0.44609659  0.48728161  1  0  0.087581  0  0.950834  0  0  0.100339  0  1.00892  0  0  0.102811  0  1.008193  0  0  0.099974  0.098589  0  1.009433  0
H  H45  1  0.68331640  0.94609830  0.51272007  1  0  0.087554  0  0.950864  0  0  0.100312  0  1.008953  0  0  0.102783  0  1.008227  0  0  0.09996  0.098562  0  1.009468  0
H  H46  1  0.18331821  0.55390520  0.51272002  1  0  0.087547  0  0.950862  0  0  0.100308  0  1.008946  0  0  0.102779  0  1.00822  0  0  0.099963  0.098558  0  1.009461  0
H  H47  1  0.31668137  0.05390224  0.48727844  1  0  0.087531  0  0.950816  0  0  0.100286  0  1.008909  0  0  0.102757  0  1.008183  0  0  0.099969  0.098535  0  1.009423  0
C  C48  1  0.73509571  0.46951689  0.81598329  1  0  0.672264  0  3.904704  0  0  0.617074  0  4.205831  0  0  0.65098  0  4.195958  0  0  0.210086  0.594091  0  4.211884  0
C  C49  1  0.76490305  0.96951618  0.18401721  1  0  0.672353  0  3.904891  0  0  0.61713  0  4.205975  0  0  0.651035  0  4.196104  0  0  0.210116  0.59415  0  4.212025  0
C  C50  1  0.26490892  0.53048616  0.18401722  1  0  0.672276  0  3.904965  0  0  0.617061  0  4.206104  0  0  0.650966  0  4.196232  0  0  0.210027  0.594078  0  4.212161  0
C  C51  1  0.23509610  0.03048311  0.81598071  1  0  0.672268  0  3.905134  0  0  0.617077  0  4.206225  0  0  0.650985  0  4.196354  0  0  0.210085  0.594097  0  4.212278  0
C  C52  1  0.74861274  0.46160167  0.72407894  1  0  -0.132893  0  3.716361  0  0  -0.113703  0  3.947229  0  0  -0.122681  0  3.969441  0  0  -0.02075  -0.107915  0  3.932318  0
C  C53  1  0.75138599  0.96160131  0.27592279  1  0  -0.133083  0  3.716653  0  0  -0.113721  0  3.947291  0  0  -0.122699  0  3.969504  0  0  -0.020801  -0.107934  0  3.932377  0
C  C54  1  0.25139325  0.53839637  0.27592346  1  0  -0.132846  0  3.716491  0  0  -0.113607  0  3.947299  0  0  -0.122583  0  3.969514  0  0  -0.020705  -0.107821  0  3.932389  0
C  C55  1  0.24861866  0.03839297  0.72407525  1  0  -0.133139  0  3.716447  0  0  -0.113858  0  3.947195  0  0  -0.122835  0  3.969409  0  0  -0.020838  -0.108075  0  3.932288  0
C  C56  1  0.62543939  0.54982084  0.66990368  1  0  0.145923  0  3.708834  0  0  0.166514  0  3.938833  0  0  0.169454  0  3.962486  0  0  0.001679  0.164614  0  3.92273  0
C  C57  1  0.87455818  0.04982237  0.33009822  1  0  0.145987  0  3.708862  0  0  0.166544  0  3.938782  0  0  0.169483  0  3.962435  0  0  0.001713  0.164643  0  3.922675  0
C  C58  1  0.37455835  0.45018095  0.33009854  1  0  0.145847  0  3.709044  0  0  0.166411  0  3.939036  0  0  0.16935  0  3.962688  0  0  0.00167  0.164511  0  3.922931  0
C  C59  1  0.12544509  0.95017692  0.66990103  1  0  0.145987  0  3.708848  0  0  0.166521  0  3.938848  0  0  0.16946  0  3.9625  0  0  0.001665  0.164625  0  3.92274  0
C  C60  1  0.89323491  0.36881155  0.69245819  1  0  -0.063425  0  3.744756  0  0  -0.08637  0  3.99288  0  0  -0.085483  0  4.012911  0  0  -0.085958  -0.086721  0  3.979241  0
C  C61  1  0.60676357  0.86881225  0.30754220  1  0  -0.063382  0  3.7449  0  0  -0.0864  0  3.993006  0  0  -0.085514  0  4.013038  0  0  -0.085938  -0.086754  0  3.979368  0
C  C62  1  0.10676559  0.63119149  0.30754223  1  0  -0.063562  0  3.744846  0  0  -0.086494  0  3.992949  0  0  -0.085606  0  4.012974  0  0  -0.085977  -0.086842  0  3.979302  0
C  C63  1  0.39324520  0.13118203  0.69245717  1  0  -0.063338  0  3.744562  0  0  -0.086309  0  3.992673  0  0  -0.085423  0  4.012703  0  0  -0.085889  -0.086662  0  3.979043  0
C  C64  1  0.65564986  0.54295824  0.58506571  1  0  -0.150991  0  3.758893  0  0  -0.16721  0  4.002071  0  0  -0.171808  0  4.023055  0  0  -0.097874  -0.164176  0  3.987842  0
C  C65  1  0.84434769  0.04296005  0.41493556  1  0  -0.150899  0  3.758875  0  0  -0.167126  0  4.002045  0  0  -0.171724  0  4.023032  0  0  -0.097899  -0.164095  0  3.987815  0
C  C66  1  0.34434789  0.45703980  0.41493527  1  0  -0.150787  0  3.758884  0  0  -0.167002  0  4.002051  0  0  -0.171599  0  4.023038  0  0  -0.097838  -0.163968  0  3.987822  0
C  C67  1  0.15565556  0.95704174  0.58506492  1  0  -0.150947  0  3.758922  0  0  -0.167163  0  4.002105  0  0  -0.171761  0  4.023091  0  0  -0.097886  -0.164132  0  3.987868  0
C  C68  1  0.47092218  0.65633960  0.69879212  1  0  -0.334084  0  3.736914  0  0  -0.41524  0  3.971582  0  0  -0.418139  0  3.982011  0  0  -0.244079  -0.412953  0  3.964345  0
C  C69  1  0.02907628  0.15634149  0.30120951  1  0  -0.334113  0  3.736895  0  0  -0.415215  0  3.971581  0  0  -0.418112  0  3.98201  0  0  -0.244064  -0.412925  0  3.964341  0
C  C70  1  0.52907830  0.34365593  0.30121078  1  0  -0.33408  0  3.736913  0  0  -0.415162  0  3.971596  0  0  -0.418048  0  3.982035  0  0  -0.244091  -0.412876  0  3.964357  0
C  C71  1  0.97092286  0.84365780  0.69878904  1  0  -0.334037  0  3.736788  0  0  -0.415104  0  3.971469  0  0  -0.417989  0  3.981909  0  0  -0.244032  -0.412816  0  3.964227  0
C  C72  1  0.91751725  0.36020799  0.60773804  1  0  -0.090256  0  3.793639  0  0  -0.102777  0  4.04404  0  0  -0.106617  0  4.066402  0  0  -0.099039  -0.100278  0  4.028834  0
C  C73  1  0.58248258  0.86020648  0.39226300  1  0  -0.090266  0  3.793662  0  0  -0.102799  0  4.044082  0  0  -0.106638  0  4.066444  0  0  -0.099085  -0.100298  0  4.02888  0
C  C74  1  0.08248324  0.63979630  0.39226424  1  0  -0.090276  0  3.793715  0  0  -0.102837  0  4.044128  0  0  -0.106677  0  4.066493  0  0  -0.099109  -0.100338  0  4.028921  0
C  C75  1  0.41752207  0.13978780  0.60773505  1  0  -0.090233  0  3.793446  0  0  -0.102768  0  4.043861  0  0  -0.106606  0  4.066223  0  0  -0.099059  -0.100266  0  4.028655  0
C  C76  1  0.79826023  0.44896910  0.55375677  1  0  -0.067047  0  3.796831  0  0  -0.082785  0  4.050485  0  0  -0.082304  0  4.069855  0  0  -0.093235  -0.082867  0  4.037178  0
C  C77  1  0.70173984  0.94896683  0.44624498  1  0  -0.067078  0  3.796842  0  0  -0.082822  0  4.050512  0  0  -0.082342  0  4.069883  0  0  -0.093201  -0.082908  0  4.037211  0
C  C78  1  0.20173889  0.55103144  0.44624486  1  0  -0.067084  0  3.796792  0  0  -0.082823  0  4.050458  0  0  -0.082344  0  4.069829  0  0  -0.093217  -0.082912  0  4.037159  0
C  C79  1  0.29826205  0.05102871  0.55375486  1  0  -0.066981  0  3.796767  0  0  -0.082706  0  4.050405  0  0  -0.082226  0  4.069776  0  0  -0.093188  -0.082787  0  4.037094  0
O  O80  1  0.57752475  0.47479847  0.84724247  1  0  -0.691623  0  2.007694  0  0  -0.62693  0  2.233159  0  0  -0.651474  0  2.220939  0  0  -0.333816  -0.609803  0  2.241117  0
O  O81  1  0.92246991  0.97479799  0.15275733  1  0  -0.691678  0  2.00788  0  0  -0.626958  0  2.233345  0  0  -0.651501  0  2.221122  0  0  -0.333843  -0.609834  0  2.241301  0
O  O82  1  0.42247300  0.52520082  0.15275851  1  0  -0.691596  0  2.007871  0  0  -0.626889  0  2.233356  0  0  -0.651433  0  2.221136  0  0  -0.333789  -0.609763  0  2.241319  0
O  O83  1  0.07753063  0.02520755  0.84723939  1  0  -0.691571  0  2.007949  0  0  -0.626893  0  2.233393  0  0  -0.651437  0  2.221173  0  0  -0.333796  -0.60977  0  2.241355  0
O  O84  1  0.88466281  0.47101405  0.86090790  1  0  -0.71622  0  2.014382  0  0  -0.65092  0  2.241585  0  0  -0.675531  0  2.228014  0  0  -0.360084  -0.633611  0  2.250367  0
O  O85  1  0.61533594  0.97100906  0.13909446  1  0  -0.716223  0  2.014384  0  0  -0.650913  0  2.241597  0  0  -0.675526  0  2.228029  0  0  -0.360052  -0.633602  0  2.250369  0
O  O86  1  0.11533905  0.52899400  0.13909502  1  0  -0.716259  0  2.014453  0  0  -0.650927  0  2.241631  0  0  -0.675544  0  2.228066  0  0  -0.360008  -0.63361  0  2.250396  0
O  O87  1  0.38466594  0.02898647  0.86090599  1  0  -0.716163  0  2.014427  0  0  -0.650873  0  2.241622  0  0  -0.67549  0  2.228057  0  0  -0.360039  -0.633566  0  2.250408  0
O  O88  1  0.73908451  0.09010201  0.91378505  1  0  -0.909374  0  1.743472  0  0  -0.865715  0  1.907904  0  0  -0.881768  0  1.875727  0  0  -0.672332  -0.854374  0  1.930478  0
O  O89  1  0.76091323  0.59010089  0.08621010  1  0  -0.909273  0  1.74357  0  0  -0.865722  0  1.907901  0  0  -0.881773  0  1.875727  0  0  -0.672303  -0.854381  0  1.930476  0
O  O90  1  0.26091328  0.90990103  0.08621160  1  0  -0.909416  0  1.743404  0  0  -0.86575  0  1.907823  0  0  -0.881806  0  1.875649  0  0  -0.672316  -0.854412  0  1.930405  0
O  O91  1  0.23908315  0.40989840  0.91379023  1  0  -0.90931  0  1.743584  0  0  -0.865741  0  1.907902  0  0  -0.881795  0  1.875732  0  0  -0.672286  -0.854402  0  1.930483  0
O  O92  1  0.50346902  0.25490657  0.06044062  1  0  -0.93027  0  1.774346  0  0  -0.88251  0  1.947174  0  0  -0.899278  0  1.914099  0  0  -0.713842  -0.870656  0  1.97029  0
O  O93  1  0.99653329  0.75492075  0.93955728  1  0  -0.930102  0  1.774494  0  0  -0.882429  0  1.947127  0  0  -0.899196  0  1.914063  0  0  -0.713805  -0.87057  0  1.970233  0
O  O94  1  0.49653422  0.74508521  0.93956234  1  0  -0.930134  0  1.774482  0  0  -0.882403  0  1.947214  0  0  -0.89917  0  1.914146  0  0  -0.71381  -0.870548  0  1.97032  0
O  O95  1  0.00346861  0.24509356  0.06044070  1  0  -0.930339  0  1.774288  0  0  -0.882591  0  1.947138  0  0  -0.899357  0  1.914058  0  0  -0.713864  -0.870737  0  1.970251  0
