# generated using pymatgen
data_Cu2H14C17(N5O2)2
_symmetry_space_group_name_H-M   'P 1'
_cell_length_a   9.47347474
_cell_length_b   9.32941480
_cell_length_c   14.53449669
_cell_angle_alpha   108.70080347
_cell_angle_beta   96.61685305
_cell_angle_gamma   89.99208273
_symmetry_Int_Tables_number   1
_chemical_formula_structural   Cu2H14C17(N5O2)2
_chemical_formula_sum   'Cu4 H28 C34 N20 O8'
_cell_volume   1207.73855049
_cell_formula_units_Z   2
loop_
 _symmetry_equiv_pos_site_id
 _symmetry_equiv_pos_as_xyz
  1  'x, y, z'
loop_
 _atom_site_type_symbol
 _atom_site_label
 _atom_site_symmetry_multiplicity
 _atom_site_fract_x
 _atom_site_fract_y
 _atom_site_fract_z
 _atom_site_occupancy
 _atom_site_hle17_ddec_charge
 _atom_site_hle17_ddec_spin_density
 _atom_site_hle17_ddec_sum_bond_order
 _atom_site_hle17_magmom
 _atom_site_hse06_10hf_ddec_charge
 _atom_site_hse06_10hf_ddec_spin_density
 _atom_site_hse06_10hf_ddec_sum_bond_order
 _atom_site_hse06_10hf_magmom
 _atom_site_hse06_ddec_charge
 _atom_site_hse06_ddec_spin_density
 _atom_site_hse06_ddec_sum_bond_order
 _atom_site_hse06_magmom
 _atom_site_pbe_cm5_charge
 _atom_site_pbe_ddec_charge
 _atom_site_pbe_ddec_spin_density
 _atom_site_pbe_ddec_sum_bond_order
 _atom_site_pbe_magmom
Cu  Cu0  1  0.87476501  0.02075715  0.38295202  1  0.722353  0.696876  1.998484  0.503  0.674711  0.784895  2.415625  0.619  0.761352  0.857307  2.353308  0.706  0.774852  0.623187  0.729378  2.458103  0.56
Cu  Cu1  1  0.62525304  0.63761100  0.61685101  1  0.720809  -0.755937  2.001308  -0.497  0.673239  -0.836506  2.418163  -0.616  0.759178  -0.930028  2.357011  -0.705  0.774389  0.621068  -0.756941  2.461112  -0.549
Cu  Cu2  1  0.12510800  0.97922527  0.61682446  1  0.722228  0.697165  2.000483  0.503  0.674686  0.784517  2.417567  0.619  0.760764  0.857308  2.355989  0.706  0.775042  0.623406  0.726571  2.459711  0.557
Cu  Cu3  1  0.37473106  0.36243394  0.38314465  1  0.72066  0.704166  1.999418  0.508  0.673167  0.787805  2.415852  0.621  0.759092  0.858741  2.354883  0.707  0.77399  0.621312  0.736429  2.458802  0.565
H  H4  1  0.12988004  0.52654253  0.25457949  1  0.132413  0.000705  0.982826  0.001  0.139505  0.000617  1.046124  0.001  0.144064  0.000394  1.043908  0.0  0.108576  0.136091  0.000791  1.048038  0.001
H  H5  1  0.37011353  0.27163309  0.74522757  1  0.131926  -0.00061  0.981905  -0.001  0.138808  -0.00044  1.045534  -0.001  0.143437  -0.00034  1.04326  0.0  0.10857  0.135344  -0.000496  1.047475  -0.001
H  H6  1  0.87007490  0.47353796  0.74547070  1  0.132519  0.000527  0.982655  0.001  0.139548  0.000396  1.046046  0.001  0.144115  0.000307  1.043838  0.0  0.108493  0.136124  0.000449  1.04796  0.001
H  H7  1  0.62986215  0.72835078  0.25476508  1  0.131903  0.000705  0.981705  0.001  0.138911  0.000621  1.045286  0.001  0.143522  0.000397  1.043027  0.0  0.108528  0.135403  0.000796  1.047312  0.001
H  H8  1  0.00819750  0.72196773  0.37459085  1  0.082253  0.001252  0.961006  0.002  0.081292  0.000939  1.038183  0.002  0.082016  0.000653  1.0371  0.001  0.116352  0.080332  0.001134  1.039343  0.002
H  H9  1  0.49212692  0.34705035  0.62530445  1  0.082125  -0.001491  0.961484  -0.002  0.081754  -0.001089  1.038151  -0.002  0.082534  -0.000794  1.036979  -0.001  0.116521  0.08081  -0.001275  1.039297  -0.002
H  H10  1  0.99174987  0.27812551  0.62541745  1  0.08231  0.001343  0.961108  0.002  0.081269  0.001064  1.038434  0.002  0.082005  0.000726  1.037326  0.001  0.11636  0.080348  0.001307  1.039573  0.002
H  H11  1  0.50785922  0.65283155  0.37465524  1  0.08184  0.001453  0.961332  0.002  0.081496  0.001147  1.037993  0.002  0.082341  0.000807  1.036758  0.001  0.116244  0.080431  0.001386  1.039239  0.002
H  H12  1  0.05921460  0.79380185  0.05994704  1  0.108991  0.000586  0.944489  0.001  0.121847  0.00053  0.996813  0.001  0.124863  0.000374  0.996053  0.0  0.112455  0.119511  0.000644  0.997748  0.001
H  H13  1  0.44041063  0.73347970  0.93969291  1  0.108345  -0.000633  0.94488  -0.001  0.121462  -0.00056  0.996975  -0.001  0.124414  -0.000403  0.99629  0.0  0.11219  0.119143  -0.000665  0.997901  -0.001
H  H14  1  0.94079863  0.20622786  0.94006150  1  0.10889  0.000579  0.944562  0.001  0.121734  0.000524  0.996948  0.001  0.124748  0.000373  0.996199  0.0  0.11243  0.119419  0.000632  0.99785  0.001
H  H15  1  0.55966408  0.26652930  0.06024919  1  0.108593  0.000583  0.944468  0.001  0.121609  0.000525  0.996678  0.001  0.12462  0.000373  0.995911  0.0  0.112105  0.119189  0.000633  0.99772  0.001
H  H16  1  0.93425990  0.97566324  0.18705194  1  0.097091  0.001254  0.944528  0.002  0.10645  0.000977  1.00408  0.002  0.108481  0.000667  1.001587  0.001  0.12147  0.104478  0.001199  1.006309  0.002
H  H17  1  0.56545665  0.78828369  0.81260212  1  0.096304  -0.001418  0.945748  -0.002  0.10588  -0.001056  1.005169  -0.002  0.107798  -0.000753  1.002774  -0.001  0.121258  0.10401  -0.001247  1.007301  -0.002
H  H18  1  0.06566288  0.02430421  0.81287278  1  0.097237  0.001282  0.943887  0.002  0.106487  0.000984  1.003633  0.002  0.108439  0.000683  1.001225  0.001  0.121335  0.104531  0.001192  1.00583  0.002
H  H19  1  0.43450844  0.21167404  0.18725188  1  0.096138  0.001256  0.945798  0.002  0.105877  0.00098  1.005014  0.002  0.10782  0.000667  1.002594  0.001  0.121241  0.103928  0.001206  1.007203  0.002
H  H20  1  0.10075297  0.43142223  0.03144573  1  0.07962  -0.000388  0.943756  -0.001  0.098982  -0.00013  1.004191  0.0  0.099343  -0.000143  1.005075  0.0  0.097803  0.09868  -0.000116  1.003666  0.0
H  H21  1  0.39906884  0.39988169  0.96844231  1  0.078682  0.000412  0.943739  0.001  0.098449  0.000144  1.003765  0.0  0.098772  0.000155  1.004689  0.0  0.097702  0.098137  0.000131  1.003272  0.0
H  H22  1  0.89923870  0.56860630  0.96857457  1  0.07963  -0.000375  0.943618  -0.001  0.098954  -0.000125  1.004102  0.0  0.099305  -0.000141  1.004995  0.0  0.097792  0.098666  -0.000108  1.003578  0.0
H  H23  1  0.60093830  0.60015221  0.03155162  1  0.078591  -0.000447  0.943455  -0.001  0.09837  -0.000144  1.003519  0.0  0.098676  -0.000162  1.004462  0.0  0.097586  0.098012  -0.000127  1.003059  0.0
H  H24  1  0.25832549  0.47174381  0.11201144  1  0.086378  -0.000188  0.936479  0.0  0.104446  -6.2e-05  0.994546  0.0  0.105166  -6.5e-05  0.995632  0.0  0.098139  0.103933  -5.7e-05  0.993816  0.0
H  H25  1  0.24155484  0.35946863  0.88783027  1  0.086372  8.4e-05  0.936406  0.0  0.104315  1.3e-05  0.994559  0.0  0.105081  1.6e-05  0.995583  0.0  0.097991  0.103761  1.1e-05  0.993859  0.0
H  H26  1  0.74167280  0.52826884  0.88799913  1  0.086283  -0.000104  0.936359  0.0  0.104355  -1.7e-05  0.994452  0.0  0.105095  -2.1e-05  0.995509  0.0  0.098108  0.103789  -1.6e-05  0.993775  0.0
H  H27  1  0.75845749  0.64056530  0.11216186  1  0.086326  -0.000188  0.936463  0.0  0.104199  -6.4e-05  0.994726  0.0  0.104965  -6.7e-05  0.99574  0.0  0.097928  0.103651  -5.8e-05  0.99402  0.0
H  H28  1  0.32825238  0.67092329  0.04170293  1  0.065438  -4.9e-05  0.932397  0.0  0.086383  -5e-05  0.98927  0.0  0.086985  -3.2e-05  0.989645  0.0  0.09308  0.085826  -6.5e-05  0.989164  0.0
H  H29  1  0.17142166  0.62894215  0.95788481  1  0.065788  5.2e-05  0.932224  0.0  0.086649  4.9e-05  0.989237  0.0  0.087254  3.3e-05  0.989615  0.0  0.092844  0.08607  6.2e-05  0.989143  0.0
H  H30  1  0.67175038  0.32909959  0.95830923  1  0.065519  2.9e-05  0.932158  0.0  0.08643  2.6e-05  0.9891  0.0  0.087032  1.7e-05  0.989475  0.0  0.093062  0.085855  3.5e-05  0.989011  0.0
H  H31  1  0.82857182  0.37108518  0.04213053  1  0.06574  3.1e-05  0.932069  0.0  0.086568  2.7e-05  0.989162  0.0  0.087165  1.9e-05  0.989556  0.0  0.092876  0.086016  3.6e-05  0.98904  0.0
C  C32  1  0.08872932  0.62444691  0.23600373  1  -0.164646  0.012661  3.664631  0.014  -0.180678  0.004743  3.903435  0.006  -0.189946  0.004143  3.92382  0.005  -0.081751  -0.174733  0.005168  3.889971  0.006
C  C33  1  0.41122608  0.38811783  0.76378540  1  -0.163826  -0.012951  3.666143  -0.013  -0.179742  -0.004633  3.905047  -0.005  -0.18908  -0.004289  3.925464  -0.005  -0.081602  -0.173761  -0.004795  3.891611  -0.005
C  C34  1  0.91125841  0.37563928  0.76402654  1  -0.164473  0.011848  3.664496  0.013  -0.18059  0.004316  3.903469  0.005  -0.189878  0.003936  3.923896  0.005  -0.081664  -0.174655  0.004528  3.890018  0.005
C  C35  1  0.58878933  0.61184950  0.23620251  1  -0.164294  0.012601  3.666298  0.013  -0.18043  0.004736  3.905053  0.006  -0.189747  0.004139  3.92546  0.005  -0.081796  -0.174498  0.00514  3.891729  0.006
C  C36  1  0.01910563  0.73270009  0.30333212  1  0.135294  -0.008152  3.691903  -0.008  0.103364  -0.000545  3.954294  -0.001  0.111899  -0.001933  3.976593  -0.003  0.047592  0.098086  0.000513  3.939911  0.0
C  C37  1  0.48091903  0.42902550  0.69647448  1  0.134382  0.006935  3.691965  0.008  0.101411  0.000149  3.954361  0.001  0.109906  0.001478  3.976695  0.003  0.046703  0.0962  -0.000849  3.939844  0.0
C  C38  1  0.98084575  0.26738414  0.69667458  1  0.134652  -0.008051  3.691817  -0.008  0.102742  -0.000462  3.954244  -0.001  0.111246  -0.001882  3.976507  -0.003  0.047329  0.097511  0.000619  3.93986  0.0
C  C39  1  0.51907632  0.57088114  0.30347410  1  0.135122  -0.008016  3.691781  -0.008  0.102393  -0.000396  3.953887  -0.001  0.110869  -0.001824  3.976164  -0.002  0.047355  0.097183  0.000682  3.939541  0.0
C  C40  1  0.04894521  0.77091594  0.12782511  1  -0.174486  0.011608  3.720146  0.012  -0.190598  0.004311  3.963745  0.005  -0.198855  0.003897  3.98368  0.005  -0.083919  -0.185368  0.004562  3.950653  0.005
C  C41  1  0.45074692  0.64276494  0.87183889  1  -0.174925  -0.012507  3.719497  -0.012  -0.191541  -0.00457  3.963565  -0.005  -0.19977  -0.004213  3.9835  -0.005  -0.083933  -0.186243  -0.004728  3.950417  -0.005
C  C42  1  0.95105675  0.22910108  0.87217482  1  -0.174707  0.011445  3.720325  0.012  -0.190856  0.004277  3.964001  0.005  -0.199127  0.003873  3.983946  0.005  -0.08408  -0.185586  0.004511  3.950846  0.005
C  C43  1  0.54929159  0.35723122  0.12810294  1  -0.174988  0.011615  3.71902  0.012  -0.191468  0.004335  3.962815  0.005  -0.199721  0.003916  3.982705  0.005  -0.083857  -0.186225  0.004583  3.949842  0.005
C  C44  1  0.10548747  0.64214458  0.14569324  1  0.162765  -0.010763  3.697313  -0.01  0.176996  -0.00299  3.935528  -0.003  0.183684  -0.003329  3.956371  -0.003  0.01787  0.172526  -0.002665  3.921402  -0.003
C  C45  1  0.39428630  0.49612740  0.85402339  1  0.163982  0.009778  3.69802  0.01  0.178496  0.0028  3.93578  0.003  0.185184  0.003071  3.956631  0.003  0.01811  0.174052  0.002512  3.921603  0.003
C  C46  1  0.89451909  0.35789313  0.85432621  1  0.162698  -0.010649  3.697637  -0.01  0.177045  -0.002984  3.935799  -0.003  0.183714  -0.00332  3.956673  -0.003  0.017923  0.172606  -0.00265  3.921642  -0.003
C  C47  1  0.60574156  0.50387597  0.14595171  1  0.163967  -0.010738  3.697853  -0.01  0.178795  -0.002987  3.93519  -0.003  0.185513  -0.003331  3.95599  -0.003  0.017972  0.174281  -0.002653  3.921098  -0.003
C  C48  1  0.97874507  0.87379368  0.19802259  1  0.12046  -0.00879  3.695428  -0.008  0.093155  -0.00069  3.947677  -0.001  0.102869  -0.002033  3.966406  -0.003  0.044428  0.087005  0.000338  3.935853  0.0
C  C49  1  0.52099221  0.67544484  0.80166035  1  0.123063  0.007627  3.696242  0.008  0.095035  0.0004  3.948395  0.001  0.104857  0.001661  3.967073  0.003  0.045334  0.088793  -0.000544  3.936507  0.0
C  C50  1  0.02118345  0.12621728  0.80193592  1  0.120328  -0.008621  3.695291  -0.008  0.093102  -0.000678  3.947584  -0.001  0.102863  -0.002019  3.966294  -0.003  0.044592  0.086931  0.000372  3.935806  0.0
C  C51  1  0.47899347  0.32450937  0.19823874  1  0.122809  -0.008699  3.696224  -0.008  0.094789  -0.00066  3.948204  -0.001  0.104628  -0.002015  3.966857  -0.003  0.045235  0.088581  0.000391  3.936401  0.0
C  C52  1  0.17936813  0.52376244  0.07216821  1  -0.159304  0.000761  3.696609  0.001  -0.199784  0.000141  3.946215  0.0  -0.2015  5.6e-05  3.958563  0.0  -0.154153  -0.198478  0.000236  3.937641  0.0
C  C53  1  0.32042154  0.45137745  0.92761290  1  -0.158813  -0.000831  3.695269  -0.001  -0.199611  -0.000165  3.945547  0.0  -0.201318  -8e-05  3.957853  0.0  -0.154174  -0.19828  -0.000243  3.936952  0.0
C  C54  1  0.82063683  0.47626049  0.92784544  1  -0.159241  0.000777  3.696739  0.001  -0.199664  0.000145  3.946385  0.0  -0.20138  6.7e-05  3.958728  0.0  -0.154144  -0.198352  0.000229  3.93784  0.0
C  C55  1  0.67959385  0.54865649  0.07237732  1  -0.158641  0.000713  3.694874  0.001  -0.199399  0.000122  3.945013  0.0  -0.201079  3.5e-05  3.957275  0.0  -0.153985  -0.198054  0.000217  3.936453  0.0
C  C56  1  0.24985449  0.57945055  0.99983448  1  -0.097775  -2.5e-05  3.704517  0.0  -0.144765  -1.4e-05  3.975371  0.0  -0.145328  -1.3e-05  3.989243  0.0  -0.163354  -0.144081  -1.3e-05  3.96558  0.0
C  C57  1  0.75014775  0.42057104  0.00016914  1  -0.097984  -0.000173  3.704347  0.0  -0.144939  2.8e-05  3.975266  0.0  -0.145506  -2.1e-05  3.989125  0.0  -0.163497  -0.144262  7.4e-05  3.965473  0.0
C  C58  1  0.13385268  0.20694443  0.39882697  1  0.166786  -0.007373  3.755005  -0.004  0.156596  -0.001651  4.011162  0.0  0.167312  -0.00316  4.024159  -0.002  0.214331  0.149457  -0.000568  4.003066  0.002
C  C59  1  0.36629791  0.80834351  0.60108205  1  0.170226  -0.001069  3.755517  0.0  0.159867  -0.000955  4.011598  0.0  0.170801  -0.000795  4.024418  0.0  0.215802  0.15242  -0.001113  4.003663  -0.001
C  C60  1  0.86627638  0.79288670  0.60123444  1  0.168873  0.000756  3.755635  0.0  0.158894  0.000719  4.01151  0.0  0.169692  0.000556  4.024547  0.0  0.215212  0.151474  0.000945  4.003461  0.001
C  C61  1  0.63375711  0.19175568  0.39893702  1  0.170315  -0.007405  3.754078  -0.005  0.160209  -0.001594  4.009763  0.0  0.170823  -0.003106  4.022914  -0.002  0.215922  0.153033  -0.000551  4.001704  0.002
C  C62  1  0.08734566  0.25975107  0.31373178  1  0.594727  -0.006797  3.961007  -0.009  0.556446  -0.000707  4.267138  -0.003  0.590882  -0.000392  4.261283  -0.002  0.206632  0.53271  -0.000942  4.270307  -0.003
C  C63  1  0.41244095  0.94621664  0.68627735  1  0.592227  -0.006419  3.961687  -0.009  0.553953  -0.000459  4.267663  -0.003  0.588287  -0.000296  4.261883  -0.002  0.205544  0.530311  -0.000568  4.270693  -0.003
C  C64  1  0.91252622  0.74011989  0.68639483  1  0.594281  0.0054  3.961719  0.009  0.555939  0.000129  4.267645  0.003  0.590355  -6e-06  4.261781  0.002  0.206208  0.532244  0.000274  4.270684  0.003
C  C65  1  0.58730324  0.05402802  0.31375236  1  0.590957  -0.006701  3.964196  -0.009  0.552655  -0.000659  4.270397  -0.002  0.587074  -0.000353  4.2647  -0.001  0.204977  0.528957  -0.000889  4.273427  -0.003
N  N66  1  0.96475676  0.85520207  0.28470196  1  -0.282082  0.092264  3.355961  0.116  -0.234206  0.06255  3.654065  0.084  -0.268061  0.051599  3.680564  0.074  -0.350421  -0.214784  0.067383  3.638656  0.087
N  N67  1  0.53513009  0.57019818  0.71505146  1  -0.282391  -0.100473  3.354846  -0.116  -0.233434  -0.066948  3.651957  -0.084  -0.267186  -0.056264  3.678514  -0.074  -0.349764  -0.213809  -0.070674  3.636421  -0.086
N  N68  1  0.03512103  0.14484458  0.71526802  1  -0.281906  0.091882  3.354938  0.116  -0.233909  0.062685  3.652693  0.084  -0.267537  0.051737  3.679097  0.074  -0.350273  -0.214691  0.067242  3.637378  0.087
N  N69  1  0.46481374  0.42970848  0.28486698  1  -0.283015  0.09205  3.354944  0.116  -0.233889  0.062561  3.651954  0.084  -0.267619  0.051617  3.678493  0.074  -0.350279  -0.214591  0.067183  3.636659  0.087
N  N70  1  0.06692915  0.12096681  0.43933874  1  -0.244567  0.058393  3.248147  0.073  -0.217709  0.045792  3.57227  0.061  -0.240697  0.039037  3.587557  0.055  -0.244996  -0.204468  0.049105  3.564139  0.063
N  N71  1  0.43339217  0.68200112  0.56076609  1  -0.244717  -0.061902  3.247205  -0.072  -0.217972  -0.048045  3.571796  -0.061  -0.241095  -0.041649  3.58722  -0.055  -0.245605  -0.204045  -0.050205  3.563116  -0.062
N  N72  1  0.93325740  0.87892759  0.56082224  1  -0.245366  0.056172  3.248103  0.071  -0.21877  0.044659  3.572651  0.061  -0.241913  0.03794  3.588076  0.055  -0.245453  -0.204982  0.047456  3.564053  0.062
N  N73  1  0.56689577  0.31827216  0.43944764  1  -0.244927  0.05896  3.248232  0.074  -0.217906  0.046408  3.572188  0.062  -0.240712  0.039526  3.587582  0.056  -0.245016  -0.204639  0.049694  3.56401  0.064
N  N74  1  0.16112236  0.10535842  0.51226626  1  -0.091578  0.006225  3.082632  0.009  -0.07838  0.004213  3.41807  0.006  -0.085878  0.001843  3.428767  0.004  -0.102078  -0.073552  0.006879  3.412162  0.01
N  N75  1  0.33915703  0.59308362  0.48785405  1  -0.09164  0.009714  3.080962  0.014  -0.078589  0.003398  3.416487  0.006  -0.086073  0.001945  3.427263  0.005  -0.101406  -0.07362  0.005473  3.410191  0.009
N  N76  1  0.83903567  0.89463529  0.48778234  1  -0.090857  -0.012001  3.081581  -0.012  -0.077438  -0.004635  3.416855  -0.005  -0.084954  -0.003609  3.427565  -0.004  -0.101469  -0.072673  -0.005627  3.410688  -0.006
N  N77  1  0.66124407  0.40682094  0.51222548  1  -0.092238  0.008401  3.081715  0.009  -0.078883  0.005796  3.416821  0.006  -0.086274  0.003517  3.427464  0.003  -0.102144  -0.074195  0.008162  3.411025  0.009
N  N78  1  0.28171264  0.17954840  0.51631469  1  -0.029817  0.003102  2.874088  0.004  -0.023789  0.003942  3.166939  0.005  -0.01597  0.001951  3.177033  0.003  -0.074334  -0.028337  0.005501  3.1604  0.007
N  N79  1  0.21856253  0.66298329  0.48373711  1  -0.027804  -0.00695  2.873955  -0.007  -0.021694  -0.002946  3.166662  -0.003  -0.013801  -0.002295  3.176777  -0.003  -0.073764  -0.026241  -0.003583  3.159871  -0.004
N  N80  1  0.71856388  0.82046936  0.48367241  1  -0.029998  0.005233  2.875511  0.006  -0.023946  0.001888  3.16858  0.003  -0.016082  0.00124  3.178788  0.002  -0.07415  -0.028446  0.00261  3.161671  0.003
N  N81  1  0.78184514  0.33663539  0.51617673  1  -0.02813  0.00418  2.872937  0.006  -0.021786  0.00487  3.165275  0.006  -0.013973  0.002824  3.175335  0.004  -0.073517  -0.026392  0.006447  3.158872  0.008
N  N82  1  0.26548959  0.24334679  0.44566623  1  -0.261509  0.066952  3.29207  0.083  -0.231973  0.049875  3.609677  0.066  -0.258203  0.041377  3.624551  0.058  -0.246398  -0.216431  0.05454  3.601332  0.069
N  N83  1  0.23466427  0.79766482  0.55424591  1  -0.264995  0.060255  3.290249  0.076  -0.235972  0.046122  3.608603  0.062  -0.262391  0.038256  3.623473  0.054  -0.247325  -0.220216  0.05015  3.599923  0.064
N  N84  1  0.73472860  0.75647942  0.55430919  1  -0.262688  -0.065745  3.289605  -0.075  -0.233684  -0.049577  3.607687  -0.061  -0.260113  -0.041972  3.622725  -0.054  -0.24698  -0.217574  -0.052796  3.598781  -0.064
N  N85  1  0.76547910  0.20216218  0.44562673  1  -0.265518  0.066601  3.2943  0.083  -0.236045  0.049821  3.612238  0.066  -0.26234  0.041369  3.627009  0.058  -0.248547  -0.220672  0.054503  3.604069  0.069
O  O86  1  0.18900748  0.33414536  0.29368620  1  -0.550153  0.112702  2.02017  0.151  -0.538102  0.066593  2.296925  0.098  -0.581195  0.048845  2.29036  0.076  -0.316964  -0.509495  0.077664  2.301599  0.109
O  O87  1  0.31052036  0.04041845  0.70616044  1  -0.550385  0.112301  2.022608  0.15  -0.537515  0.066519  2.29908  0.097  -0.580704  0.048976  2.292666  0.076  -0.316335  -0.50868  0.077141  2.303364  0.108
O  O88  1  0.81069652  0.66576437  0.70631299  1  -0.550453  -0.122681  2.022138  -0.149  -0.537974  -0.071084  2.298735  -0.097  -0.581056  -0.053376  2.292159  -0.076  -0.316343  -0.508999  -0.080972  2.303132  -0.108
O  O89  1  0.68910176  0.95977204  0.29355068  1  -0.549574  0.113012  2.021804  0.151  -0.537032  0.066767  2.298264  0.098  -0.580275  0.04904  2.291774  0.076  -0.316261  -0.50844  0.077932  2.302787  0.109
O  O90  1  0.96528917  0.23109356  0.26958637  1  -0.546359  0.022479  1.861516  0.03  -0.531876  0.009666  2.069131  0.014  -0.554881  0.003746  2.060254  0.006  -0.316676  -0.513589  0.017146  2.073816  0.023
O  O91  1  0.53430168  0.96187792  0.73068029  1  -0.545346  0.022824  1.862334  0.029  -0.530848  0.010415  2.069916  0.014  -0.553627  0.004919  2.061012  0.007  -0.316707  -0.512794  0.017279  2.074587  0.023
O  O92  1  0.03447539  0.76875518  0.73070182  1  -0.546448  -0.024908  1.862012  -0.029  -0.531851  -0.011037  2.069488  -0.014  -0.554656  -0.005357  2.060545  -0.007  -0.316898  -0.513719  -0.017849  2.074149  -0.022
O  O93  1  0.46524544  0.03851227  0.26962130  1  -0.544644  0.022647  1.861831  0.03  -0.530476  0.009642  2.069702  0.014  -0.553403  0.003737  2.060815  0.006  -0.316373  -0.512168  0.017237  2.074312  0.023
