# generated using pymatgen
data_CoH20C22(NO2)2
_symmetry_space_group_name_H-M   'P 1'
_cell_length_a   8.79824690
_cell_length_b   10.15438579
_cell_length_c   11.68182788
_cell_angle_alpha   68.64238728
_cell_angle_beta   84.86502936
_cell_angle_gamma   78.06545155
_symmetry_Int_Tables_number   1
_chemical_formula_structural   CoH20C22(NO2)2
_chemical_formula_sum   'Co2 H40 C44 N4 O8'
_cell_volume   950.86525687
_cell_formula_units_Z   2
loop_
 _symmetry_equiv_pos_site_id
 _symmetry_equiv_pos_as_xyz
  1  'x, y, z'
loop_
 _atom_site_type_symbol
 _atom_site_label
 _atom_site_symmetry_multiplicity
 _atom_site_fract_x
 _atom_site_fract_y
 _atom_site_fract_z
 _atom_site_occupancy
 _atom_site_hle17_ddec_charge
 _atom_site_hle17_ddec_spin_density
 _atom_site_hle17_ddec_sum_bond_order
 _atom_site_hle17_magmom
 _atom_site_hse06_10hf_ddec_charge
 _atom_site_hse06_10hf_ddec_spin_density
 _atom_site_hse06_10hf_ddec_sum_bond_order
 _atom_site_hse06_10hf_magmom
 _atom_site_hse06_ddec_charge
 _atom_site_hse06_ddec_spin_density
 _atom_site_hse06_ddec_sum_bond_order
 _atom_site_hse06_magmom
 _atom_site_pbe_cm5_charge
 _atom_site_pbe_ddec_charge
 _atom_site_pbe_ddec_spin_density
 _atom_site_pbe_ddec_sum_bond_order
 _atom_site_pbe_magmom
Co  Co0  1  0.35805540  0.84324471  0.05688676  1  0.97333  -3.004724  2.041759  -2.585  0.941173  -2.914914  2.448776  -2.645  1.015697  -2.944589  2.379041  -2.719  0.674809  0.875505  -2.887057  2.514616  -2.575
Co  Co1  1  0.64193435  0.15675094  0.94311603  1  0.973345  3.004725  2.041617  2.585  0.941265  2.914921  2.448571  2.645  1.015713  2.944604  2.37887  2.719  0.674781  0.875486  2.887099  2.514465  2.575
H  H2  1  0.37753182  0.39585349  0.02883914  1  0.126924  -0.000296  0.966525  0.0  0.132142  -0.00029  1.037088  0.0  0.13733  -0.000244  1.03256  0.0  0.108369  0.127775  -0.000358  1.041821  0.0
H  H3  1  0.62245543  0.60414324  0.97116349  1  0.12697  0.000296  0.966427  0.0  0.132196  0.00029  1.036971  0.0  0.13738  0.000244  1.032451  0.0  0.108405  0.127832  0.000358  1.041706  0.0
H  H4  1  0.01779260  0.14482459  0.16809905  1  0.100873  -0.000218  0.964663  0.0  0.108746  -0.000113  1.031615  0.0  0.111556  -6.6e-05  1.030642  0.0  0.099589  0.106828  -0.000171  1.032188  0.0
H  H5  1  0.98220086  0.85517534  0.83190213  1  0.100943  0.000219  0.964642  0.0  0.108806  0.000113  1.0316  0.0  0.111615  6.6e-05  1.030629  0.0  0.0996  0.106886  0.000171  1.032173  0.0
H  H6  1  0.96006702  0.56967101  0.18617861  1  0.09824  -0.000263  0.946715  0.0  0.109127  -0.000227  1.010151  0.0  0.112395  -0.000141  1.008242  0.0  0.100704  0.106546  -0.000338  1.011713  0.0
H  H7  1  0.03992249  0.43032572  0.81382043  1  0.098196  0.000263  0.946722  0.0  0.109047  0.000227  1.010199  0.0  0.112333  0.00014  1.00827  0.0  0.100679  0.106472  0.000338  1.011758  0.0
H  H8  1  0.72042136  0.38372134  0.17184862  1  0.127282  -7.1e-05  0.941948  0.0  0.14932  -3.1e-05  1.001139  0.0  0.151124  -5.6e-05  1.000717  0.0  0.09673  0.147516  2e-06  1.002581  0.0
H  H9  1  0.27956975  0.61627322  0.82815528  1  0.127306  7.3e-05  0.941949  0.0  0.149333  3.1e-05  1.001158  0.0  0.151135  5.7e-05  1.00074  0.0  0.096732  0.14753  -2e-06  1.002597  0.0
H  H10  1  0.78288531  0.39427249  0.30832770  1  0.090115  -6e-06  0.98897  0.0  0.108514  8e-06  1.059384  0.0  0.10924  -0.0  1.059742  0.0  0.082312  0.10836  2.4e-05  1.058615  0.0
H  H11  1  0.21710900  0.60572314  0.69167392  1  0.090186  6e-06  0.98899  0.0  0.108574  -8e-06  1.059401  0.0  0.109301  1e-06  1.059759  0.0  0.082328  0.108419  -2.4e-05  1.058631  0.0
H  H12  1  0.80524037  0.22502130  0.28965868  1  0.097071  -1.4e-05  0.982517  0.0  0.115637  -2.2e-05  1.048943  0.0  0.116471  -1.5e-05  1.049949  0.0  0.082507  0.115244  -2.5e-05  1.048113  0.0
H  H13  1  0.19475509  0.77497432  0.71034457  1  0.097115  1.7e-05  0.982454  0.0  0.115712  2.2e-05  1.048844  0.0  0.116539  1.6e-05  1.049857  0.0  0.08254  0.115316  2.5e-05  1.048018  0.0
H  H14  1  0.46797528  0.84145501  0.80799254  1  0.08138  -0.000477  0.941503  -0.001  0.091816  -0.000299  1.002215  -0.001  0.094011  -0.000208  1.000395  -0.001  0.118776  0.089471  -0.000414  1.004886  -0.001
H  H15  1  0.53203076  0.15854486  0.19200862  1  0.081366  0.000477  0.941578  0.001  0.091859  0.000299  1.002214  0.001  0.094054  0.000208  1.000396  0.001  0.118813  0.089515  0.000414  1.004888  0.001
H  H16  1  0.40396591  0.97840884  0.58878772  1  0.08418  -0.000172  0.991034  0.0  0.093408  -0.000297  1.058956  0.0  0.096557  -0.000212  1.05778  0.0  0.095914  0.091187  -0.000392  1.0599  0.0
H  H17  1  0.59603699  0.02159534  0.41121315  1  0.084134  0.000171  0.991068  0.0  0.09337  0.000297  1.058996  0.0  0.096516  0.000212  1.057824  0.0  0.095934  0.09115  0.000392  1.059936  0.0
H  H18  1  0.99857868  0.21660340  0.71247228  1  0.11352  -0.000187  0.960419  0.0  0.121408  -0.00033  1.025778  0.0  0.125871  -0.000269  1.023232  0.0  0.10481  0.11817  -0.000339  1.027712  0.0
H  H19  1  0.00142564  0.78340509  0.28752456  1  0.113499  0.000187  0.960313  0.0  0.12136  0.00033  1.025719  0.0  0.125825  0.000269  1.023172  0.0  0.104796  0.118123  0.000339  1.027654  0.0
H  H20  1  0.07994267  0.07293874  0.92387787  1  0.094441  -0.000602  0.938783  -0.001  0.10142  -0.000393  1.003351  -0.001  0.10467  -0.00031  0.999923  -0.001  0.120863  0.098755  -0.000455  1.006315  -0.001
H  H21  1  0.92005336  0.92706549  0.07612177  1  0.094399  0.000601  0.938887  0.001  0.101426  0.000393  1.003405  0.001  0.104679  0.000309  0.999972  0.001  0.120872  0.098759  0.000454  1.00637  0.001
H  H22  1  0.06174984  0.29299164  0.49325522  1  0.073673  2.9e-05  0.922245  0.0  0.094134  -1.9e-05  0.978014  0.0  0.095571  -8e-06  0.977364  0.0  0.093357  0.09302  -1e-05  0.978472  0.0
H  H23  1  0.93825654  0.70701792  0.50673943  1  0.073665  -3e-05  0.922176  0.0  0.094167  1.9e-05  0.97793  0.0  0.095609  7e-06  0.977285  0.0  0.093388  0.093053  1e-05  0.978389  0.0
H  H24  1  0.09131075  0.13140760  0.46448513  1  0.08191  0.000519  0.911935  0.001  0.105136  0.000215  0.962164  0.0  0.106248  0.000153  0.962196  0.0  0.098528  0.10398  0.000362  0.962406  0.001
H  H25  1  0.90869244  0.86860089  0.53551266  1  0.081839  -0.000521  0.911879  -0.001  0.10511  -0.000215  0.962104  0.0  0.106231  -0.000153  0.962135  0.0  0.098478  0.103956  -0.000361  0.962342  -0.001
H  H26  1  0.37768038  0.14946164  0.41712952  1  0.052512  8e-06  0.963215  0.0  0.073068  3e-06  1.02481  0.0  0.073498  1e-06  1.02495  0.0  0.084311  0.07281  8e-06  1.024522  0.0
H  H27  1  0.62232271  0.85054148  0.58286825  1  0.052538  -8e-06  0.963227  0.0  0.073089  -2e-06  1.024805  0.0  0.073519  -2e-06  1.024944  0.0  0.084305  0.072831  -8e-06  1.024515  0.0
H  H28  1  0.23953847  0.27234238  0.31213550  1  0.064217  -1.2e-05  1.008035  0.0  0.078722  2e-06  1.077945  0.0  0.077975  3e-06  1.082698  0.0  0.08737  0.07871  3e-06  1.07513  0.0
H  H29  1  0.76046784  0.72766180  0.68786171  1  0.064244  1.1e-05  1.008023  0.0  0.078702  -2e-06  1.077973  0.0  0.077952  -4e-06  1.082729  0.0  0.087374  0.078694  -2e-06  1.075152  0.0
H  H30  1  0.43080384  0.39949360  0.33224663  1  0.091866  -0.000111  0.917018  0.0  0.112523  -6e-06  0.969462  0.0  0.11374  -0.0  0.969872  0.0  0.100078  0.110899  -3.3e-05  0.970433  0.0
H  H31  1  0.56920487  0.60050412  0.66774988  1  0.091919  0.000112  0.916873  0.0  0.112584  7e-06  0.969311  0.0  0.1138  1e-06  0.969723  0.0  0.100081  0.11096  3.3e-05  0.970277  0.0
H  H32  1  0.25305691  0.46398001  0.39387964  1  0.081402  5e-06  0.922654  0.0  0.09887  6.6e-05  0.981928  0.0  0.100673  4.9e-05  0.981079  0.0  0.094131  0.097465  5e-05  0.98239  0.0
H  H33  1  0.74695289  0.53602953  0.60611392  1  0.08135  -4e-06  0.922708  0.0  0.098851  -6.6e-05  0.981952  0.0  0.100664  -4.9e-05  0.981091  0.0  0.094098  0.097427  -5e-05  0.982434  0.0
H  H34  1  0.36045703  0.36293488  0.81255710  1  0.084218  0.000508  0.947318  0.001  0.092671  0.000336  1.011691  0.001  0.095314  0.00023  1.009142  0.001  0.11873  0.09045  0.000442  1.013904  0.001
H  H35  1  0.63954587  0.63705750  0.18743895  1  0.084239  -0.000509  0.947375  -0.001  0.092745  -0.000336  1.011673  -0.001  0.095382  -0.000229  1.009144  -0.001  0.118765  0.090531  -0.000443  1.013872  -0.001
H  H36  1  0.23205152  0.44353190  0.60915779  1  0.093285  0.000155  0.957648  0.0  0.106762  0.000325  1.015338  0.0  0.110011  0.000228  1.014314  0.0  0.102227  0.104049  0.000428  1.016845  0.0
H  H37  1  0.76796161  0.55647226  0.39083552  1  0.093296  -0.000156  0.957639  0.0  0.106745  -0.000325  1.015353  0.0  0.109996  -0.000229  1.014328  0.0  0.102189  0.104033  -0.000428  1.016856  0.0
H  H38  1  0.64500662  0.22192118  0.48195170  1  0.097755  0.000194  0.963242  0.0  0.111715  0.00033  1.020637  0.0  0.11457  0.000236  1.020608  0.0  0.102189  0.109562  0.000444  1.020889  0.0
H  H39  1  0.35500791  0.77808189  0.51804785  1  0.097754  -0.000196  0.963183  0.0  0.111685  -0.00033  1.020618  0.0  0.11454  -0.000236  1.020588  0.0  0.102194  0.109534  -0.000444  1.020865  0.0
H  H40  1  0.75458765  0.14854790  0.69133896  1  0.083899  0.000394  0.944544  0.001  0.092432  0.000171  1.007112  0.001  0.09548  8.8e-05  1.003985  0.001  0.116526  0.090086  0.000254  1.009383  0.001
H  H41  1  0.24541310  0.85144985  0.30866324  1  0.083824  -0.000392  0.944543  -0.001  0.09238  -0.000171  1.007099  -0.001  0.095423  -8.8e-05  1.00397  -0.001  0.116514  0.090043  -0.000254  1.009364  -0.001
C  C42  1  0.17336594  0.49568137  0.10505917  1  -0.056277  -0.003428  3.778046  -0.005  -0.025785  -0.001753  4.004839  -0.002  -0.033496  -0.00125  4.026295  -0.002  -0.017769  -0.021453  -0.002042  3.991945  -0.003
C  C43  1  0.82662257  0.50430891  0.89494370  1  -0.05618  0.003431  3.778219  0.005  -0.025758  0.001754  4.005082  0.002  -0.033467  0.001249  4.026548  0.002  -0.017749  -0.021424  0.002041  3.992189  0.003
C  C44  1  0.26289488  0.38437754  0.07068523  1  -0.087887  0.000288  3.675037  0.0  -0.125956  -0.000665  3.923521  -0.001  -0.123263  -0.000229  3.939866  0.0  -0.0821  -0.130355  -7.9e-05  3.917343  0.0
C  C45  1  0.73709973  0.61562238  0.92931672  1  -0.088162  -0.000292  3.675065  0.0  -0.126192  0.000663  3.923642  0.001  -0.123524  0.000228  3.939964  0.0  -0.082209  -0.130586  7.7e-05  3.917452  0.0
C  C46  1  0.20583913  0.25801100  0.09376454  1  -0.07511  -0.002589  3.788814  -0.003  -0.04936  -0.001161  4.023728  -0.002  -0.059273  -0.001001  4.045276  -0.001  -0.022998  -0.043396  -0.00101  4.011655  -0.001
C  C47  1  0.79415362  0.74198678  0.90623737  1  -0.074891  0.002594  3.788482  0.003  -0.04924  0.001161  4.023582  0.002  -0.059071  0.001001  4.045012  0.001  -0.022947  -0.043281  0.001009  4.011519  0.001
C  C48  1  0.05974321  0.24434164  0.15048427  1  -0.113284  0.003723  3.67519  0.005  -0.146434  0.001694  3.917485  0.002  -0.143945  0.001185  3.935292  0.001  -0.084333  -0.14648  0.001156  3.904507  0.001
C  C49  1  0.94025933  0.75565286  0.84952140  1  -0.113447  -0.003736  3.674863  -0.005  -0.146543  -0.001696  3.917229  -0.002  -0.144079  -0.001188  3.935009  -0.001  -0.084387  -0.146593  -0.001159  3.904252  -0.001
C  C50  1  0.96858771  0.35512440  0.18407811  1  0.134017  -0.001579  3.770998  -0.002  0.1652  -0.000372  4.008184  -0.001  0.162922  -0.000436  4.033296  -0.001  -0.010295  0.166547  -9.9e-05  3.989814  0.0
C  C51  1  0.03140757  0.64486047  0.81592599  1  0.133906  0.001589  3.771055  0.002  0.165079  0.000374  4.008242  0.001  0.162803  0.000438  4.033357  0.001  -0.010281  0.166425  9.9e-05  3.989873  0.0
C  C52  1  0.02717348  0.48076297  0.16095972  1  -0.116593  0.003068  3.676129  0.004  -0.15043  0.001046  3.919489  0.001  -0.14881  0.000776  3.938122  0.001  -0.081553  -0.149327  5.2e-05  3.905071  0.0
C  C53  1  0.97281327  0.51923054  0.83904482  1  -0.116526  -0.003073  3.676375  -0.004  -0.150301  -0.001047  3.919781  -0.001  -0.148697  -0.000775  3.938406  -0.001  -0.08159  -0.149205  -5.4e-05  3.905366  0.0
C  C54  1  0.23592258  0.62867267  0.08454835  1  0.605639  0.007276  3.920808  0.012  0.562434  0.002229  4.220532  0.005  0.598102  0.001519  4.218496  0.004  0.191585  0.53693  0.002886  4.218493  0.007
C  C55  1  0.76407385  0.37132941  0.91544680  1  0.605836  -0.007277  3.920543  -0.012  0.562671  -0.00223  4.220257  -0.005  0.598334  -0.001527  4.218219  -0.004  0.191677  0.537164  -0.002888  4.218213  -0.007
C  C56  1  0.30051417  0.13572940  0.06123302  1  0.647046  0.001613  3.880087  0.004  0.604566  0.001481  4.177716  0.004  0.645354  0.001589  4.167932  0.005  0.216276  0.573943  0.000948  4.182434  0.004
C  C57  1  0.69947354  0.86426517  0.93877539  1  0.64707  -0.001613  3.880017  -0.004  0.604541  -0.001481  4.177765  -0.004  0.645307  -0.001583  4.167967  -0.005  0.216274  0.573916  -0.00095  4.182488  -0.004
C  C58  1  0.81116595  0.33893198  0.24211761  1  -0.343254  1.8e-05  3.734023  0.0  -0.425377  -4.1e-05  3.969459  0.0  -0.427503  -4.2e-05  3.979852  0.0  -0.246297  -0.423335  1.6e-05  3.961758  0.0
C  C59  1  0.18882764  0.66106150  0.75788474  1  -0.343293  -2.6e-05  3.734071  0.0  -0.425451  3.9e-05  3.969562  0.0  -0.427573  3.6e-05  3.979968  0.0  -0.246305  -0.423403  -1.6e-05  3.96185  0.0
C  C60  1  0.36558962  0.92681238  0.78237396  1  0.141384  0.011626  3.7028  0.015  0.115227  0.003474  3.955887  0.005  0.12469  0.00304  3.971488  0.004  0.047599  0.108251  0.004064  3.945994  0.005
C  C61  1  0.63440936  0.07318859  0.21762907  1  0.14124  -0.011641  3.702936  -0.015  0.11503  -0.003474  3.956038  -0.005  0.12449  -0.003039  3.97164  -0.004  0.047483  0.10805  -0.004066  3.946144  -0.005
C  C62  1  0.32795543  0.00339109  0.65995643  1  -0.191334  -0.009165  3.754752  -0.012  -0.207623  -0.002465  4.001314  -0.003  -0.216992  -0.002332  4.02283  -0.003  -0.095933  -0.201627  -0.002669  3.987638  -0.004
C  C63  1  0.67204613  0.99661418  0.34004506  1  -0.191107  0.009182  3.754807  0.012  -0.207404  0.002466  4.001338  0.003  -0.216773  0.002329  4.022855  0.003  -0.095887  -0.201408  0.002669  3.987665  0.004
C  C64  1  0.19514134  0.11191323  0.62886198  1  0.138779  0.012276  3.741275  0.016  0.157027  0.004323  3.974435  0.005  0.163398  0.003161  3.997298  0.004  0.004438  0.152018  0.006168  3.959727  0.008
C  C65  1  0.80486093  0.88809419  0.37113877  1  0.138636  -0.012293  3.741392  -0.016  0.156928  -0.004324  3.974526  -0.005  0.163308  -0.003159  3.997393  -0.004  0.004365  0.151917  -0.006171  3.959823  -0.008
C  C66  1  0.10403078  0.13450530  0.72698813  1  -0.183879  -0.009492  3.709504  -0.013  -0.201536  -0.002708  3.957082  -0.004  -0.210432  -0.002606  3.976141  -0.004  -0.090022  -0.196554  -0.002888  3.94692  -0.004
C  C67  1  0.89596848  0.86549998  0.27301180  1  -0.183838  0.009504  3.709333  0.013  -0.201491  0.002706  3.956919  0.004  -0.210389  0.002605  3.975978  0.004  -0.090006  -0.196509  0.002888  3.946763  0.004
C  C68  1  0.14918869  0.05369022  0.84749717  1  0.14866  0.011015  3.667608  0.015  0.120835  0.002771  3.924608  0.004  0.131428  0.002322  3.937137  0.004  0.050763  0.112407  0.003745  3.918244  0.005
C  C69  1  0.85081170  0.94631506  0.15250097  1  0.148718  -0.011026  3.667646  -0.015  0.120863  -0.002771  3.924625  -0.004  0.131459  -0.002321  3.937147  -0.004  0.050778  0.112434  -0.003748  3.918258  -0.005
C  C70  1  0.15012259  0.19727664  0.49680545  1  -0.14924  -0.000473  3.690868  -0.001  -0.191393  3e-05  3.940881  0.0  -0.192872  8e-06  3.952518  0.0  -0.155271  -0.189901  6.3e-05  3.932891  0.0
C  C71  1  0.84987781  0.80272863  0.50319526  1  -0.149054  0.000478  3.690827  0.001  -0.19135  -3e-05  3.94094  0.0  -0.192856  -7e-06  3.952604  0.0  -0.15518  -0.189868  -6.2e-05  3.932966  0.0
C  C72  1  0.28256098  0.24245257  0.40498900  1  -0.095058  -0.000413  3.664047  -0.001  -0.135047  -0.000176  3.920055  0.0  -0.135832  -0.000124  3.934356  0.0  -0.163125  -0.13441  -0.00023  3.910427  0.0
C  C73  1  0.71744439  0.75755054  0.59500776  1  -0.095197  0.000417  3.664248  0.001  -0.135107  0.000175  3.920277  0.0  -0.135885  0.000127  3.934588  0.0  -0.163172  -0.134472  0.000229  3.91064  0.0
C  C74  1  0.34792648  0.36996208  0.40944416  1  -0.15906  0.000509  3.685198  0.001  -0.202288  5.5e-05  3.937539  0.0  -0.204296  5.9e-05  3.948548  0.0  -0.158265  -0.200645  4.1e-05  3.930378  0.0
C  C75  1  0.65208210  0.63004209  0.59055204  1  -0.159109  -0.000514  3.68514  -0.001  -0.202348  -5.5e-05  3.937448  0.0  -0.204361  -6.1e-05  3.94846  0.0  -0.158266  -0.200703  -4.1e-05  3.930295  0.0
C  C76  1  0.41924062  0.33497277  0.73615511  1  0.138437  -0.010978  3.698151  -0.015  0.110878  -0.003192  3.953575  -0.005  0.120823  -0.002739  3.968363  -0.004  0.047082  0.103413  -0.003913  3.944484  -0.005
C  C77  1  0.58076167  0.66502282  0.26384424  1  0.138276  0.010989  3.698168  0.015  0.110683  0.003192  3.953568  0.005  0.120625  0.002741  3.968354  0.004  0.047014  0.103223  0.003912  3.944491  0.005
C  C78  1  0.34915196  0.37904858  0.62291552  1  -0.18608  0.008893  3.747526  0.012  -0.204477  0.00254  3.994754  0.004  -0.214123  0.002467  4.016605  0.003  -0.091655  -0.198494  0.002713  3.981585  0.004
C  C79  1  0.65086119  0.62095558  0.37708036  1  -0.186055  -0.008897  3.747445  -0.012  -0.204423  -0.002541  3.994667  -0.004  -0.214067  -0.002464  4.016519  -0.003  -0.091616  -0.198439  -0.002713  3.981491  -0.004
C  C80  1  0.42633197  0.33710722  0.52829709  1  0.153638  -0.011842  3.73733  -0.015  0.170497  -0.004268  3.97333  -0.005  0.177357  -0.003176  3.99533  -0.004  0.006565  0.16564  -0.006051  3.958271  -0.008
C  C81  1  0.57368026  0.66289585  0.47170090  1  0.153759  0.011846  3.737409  0.015  0.170603  0.004269  3.97341  0.005  0.177449  0.003174  3.995421  0.004  0.006631  0.165757  0.00605  3.958338  0.008
C  C82  1  0.57714817  0.25589668  0.55261140  1  -0.191845  0.008989  3.732617  0.012  -0.209797  0.002564  3.979941  0.004  -0.219253  0.002445  4.00151  0.003  -0.09464  -0.203564  0.002848  3.965581  0.004
C  C83  1  0.42286593  0.74410853  0.44738665  1  -0.19174  -0.008988  3.732667  -0.012  -0.209666  -0.002565  3.979986  -0.004  -0.219118  -0.002445  4.00156  -0.003  -0.094585  -0.203431  -0.002848  3.96562  -0.004
C  C84  1  0.63977970  0.21571196  0.66818647  1  0.130033  -0.010621  3.711562  -0.014  0.103177  -0.003109  3.966628  -0.004  0.112591  -0.002826  3.981641  -0.004  0.042288  0.096568  -0.003599  3.956092  -0.005
C  C85  1  0.36022510  0.78428255  0.33181476  1  0.129941  0.010623  3.71163  0.014  0.103071  0.003109  3.966701  0.004  0.112489  0.002827  3.981711  0.004  0.042225  0.096461  0.0036  3.956177  0.005
N  N86  1  0.27914591  0.95164356  0.87610470  1  -0.314953  -0.040218  3.302631  -0.068  -0.270632  -0.02602  3.584249  -0.041  -0.2915  -0.022824  3.594636  -0.036  -0.327487  -0.255639  -0.028696  3.578322  -0.046
N  N87  1  0.72085292  0.04836388  0.12389544  1  -0.31492  0.040229  3.302664  0.068  -0.270616  0.026019  3.584327  0.041  -0.291468  0.022822  3.594697  0.036  -0.327468  -0.255604  0.028692  3.578384  0.046
N  N88  1  0.56142817  0.25188748  0.76028253  1  -0.305791  0.038866  3.293816  0.066  -0.260902  0.025816  3.5731  0.042  -0.281351  0.022461  3.584759  0.036  -0.325468  -0.246009  0.028887  3.565325  0.047
N  N89  1  0.43857483  0.74811026  0.23971610  1  -0.305682  -0.038877  3.293753  -0.066  -0.260791  -0.025818  3.573037  -0.042  -0.28125  -0.022467  3.584702  -0.036  -0.325439  -0.245924  -0.02889  3.565289  -0.047
O  O90  1  0.16102749  0.72674667  0.12333056  1  -0.613414  -0.044157  1.955872  -0.072  -0.586467  -0.033185  2.214098  -0.054  -0.624264  -0.023805  2.210253  -0.039  -0.313964  -0.554025  -0.042727  2.214027  -0.068
O  O91  1  0.83897737  0.27325322  0.87666554  1  -0.613519  0.044143  1.955727  0.072  -0.58656  0.033176  2.213913  0.054  -0.62435  0.023802  2.210096  0.039  -0.313983  -0.554115  0.042715  2.213846  0.068
O  O92  1  0.36705465  0.64271093  0.02933523  1  -0.601806  -0.046891  1.996334  -0.077  -0.571062  -0.034151  2.253763  -0.056  -0.608267  -0.024701  2.248304  -0.041  -0.309503  -0.539052  -0.044446  2.25513  -0.072
O  O93  1  0.63292998  0.35729334  0.97066692  1  -0.601864  0.046899  1.995903  0.077  -0.571179  0.034153  2.253347  0.056  -0.608371  0.024705  2.247888  0.041  -0.309532  -0.53915  0.044448  2.25471  0.072
O  O94  1  0.42188825  0.15638121  0.99490111  1  -0.633451  0.046495  2.22488  0.071  -0.605793  0.036588  2.530554  0.052  -0.643379  0.027163  2.516063  0.036  -0.311989  -0.570948  0.048105  2.536099  0.071
O  O95  1  0.57809921  0.84361445  0.00510185  1  -0.633488  -0.046489  2.22521  -0.071  -0.605778  -0.036587  2.530875  -0.052  -0.643383  -0.027163  2.516416  -0.036  -0.311981  -0.570949  -0.048106  2.536413  -0.071
O  O96  1  0.25244279  0.01612994  0.10179180  1  -0.61138  -0.043028  2.109432  -0.066  -0.578222  -0.033833  2.388647  -0.05  -0.615773  -0.026515  2.378374  -0.038  -0.306718  -0.546838  -0.039551  2.394296  -0.058
O  O97  1  0.74756660  0.98386453  0.89821254  1  -0.611464  0.043036  2.109268  0.066  -0.578285  0.033837  2.388505  0.05  -0.61583  0.026512  2.378245  0.038  -0.306771  -0.546882  0.039551  2.394141  0.058
