# generated using pymatgen
data_CuH14C16(N3Cl)2
_symmetry_space_group_name_H-M   'P 1'
_cell_length_a   7.99890044
_cell_length_b   9.03153987
_cell_length_c   12.49996932
_cell_angle_alpha   69.62261967
_cell_angle_beta   79.46298724
_cell_angle_gamma   89.34382925
_symmetry_Int_Tables_number   1
_chemical_formula_structural   CuH14C16(N3Cl)2
_chemical_formula_sum   'Cu2 H28 C32 N12 Cl4'
_cell_volume   830.90368722
_cell_formula_units_Z   2
loop_
 _symmetry_equiv_pos_site_id
 _symmetry_equiv_pos_as_xyz
  1  'x, y, z'
loop_
 _atom_site_type_symbol
 _atom_site_label
 _atom_site_symmetry_multiplicity
 _atom_site_fract_x
 _atom_site_fract_y
 _atom_site_fract_z
 _atom_site_occupancy
 _atom_site_hle17_ddec_charge
 _atom_site_hle17_ddec_spin_density
 _atom_site_hle17_ddec_sum_bond_order
 _atom_site_hle17_magmom
 _atom_site_hse06_10hf_ddec_charge
 _atom_site_hse06_10hf_ddec_spin_density
 _atom_site_hse06_10hf_ddec_sum_bond_order
 _atom_site_hse06_10hf_magmom
 _atom_site_hse06_ddec_charge
 _atom_site_hse06_ddec_spin_density
 _atom_site_hse06_ddec_sum_bond_order
 _atom_site_hse06_magmom
 _atom_site_pbe_cm5_charge
 _atom_site_pbe_ddec_charge
 _atom_site_pbe_ddec_spin_density
 _atom_site_pbe_ddec_sum_bond_order
 _atom_site_pbe_magmom
Cu  Cu0  1  0.00000387  0.00000409  0.49999770  1  0.758126  -0.620075  1.827768  -0.45  0.723383  -0.720391  2.242744  -0.564  0.814746  -0.786171  2.169384  -0.646  0.62042  0.673406  -0.677995  2.284813  -0.515
Cu  Cu1  1  0.49999760  0.49999924  0.50000099  1  0.762539  -0.622189  1.82989  -0.451  0.729686  -0.722428  2.243575  -0.565  0.820569  -0.787955  2.170224  -0.647  0.619893  0.679584  -0.681288  2.28672  -0.517
H  H2  1  0.67531724  0.75639791  0.54404862  1  0.085802  0.000913  0.983965  0.0  0.089862  0.000618  1.057917  0.0  0.091721  0.000612  1.055225  0.0  0.11646  0.088355  0.000569  1.060067  0.0
H  H3  1  0.32470721  0.24359896  0.45594219  1  0.085782  0.000916  0.984158  0.0  0.089855  0.000618  1.058053  0.0  0.091718  0.000612  1.055364  0.0  0.116409  0.088348  0.000569  1.060199  0.0
H  H4  1  0.81261331  0.20709095  0.29064646  1  0.106752  -3.1e-05  0.966933  0.0  0.114888  -0.000321  1.032871  0.0  0.118359  -0.000221  1.028026  0.0  0.12684  0.112656  -0.000441  1.035546  0.0
H  H5  1  0.18737921  0.79291799  0.70935247  1  0.106797  -3.2e-05  0.96689  0.0  0.114909  -0.000322  1.032851  0.0  0.118384  -0.000221  1.027999  0.0  0.12684  0.112658  -0.000441  1.035556  0.0
H  H6  1  0.45082661  0.21284821  0.24752208  1  0.089698  -0.000187  0.94448  0.0  0.102215  -0.000358  1.013302  0.0  0.103959  -0.000252  1.011351  0.0  0.103733  0.101388  -0.000445  1.014022  0.0
H  H7  1  0.54917244  0.78714698  0.75247863  1  0.089725  -0.000182  0.944356  0.0  0.102194  -0.000358  1.01324  0.0  0.103945  -0.000252  1.011277  0.0  0.103725  0.10137  -0.000445  1.013957  0.0
H  H8  1  0.41349849  0.02677093  0.23683222  1  0.104371  -9.4e-05  0.919956  0.0  0.116297  -6.6e-05  0.985709  0.0  0.117719  -3.2e-05  0.984727  0.0  0.119869  0.115296  -0.00013  0.986249  0.0
H  H9  1  0.58650061  0.97322305  0.76317118  1  0.10439  -9.1e-05  0.919961  0.0  0.116313  -6.6e-05  0.985704  0.0  0.117736  -3.2e-05  0.984723  0.0  0.119868  0.11531  -0.00013  0.986246  0.0
H  H10  1  0.63480458  0.40958250  0.10346878  1  0.092796  -0.00078  0.966265  0.0  0.104765  -0.000898  1.027246  0.0  0.10774  -0.000682  1.025892  0.0  0.094309  0.101317  -0.001072  1.030836  0.0
H  H11  1  0.36518812  0.59041344  0.89653492  1  0.092761  -0.000779  0.96632  0.0  0.104704  -0.000898  1.02733  0.0  0.107677  -0.000682  1.025979  0.0  0.094308  0.101262  -0.001072  1.030907  0.0
H  H12  1  0.83598512  0.50864679  0.91230775  1  0.093081  -0.000621  0.961559  0.0  0.105795  -0.000752  1.020665  0.0  0.108539  -0.000572  1.019677  0.0  0.096566  0.102425  -0.000883  1.023758  0.0
H  H13  1  0.16401265  0.49135416  0.08769730  1  0.093022  -0.000618  0.961624  0.0  0.105759  -0.000753  1.020709  0.0  0.108504  -0.000572  1.01972  0.0  0.096565  0.102391  -0.000884  1.0238  0.0
H  H14  1  0.56312274  0.84781242  0.19337576  1  0.092631  7.8e-05  0.968821  0.0  0.099286  6.2e-05  1.039138  0.0  0.102071  6.5e-05  1.037793  0.0  0.098163  0.097573  5.4e-05  1.039435  0.0
H  H15  1  0.43687759  0.15218285  0.80662478  1  0.092633  7.9e-05  0.968888  0.0  0.099295  6.2e-05  1.03918  0.0  0.102078  6.5e-05  1.03784  0.0  0.098172  0.097585  5.4e-05  1.039469  0.0
H  H16  1  0.66662834  0.66672463  0.09343034  1  0.082407  -0.000349  0.972022  0.0  0.094975  -0.000414  1.031591  0.0  0.097745  -0.000306  1.030418  0.0  0.090378  0.0918  -0.000496  1.034767  0.0
H  H17  1  0.33337579  0.33327206  0.90656938  1  0.082402  -0.00035  0.972038  0.0  0.095009  -0.000414  1.031577  0.0  0.097766  -0.000306  1.030415  0.0  0.090378  0.091831  -0.000496  1.034754  0.0
H  H18  1  0.85676852  0.76913972  0.89545329  1  0.082737  -0.000376  0.976946  0.0  0.094686  -0.000459  1.038107  0.0  0.097667  -0.000338  1.036491  0.0  0.088502  0.091149  -0.000545  1.042228  0.0
H  H19  1  0.14323298  0.23086156  0.10454322  1  0.082762  -0.000374  0.976941  0.0  0.094704  -0.000458  1.038111  0.0  0.097682  -0.000337  1.036499  0.0  0.088511  0.09116  -0.000545  1.042242  0.0
H  H20  1  0.94326161  0.04920216  0.80370615  1  0.093341  8.5e-05  0.965516  0.0  0.100772  7.2e-05  1.034398  0.0  0.103517  7.5e-05  1.033238  0.0  0.098846  0.099068  5.3e-05  1.034564  0.0
H  H21  1  0.05673609  0.95080003  0.19629300  1  0.093332  8.7e-05  0.965545  0.0  0.100751  7.2e-05  1.034438  0.0  0.103497  7.5e-05  1.033278  0.0  0.098848  0.099063  5.3e-05  1.034589  0.0
H  H22  1  0.03086163  0.46354474  0.76562070  1  0.090219  -0.000476  0.940519  0.0  0.102757  -0.000668  1.009075  0.0  0.104595  -0.000491  1.006938  0.0  0.103953  0.101878  -0.000803  1.009889  0.0
H  H23  1  0.96913094  0.53646067  0.23437909  1  0.090198  -0.000481  0.940574  0.0  0.102789  -0.000667  1.009081  0.0  0.104613  -0.000491  1.006958  0.0  0.103974  0.101919  -0.000803  1.009878  0.0
H  H24  1  0.08173466  0.27087809  0.77029186  1  0.104294  -8.3e-05  0.923439  0.0  0.115943  -8.1e-05  0.989925  0.0  0.117362  -4.7e-05  0.98899  0.0  0.118965  0.115005  -0.000105  0.990294  0.0
H  H25  1  0.91826552  0.72913016  0.22970630  1  0.104295  -8.8e-05  0.923387  0.0  0.115929  -8.1e-05  0.989896  0.0  0.117348  -4.6e-05  0.98896  0.0  0.118963  0.114991  -0.000105  0.990269  0.0
H  H26  1  0.66518193  0.48419855  0.72256593  1  0.106739  0.000157  0.960646  0.0  0.114235  -0.00014  1.027122  0.0  0.117765  -7.8e-05  1.022188  0.0  0.128603  0.111928  -0.000215  1.029959  0.0
H  H27  1  0.33480948  0.51579733  0.27743715  1  0.10669  0.000157  0.960666  0.0  0.114118  -0.00014  1.027234  0.0  0.117646  -7.8e-05  1.022301  0.0  0.128596  0.111816  -0.000215  1.030063  0.0
H  H28  1  0.84716843  0.32177393  0.44807752  1  0.087304  0.000935  0.990112  0.0  0.091214  0.000629  1.063094  0.0  0.093354  0.000611  1.060386  0.0  0.113765  0.089496  0.000599  1.065257  0.0
H  H29  1  0.15282930  0.67822589  0.55192301  1  0.087251  0.000935  0.990138  0.0  0.09116  0.000629  1.063128  0.0  0.0933  0.000611  1.060421  0.0  0.11375  0.089441  0.000599  1.065296  0.0
C  C30  1  0.67484669  0.86327768  0.46991897  1  0.206391  0.004162  3.711627  0.002  0.150207  0.001109  4.013543  0.0  0.164082  0.002017  4.028325  0.001  0.137131  0.141066  0.000411  4.004047  -0.001
C  C31  1  0.32516878  0.13672452  0.53007161  1  0.206381  0.004149  3.711837  0.002  0.1502  0.00111  4.013726  0.0  0.164068  0.002017  4.028518  0.001  0.137209  0.141059  0.000411  4.004223  -0.001
C  C32  1  0.74835611  0.09313119  0.34201135  1  0.182865  0.005  3.635018  0.003  0.110043  0.000993  3.887994  0.0  0.127719  0.00216  3.899035  0.001  0.158712  0.10008  3.7e-05  3.878758  -0.001
C  C33  1  0.25164917  0.90687503  0.65798509  1  0.182925  0.005012  3.635101  0.003  0.110105  0.000994  3.888039  0.0  0.127778  0.00216  3.899082  0.001  0.158736  0.100151  3.7e-05  3.87882  -0.001
C  C34  1  0.51382711  0.11317479  0.22956691  1  -0.056834  -0.000881  3.65327  -0.001  -0.136822  -0.00085  3.897954  -0.001  -0.132634  -0.00064  3.906939  -0.001  -0.046028  -0.139395  -0.001003  3.891263  -0.001
C  C35  1  0.48617193  0.88682275  0.77043402  1  -0.05679  -0.000902  3.653144  -0.001  -0.13678  -0.000851  3.897876  -0.001  -0.132594  -0.00064  3.906862  -0.001  -0.04599  -0.139361  -0.001003  3.891192  -0.001
C  C36  1  0.63054130  0.16888412  0.11237271  1  0.030144  0.00032  3.732932  0.0  0.04244  0.000142  3.979885  0.0  0.04072  0.000132  4.0053  0.0  -0.010019  0.044653  9.3e-05  3.961943  0.0
C  C37  1  0.36945645  0.83111336  0.88762760  1  0.030087  0.000327  3.732854  0.0  0.042365  0.000135  3.979822  0.0  0.040647  0.000138  4.005235  0.0  -0.010094  0.04458  9.3e-05  3.96189  0.0
C  C38  1  0.68179350  0.32730049  0.05984884  1  -0.115962  -0.001197  3.772115  -0.001  -0.135733  -0.000976  4.02017  -0.001  -0.13849  -0.000702  4.042154  -0.001  -0.096025  -0.133049  -0.001157  4.004488  -0.001
C  C39  1  0.31820429  0.67269577  0.94015417  1  -0.115835  -0.001197  3.771963  -0.001  -0.135575  -0.000972  4.020047  -0.001  -0.138328  -0.000706  4.042027  -0.001  -0.095939  -0.132895  -0.001157  4.004371  -0.001
C  C40  1  0.79560200  0.38324690  0.95186381  1  -0.113939  -0.000768  3.769961  -0.001  -0.132949  -0.000755  4.016723  -0.001  -0.135576  -0.000544  4.03878  -0.001  -0.094813  -0.129905  -0.000817  4.000613  -0.001
C  C41  1  0.20439710  0.61674824  0.04814171  1  -0.113902  -0.000783  3.76988  -0.001  -0.132931  -0.000753  4.016622  -0.001  -0.135562  -0.000543  4.03868  -0.001  -0.094834  -0.129888  -0.000817  4.00052  -0.001
C  C42  1  0.85660712  0.28149392  0.89487958  1  0.027699  -4.3e-05  3.740601  0.0  0.039725  9.3e-05  3.987085  0.0  0.037924  0.000121  4.012583  0.0  -0.010784  0.041954  -0.000316  3.968944  0.0
C  C43  1  0.14339575  0.71850618  0.10512426  1  0.027593  -3.6e-05  3.74051  0.0  0.039646  8.9e-05  3.98699  0.0  0.037845  0.000117  4.012488  0.0  -0.010815  0.04187  -0.000316  3.968866  0.0
C  C44  1  0.80426106  0.11703258  0.94524005  1  0.019793  7e-05  3.74951  0.0  0.031863  -3.1e-05  3.975858  0.0  0.030985  -1.3e-05  4.001432  0.0  -0.005502  0.031561  -2.1e-05  3.959786  0.0
C  C45  1  0.19574177  0.88296755  0.05476058  1  0.019864  5.9e-05  3.749375  0.0  0.031911  -2.8e-05  3.975738  0.0  0.031032  -1.2e-05  4.001312  0.0  -0.005466  0.031608  -2.1e-05  3.959681  0.0
C  C46  1  0.69177832  0.05934097  0.05673452  1  0.020995  -2.3e-05  3.748631  0.0  0.030864  -3e-06  3.977129  0.0  0.030002  9e-06  4.00255  0.0  -0.004943  0.030564  -6.2e-05  3.961277  0.0
C  C47  1  0.30821947  0.94065529  0.94326848  1  0.021044  -8e-06  3.748573  0.0  0.030916  -5e-06  3.977092  0.0  0.030056  7e-06  4.002509  0.0  -0.004927  0.030614  -6.2e-05  3.961247  0.0
C  C48  1  0.64529185  0.89501805  0.10787881  1  -0.109187  -2.1e-05  3.728851  0.0  -0.130126  3.7e-05  3.981728  0.0  -0.132652  5.5e-05  4.003271  0.0  -0.091835  -0.127354  -4.4e-05  3.966285  0.0
C  C49  1  0.35470973  0.10497966  0.89212097  1  -0.109282  -4.9e-05  3.728891  0.0  -0.130213  4e-05  3.981806  0.0  -0.132739  5.7e-05  4.003346  0.0  -0.091892  -0.127438  -4.3e-05  3.966353  0.0
C  C50  1  0.70390379  0.79233181  0.05135393  1  -0.060372  -0.000265  3.775398  0.0  -0.071957  -0.000315  4.020388  0.0  -0.074008  -0.000203  4.04264  0.0  -0.092164  -0.070035  -0.00043  4.004897  -0.001
C  C51  1  0.29609905  0.20766598  0.94864568  1  -0.06035  -0.000238  3.775323  0.0  -0.071977  -0.000315  4.020325  0.0  -0.074016  -0.000204  4.042576  0.0  -0.092154  -0.070053  -0.00043  4.004826  -0.001
C  C52  1  0.81157843  0.84929933  0.94116913  1  -0.06236  -0.000292  3.777848  0.0  -0.075195  -0.000395  4.023763  -0.001  -0.07716  -0.000259  4.045905  0.0  -0.093142  -0.073503  -0.000483  4.008803  -0.001
C  C53  1  0.18842185  0.15069949  0.05882974  1  -0.062314  -0.000309  3.777879  0.0  -0.075141  -0.000398  4.023815  -0.001  -0.077106  -0.000258  4.045961  0.0  -0.093102  -0.073442  -0.000483  4.008852  -0.001
C  C54  1  0.86057094  0.00809468  0.88921379  1  -0.109155  -0.000145  3.726309  0.0  -0.130632  4.6e-05  3.978303  0.0  -0.133363  6.9e-05  4.000047  0.0  -0.091861  -0.127562  -0.000122  3.962542  0.0
C  C55  1  0.13942932  0.99190766  0.11078581  1  -0.109192  -0.000136  3.726378  0.0  -0.130649  4.9e-05  3.978401  0.0  -0.133381  6.7e-05  4.000147  0.0  -0.091874  -0.12759  -0.000122  3.962637  0.0
C  C56  1  0.97572723  0.34626717  0.77905937  1  -0.062228  -0.001129  3.656557  -0.001  -0.141522  -0.001104  3.90341  -0.001  -0.137374  -0.000839  3.912302  -0.001  -0.048203  -0.143962  -0.001329  3.896594  -0.001
C  C57  1  0.02427047  0.65373618  0.22094110  1  -0.062179  -0.001109  3.65648  -0.001  -0.14152  -0.001106  3.903357  -0.001  -0.137348  -0.000839  3.912229  -0.001  -0.04823  -0.143964  -0.001329  3.896533  -0.001
C  C58  1  0.74123352  0.43171166  0.66577812  1  0.179188  0.005004  3.635945  0.003  0.108641  0.001004  3.890419  0.0  0.126216  0.002174  3.901226  0.001  0.158518  0.098439  0.000113  3.88161  -0.001
C  C59  1  0.25876167  0.56828800  0.33422276  1  0.179257  0.005008  3.635987  0.003  0.108772  0.001004  3.89051  0.0  0.126348  0.002173  3.901318  0.001  0.158528  0.098573  0.000113  3.881703  -0.001
C  C60  1  0.83624180  0.34648845  0.52766986  1  0.2021  0.004198  3.707127  0.002  0.147056  0.001109  4.006008  0.0  0.160327  0.00203  4.021263  0.001  0.135561  0.13841  0.000425  3.99599  -0.001
C  C61  1  0.16375597  0.65350901  0.47233206  1  0.202244  0.004197  3.706981  0.002  0.147185  0.00111  4.005882  0.0  0.160458  0.002031  4.021132  0.001  0.135588  0.138537  0.000425  3.995877  -0.001
N  N62  1  0.79472202  0.98611825  0.43537845  1  -0.391402  -0.06697  3.325262  -0.085  -0.339606  -0.048663  3.646071  -0.064  -0.3762  -0.040615  3.664678  -0.058  -0.374108  -0.318383  -0.052631  3.634684  -0.066
N  N63  1  0.20528836  0.01388596  0.56461547  1  -0.39151  -0.066979  3.325278  -0.085  -0.339694  -0.048667  3.646064  -0.064  -0.376291  -0.040617  3.664674  -0.058  -0.374187  -0.318465  -0.052634  3.634674  -0.066
N  N64  1  0.55885292  0.88899236  0.40310670  1  -0.269262  -0.007763  2.843993  -0.009  -0.276941  -0.003864  3.122688  -0.005  -0.287798  -0.002384  3.13745  -0.004  -0.223918  -0.269533  -0.005324  3.111957  -0.006
N  N65  1  0.44116011  0.11100375  0.59688888  1  -0.269169  -0.007769  2.844126  -0.009  -0.276874  -0.003864  3.122829  -0.005  -0.287731  -0.002384  3.137593  -0.004  -0.223954  -0.269466  -0.005325  3.112093  -0.006
N  N66  1  0.60817681  0.03571591  0.32250664  1  0.04841  -0.001485  3.545514  -0.002  0.177896  -0.001091  3.718313  -0.001  0.167494  -0.000821  3.741093  -0.001  -0.131665  0.183526  -0.001214  3.704131  -0.002
N  N67  1  0.39182343  0.96428411  0.67748954  1  0.048276  -0.00147  3.54574  -0.002  0.177812  -0.001089  3.718466  -0.001  0.167412  -0.000821  3.741248  -0.001  -0.131647  0.183459  -0.001213  3.704261  -0.002
N  N68  1  0.88678169  0.36142118  0.68343861  1  0.05415  -0.001448  3.545012  -0.002  0.179058  -0.001134  3.722429  -0.001  0.169016  -0.00086  3.744666  -0.001  -0.130416  0.184192  -0.001349  3.709216  -0.002
N  N69  1  0.11321353  0.63857728  0.31656416  1  0.054178  -0.001449  3.545086  -0.002  0.179062  -0.001133  3.722527  -0.001  0.16902  -0.00086  3.744764  -0.001  -0.130377  0.184194  -0.001349  3.709317  -0.002
N  N70  1  0.94975434  0.30584967  0.59649484  1  -0.266021  -0.007816  2.841608  -0.009  -0.270659  -0.003926  3.119427  -0.005  -0.281446  -0.002473  3.134664  -0.004  -0.221974  -0.263376  -0.005341  3.108451  -0.006
N  N71  1  0.05024212  0.69415008  0.40350587  1  -0.266091  -0.007819  2.841469  -0.009  -0.270712  -0.003926  3.119287  -0.005  -0.281501  -0.002473  3.134525  -0.004  -0.221978  -0.263431  -0.005342  3.108327  -0.006
N  N72  1  0.70490288  0.42422194  0.56713942  1  -0.391043  -0.067142  3.327471  -0.085  -0.338534  -0.048815  3.646268  -0.064  -0.37506  -0.040728  3.665558  -0.058  -0.372574  -0.317204  -0.053077  3.634563  -0.067
N  N73  1  0.29509105  0.57577645  0.43286273  1  -0.391097  -0.067148  3.327499  -0.085  -0.338579  -0.048816  3.646286  -0.064  -0.375104  -0.040729  3.665574  -0.058  -0.372605  -0.317251  -0.053077  3.634591  -0.067
Cl  Cl74  1  0.89090455  0.78743848  0.66700983  1  -0.516866  -0.119935  0.918991  -0.144  -0.503645  -0.084512  1.206275  -0.107  -0.534244  -0.064752  1.183622  -0.09  -0.282891  -0.486376  -0.096827  1.220789  -0.116
Cl  Cl75  1  0.10909939  0.21257356  0.33298534  1  -0.516838  -0.119934  0.918948  -0.144  -0.503667  -0.084512  1.206278  -0.107  -0.534265  -0.064751  1.183623  -0.09  -0.282904  -0.4864  -0.096827  1.220793  -0.116
Cl  Cl76  1  0.62070660  0.45816827  0.33042637  1  -0.519639  -0.119464  0.912019  -0.144  -0.507687  -0.083911  1.199096  -0.107  -0.538245  -0.06421  1.176624  -0.089  -0.286165  -0.490638  -0.096026  1.213488  -0.116
Cl  Cl77  1  0.37928481  0.54182878  0.66957642  1  -0.519644  -0.119467  0.912014  -0.144  -0.507695  -0.083912  1.199097  -0.107  -0.538253  -0.064212  1.176621  -0.089  -0.28616  -0.490641  -0.096027  1.213485  -0.116
