# generated using pymatgen
data_ZnH16C26(NO)4
_symmetry_space_group_name_H-M   'P 1'
_cell_length_a   18.36325382
_cell_length_b   22.78972089
_cell_length_c   22.78975831
_cell_angle_alpha   63.20195243
_cell_angle_beta   66.22256802
_cell_angle_gamma   66.22256957
_symmetry_Int_Tables_number   1
_chemical_formula_structural   ZnH16C26(NO)4
_chemical_formula_sum   'Zn4 H64 C104 N16 O16'
_cell_volume   7498.80944908
_cell_formula_units_Z   4
loop_
 _symmetry_equiv_pos_site_id
 _symmetry_equiv_pos_as_xyz
  1  'x, y, z'
loop_
 _atom_site_type_symbol
 _atom_site_label
 _atom_site_symmetry_multiplicity
 _atom_site_fract_x
 _atom_site_fract_y
 _atom_site_fract_z
 _atom_site_occupancy
 _atom_site_pbe_bader_charge
 _atom_site_pbe_bader_spin_density
 _atom_site_pbe_cm5_charge
 _atom_site_pbe_ddec_charge
 _atom_site_pbe_ddec_spin_density
 _atom_site_pbe_ddec_sum_bond_order
 _atom_site_pbe_magmom
Zn  Zn0  1  0.57962144  0.96734043  0.46733906  1  1.297508  0  0.666493  0.82996  0  2.413567  0
Zn  Zn1  1  0.01424088  0.53268147  0.03268017  1  1.296353  0  0.665768  0.829579  0  2.412776  0
Zn  Zn2  1  0.98576062  0.46732224  0.96732207  1  1.295339  0  0.665769  0.829526  0  2.412757  0
Zn  Zn3  1  0.42038079  0.03265913  0.53265872  1  1.296504  0  0.666424  0.830056  0  2.413831  0
H  H4  1  0.29111429  0.12106895  0.37208997  1  0.079054  0  0.10456  0.109172  0  0.996732  0
H  H5  1  0.78426018  0.37878974  0.12788760  1  0.069712  0  0.104865  0.109676  0  0.995848  0
H  H6  1  0.21573904  0.37210968  0.12121647  1  0.069619  0  0.104835  0.109656  0  0.995896  0
H  H7  1  0.70888390  0.12791070  0.37892986  1  0.078989  0  0.104529  0.109138  0  0.996956  0
H  H8  1  0.70888480  0.87893114  0.62790946  1  0.078988  0  0.104548  0.109177  0  0.996918  0
H  H9  1  0.21573894  0.62121391  0.87210931  1  0.069789  0  0.104864  0.109661  0  0.995913  0
H  H10  1  0.78425719  0.62788639  0.87878926  1  0.069984  0  0.10483  0.109679  0  0.995828  0
H  H11  1  0.29111501  0.87208989  0.62106895  1  0.079048  0  0.104567  0.109186  0  0.996781  0
H  H12  1  0.50407646  0.08144566  0.16378493  1  0.068201  0  0.101819  0.111437  0  1.003898  0
H  H13  1  0.74884971  0.41876402  0.33607094  1  0.052364  0  0.1014  0.110034  0  1.005378  0
H  H14  1  0.25115262  0.16393066  0.08123505  1  0.052477  0  0.101408  0.110071  0  1.00532  0
H  H15  1  0.49592554  0.33621801  0.41855241  1  0.068016  0  0.10185  0.111479  0  1.003776  0
H  H16  1  0.49592285  0.91855190  0.83621691  1  0.068403  0  0.101853  0.111473  0  1.003781  0
H  H17  1  0.25115284  0.58123454  0.66392937  1  0.052714  0  0.101411  0.110045  0  1.005355  0
H  H18  1  0.74884690  0.83606994  0.91876401  1  0.052415  0  0.101397  0.110033  0  1.005382  0
H  H19  1  0.50407765  0.66378413  0.58144737  1  0.068145  0  0.101822  0.111432  0  1.00384  0
H  H20  1  0.54214747  0.03878525  0.27222353  1  0.086075  0  0.099168  0.100454  0  1.014148  0
H  H21  1  0.85282563  0.46130257  0.22766560  1  0.066736  0  0.098656  0.099286  0  1.013028  0
H  H22  1  0.14717221  0.27233511  0.03870212  1  0.066836  0  0.098655  0.099254  0  1.012964  0
H  H23  1  0.45784998  0.22777995  0.46121352  1  0.086157  0  0.099157  0.100426  0  1.014039  0
H  H24  1  0.45784913  0.96121332  0.72777742  1  0.086115  0  0.099132  0.100371  0  1.01406  0
H  H25  1  0.14717323  0.53870009  0.77233361  1  0.066743  0  0.098652  0.099232  0  1.012997  0
H  H26  1  0.85282551  0.72766552  0.96129927  1  0.06661  0  0.098661  0.099257  0  1.013036  0
H  H27  1  0.54214871  0.77222323  0.53878725  1  0.086056  0  0.099131  0.100382  0  1.014166  0
H  H28  1  0.25111619  0.16302032  0.26449243  1  0.093782  0  0.104351  0.114401  0  0.998725  0
H  H29  1  0.67846669  0.33697558  0.23545861  1  0.061937  0  0.104238  0.113381  0  0.997842  0
H  H30  1  0.32153198  0.26454038  0.16302856  1  0.061786  0  0.104266  0.113455  0  0.997696  0
H  H31  1  0.74888344  0.23550690  0.33697715  1  0.093724  0  0.104361  0.114446  0  0.99873  0
H  H32  1  0.74888203  0.83697873  0.73550644  1  0.093751  0  0.104371  0.114438  0  0.998781  0
H  H33  1  0.32153217  0.66302706  0.76454016  1  0.061814  0  0.104265  0.113462  0  0.997723  0
H  H34  1  0.67846300  0.73545772  0.83697576  1  0.062169  0  0.104237  0.113355  0  0.997773  0
H  H35  1  0.25111581  0.76449266  0.66302072  1  0.093778  0  0.104351  0.114406  0  0.998721  0
H  H36  1  0.49364153  0.11720804  0.93932492  1  0.053167  0  0.099255  0.096733  0  1.016998  0
H  H37  1  0.55000149  0.38271214  0.56064259  1  0.031032  0  0.099381  0.096933  0  1.017291  0
H  H38  1  0.45001387  0.93934733  0.11729650  1  0.027953  0  0.099347  0.096832  0  1.017365  0
H  H39  1  0.50637117  0.56068092  0.38278095  1  0.052945  0  0.099194  0.096638  0  1.016913  0
H  H40  1  0.50636876  0.88278134  0.06067929  1  0.05312  0  0.099202  0.096652  0  1.016959  0
H  H41  1  0.45001770  0.61729757  0.43934715  1  0.027978  0  0.099364  0.096848  0  1.017379  0
H  H42  1  0.54999950  0.06064362  0.88271081  1  0.031056  0  0.099388  0.09692  0  1.017308  0
H  H43  1  0.49364219  0.43932468  0.61720821  1  0.053162  0  0.099254  0.09673  0  1.016987  0
H  H44  1  0.42185883  0.18831504  0.01122142  1  0.102295  0  0.108332  0.118455  0  0.986838  0
H  H45  1  0.62106763  0.31164949  0.48869944  1  0.089098  0  0.108174  0.11831  0  0.987351  0
H  H46  1  0.37893435  0.01129685  0.18835237  1  0.088919  0  0.108184  0.118373  0  0.987338  0
H  H47  1  0.57814709  0.48877967  0.31167611  1  0.102097  0  0.108296  0.118444  0  0.986695  0
H  H48  1  0.57814425  0.81167633  0.98877809  1  0.102065  0  0.108331  0.118455  0  0.986703  0
H  H49  1  0.37893599  0.68835313  0.51129691  1  0.088887  0  0.108187  0.118342  0  0.987358  0
H  H50  1  0.62106648  0.98869968  0.81164901  1  0.089096  0  0.108184  0.11832  0  0.987357  0
H  H51  1  0.42185865  0.51122185  0.68831435  1  0.102185  0  0.108355  0.118502  0  0.986806  0
H  H52  1  0.67948441  0.82190870  0.49489289  1  0.130676  0  0.132954  0.108227  0  0.963664  0
H  H53  1  0.99635145  0.67810863  0.00512646  1  0.126392  0  0.133492  0.108444  0  0.963443  0
H  H54  1  0.00365135  0.49487396  0.82189304  1  0.126441  0  0.133479  0.10844  0  0.963278  0
H  H55  1  0.32052436  0.00510433  0.67809078  1  0.130656  0  0.132918  0.108202  0  0.963552  0
H  H56  1  0.32052540  0.17809137  0.50510524  1  0.130691  0  0.132909  0.108223  0  0.963571  0
H  H57  1  0.00365008  0.32188949  0.99487966  1  0.126536  0  0.133452  0.108405  0  0.963307  0
H  H58  1  0.99634827  0.50512823  0.17811052  1  0.126702  0  0.133484  0.108421  0  0.963415  0
H  H59  1  0.67948313  0.99489373  0.32190992  1  0.130647  0  0.132947  0.108229  0  0.963682  0
H  H60  1  0.77722315  0.74549675  0.42640122  1  0.125843  0  0.117731  0.123646  0  0.998455  0
H  H61  1  0.94914766  0.75449922  0.07360956  1  0.107626  0  0.118204  0.12383  0  0.999057  0
H  H62  1  0.05084404  0.42638777  0.74550973  1  0.107755  0  0.118181  0.123853  0  0.999167  0
H  H63  1  0.22277799  0.07359620  0.75449996  1  0.125849  0  0.117741  0.123719  0  0.998657  0
H  H64  1  0.22278023  0.25449925  0.57359870  1  0.125744  0  0.117705  0.123656  0  0.998589  0
H  H65  1  0.05084286  0.24550351  0.92639541  1  0.107578  0  0.118162  0.12383  0  0.999172  0
H  H66  1  0.94914441  0.57361396  0.25449769  1  0.10767  0  0.118208  0.123864  0  0.999025  0
H  H67  1  0.77722262  0.92640283  0.24549683  1  0.125827  0  0.11775  0.123674  0  0.998394  0
C  C68  1  0.33731028  0.11313588  0.32590768  1  0.036105  0  -0.085597  -0.077685  0  4.001012  0
C  C69  1  0.77623526  0.38681265  0.17403028  1  0.04533  0  -0.085694  -0.077188  0  3.998969  0
C  C70  1  0.22376249  0.32597261  0.11319170  1  0.045241  0  -0.085616  -0.077063  0  3.998685  0
C  C71  1  0.66269126  0.17408965  0.38686144  1  0.036122  0  -0.085648  -0.077808  0  4.00091  0
C  C72  1  0.66269151  0.88686314  0.67408785  1  0.036043  0  -0.085658  -0.077903  0  4.000928  0
C  C73  1  0.22376283  0.61319054  0.82597069  1  0.045195  0  -0.085646  -0.077097  0  3.998698  0
C  C74  1  0.77623295  0.67402958  0.88681147  1  0.044971  0  -0.085703  -0.077269  0  3.999029  0
C  C75  1  0.33731043  0.82590786  0.61313657  1  0.036102  0  -0.085644  -0.077734  0  4.001034  0
C  C76  1  0.45738876  0.08992361  0.20956150  1  -0.070684  0  -0.103155  -0.191412  0  4.016662  0
C  C77  1  0.75647198  0.41023152  0.29031783  1  -0.069305  0  -0.101583  -0.187869  0  4.015677  0
C  C78  1  0.24352749  0.20968672  0.08976935  1  -0.069021  0  -0.101599  -0.187995  0  4.015974  0
C  C79  1  0.54261285  0.29043850  0.41007507  1  -0.070538  0  -0.103185  -0.191446  0  4.016549  0
C  C80  1  0.54261039  0.91007442  0.79043666  1  -0.070821  0  -0.103192  -0.191461  0  4.016613  0
C  C81  1  0.24352601  0.58977014  0.70968431  1  -0.069532  0  -0.101608  -0.187988  0  4.015874  0
C  C82  1  0.75647087  0.79031748  0.91023018  1  -0.069172  0  -0.101604  -0.18796  0  4.015648  0
C  C83  1  0.45738861  0.70956159  0.58992447  1  -0.070591  0  -0.103123  -0.191322  0  4.016568  0
C  C84  1  0.41906505  0.07744486  0.32881819  1  -0.0361  0  -0.029889  -0.053878  0  3.987834  0
C  C85  1  0.82512659  0.42256800  0.17109868  1  -0.051309  0  -0.030186  -0.056192  0  3.988718  0
C  C86  1  0.17487289  0.32890090  0.07743586  1  -0.051328  0  -0.030171  -0.056366  0  3.98893  0
C  C87  1  0.58092860  0.17118577  0.42255695  1  -0.035791  0  -0.029852  -0.053767  0  3.987889  0
C  C88  1  0.58092911  0.92255577  0.67118392  1  -0.035824  0  -0.029914  -0.053808  0  3.988017  0
C  C89  1  0.17487319  0.57743362  0.82890026  1  -0.051438  0  -0.030214  -0.056387  0  3.988889  0
C  C90  1  0.82512550  0.67109768  0.92256581  1  -0.051828  0  -0.03014  -0.056262  0  3.98885  0
C  C91  1  0.41906456  0.82881794  0.57744538  1  -0.036045  0  -0.029894  -0.053884  0  3.987847  0
C  C92  1  0.44305717  0.05109785  0.39331546  1  1.554068  0  0.210754  0.592731  0  4.178299  0
C  C93  1  0.88736933  0.44884063  0.10659345  1  1.562514  0  0.208864  0.593183  0  4.177711  0
C  C94  1  0.11262914  0.39340633  0.05116414  1  1.562844  0  0.209006  0.593498  0  4.177509  0
C  C95  1  0.55695649  0.10667954  0.44889487  1  1.554282  0  0.210708  0.592693  0  4.178318  0
C  C96  1  0.55695614  0.94889499  0.60667784  1  1.554133  0  0.21067  0.592585  0  4.178478  0
C  C97  1  0.11262860  0.55116304  0.89340515  1  1.562831  0  0.208933  0.593347  0  4.177486  0
C  C98  1  0.88736772  0.60659330  0.94883931  1  1.562913  0  0.208944  0.593279  0  4.177468  0
C  C99  1  0.44305659  0.89331585  0.55109776  1  1.554075  0  0.210746  0.592767  0  4.178299  0
C  C100  1  0.37506991  0.12493058  0.20703369  1  0.360638  0  0.094584  0.189057  0  4.038311  0
C  C101  1  0.70670664  0.37516909  0.29286715  1  0.347942  0  0.093957  0.18712  0  4.038813  0
C  C102  1  0.29329703  0.20713087  0.12483082  1  0.347985  0  0.093986  0.187206  0  4.038808  0
C  C103  1  0.62493197  0.29296817  0.37506729  1  0.360688  0  0.094593  0.188999  0  4.038165  0
C  C104  1  0.62492957  0.87506646  0.79296746  1  0.360699  0  0.094583  0.189036  0  4.038293  0
C  C105  1  0.29329678  0.62483046  0.70713024  1  0.348157  0  0.094099  0.187317  0  4.038696  0
C  C106  1  0.70670314  0.79286767  0.87516809  1  0.347896  0  0.093983  0.187215  0  4.038815  0
C  C107  1  0.37507079  0.70703345  0.62493112  1  0.360617  0  0.094614  0.189056  0  4.038289  0
C  C108  1  0.47862157  0.06620740  0.26984060  1  -0.026671  0  -0.087869  -0.076616  0  4.012032  0
C  C109  1  0.81433263  0.43388566  0.23005307  1  0.019763  0  -0.087624  -0.075352  0  4.011235  0
C  C110  1  0.18566990  0.26994746  0.06611891  1  0.019275  0  -0.087593  -0.07518  0  4.011491  0
C  C111  1  0.52138354  0.23016281  0.43378750  1  -0.026747  0  -0.087854  -0.076565  0  4.012305  0
C  C112  1  0.52138290  0.93378707  0.73016011  1  -0.026708  0  -0.087792  -0.076448  0  4.012355  0
C  C113  1  0.18567023  0.56611750  0.76994591  1  0.019711  0  -0.087603  -0.075161  0  4.011431  0
C  C114  1  0.81433157  0.73005266  0.93388324  1  0.019916  0  -0.087625  -0.075221  0  4.011185  0
C  C115  1  0.47862247  0.76983982  0.56620981  1  -0.026702  0  -0.087881  -0.076623  0  4.012058  0
C  C116  1  0.31509213  0.13646280  0.26599480  1  -0.104246  0  -0.100309  -0.187579  0  4.003706  0
C  C117  1  0.71735331  0.36355168  0.23393527  1  -0.064802  0  -0.10018  -0.186429  0  4.001846  0
C  C118  1  0.28265165  0.26606086  0.13645304  1  -0.064434  0  -0.100293  -0.186607  0  4.00142  0
C  C119  1  0.68491101  0.23400735  0.36353294  1  -0.104247  0  -0.100322  -0.1876  0  4.003542  0
C  C120  1  0.68491006  0.86353322  0.73400681  1  -0.10421  0  -0.100316  -0.187545  0  4.003615  0
C  C121  1  0.28265117  0.63645195  0.76606033  1  -0.064709  0  -0.100355  -0.18668  0  4.001521  0
C  C122  1  0.71735005  0.73393672  0.86355108  1  -0.064882  0  -0.100167  -0.186375  0  4.001792  0
C  C123  1  0.31509235  0.76599424  0.63646353  1  -0.104232  0  -0.100332  -0.187624  0  4.0037  0
C  C124  1  0.47846430  0.02159135  0.02161333  1  -0.041781  0  -0.017298  0.050294  0  4.015936  0
C  C125  1  0.52155368  0.47839423  0.47839742  1  -0.041539  0  -0.017255  0.05041  0  4.015845  0
C  C126  1  0.52155048  0.97839703  0.97839295  1  0.067484  0  -0.017231  0.050385  0  4.016059  0
C  C127  1  0.47846796  0.52161342  0.52159116  1  0.06722  0  -0.017305  0.050204  0  4.015869  0
C  C128  1  0.39541988  0.10474060  0.10469588  1  0.281079  0  0.091213  0.178578  0  4.04952  0
C  C129  1  0.60458339  0.39530678  0.39525260  1  0.281495  0  0.091269  0.17859  0  4.049507  0
C  C130  1  0.60457999  0.89525335  0.89530524  1  0.281367  0  0.091251  0.178588  0  4.049487  0
C  C131  1  0.39542143  0.60469580  0.60474074  1  0.280892  0  0.091174  0.178431  0  4.049526  0
C  C132  1  0.46859013  0.09268403  0.99378542  1  -0.0323  0  -0.093417  -0.118702  0  4.004238  0
C  C133  1  0.55489989  0.40728040  0.50618593  1  0.012947  0  -0.093526  -0.119347  0  4.004803  0
C  C134  1  0.44511416  0.99380777  0.09272434  1  0.015721  0  -0.093476  -0.119196  0  4.004916  0
C  C135  1  0.53142349  0.50621775  0.40730571  1  -0.032043  0  -0.093295  -0.118455  0  4.00421  0
C  C136  1  0.53142075  0.90730533  0.00621686  1  -0.032177  0  -0.093305  -0.11851  0  4.004448  0
C  C137  1  0.44511900  0.59272474  0.49380734  1  0.015702  0  -0.093526  -0.119218  0  4.004819  0
C  C138  1  0.55489703  0.00618622  0.90727965  1  0.012936  0  -0.093567  -0.119328  0  4.004883  0
C  C139  1  0.46859215  0.49378631  0.59268341  1  -0.032289  0  -0.093375  -0.118646  0  4.004307  0
C  C140  1  0.42822612  0.13352945  0.03414055  1  -0.079137  0  -0.096889  -0.173394  0  4.017083  0
C  C141  1  0.59564806  0.36645627  0.46579609  1  -0.04491  0  -0.096289  -0.172766  0  4.016601  0
C  C142  1  0.40436088  0.03419685  0.13354562  1  -0.044574  0  -0.096324  -0.172901  0  4.016714  0
C  C143  1  0.57177969  0.46586306  0.36646490  1  -0.079274  0  -0.09693  -0.17353  0  4.017082  0
C  C144  1  0.57177656  0.86646503  0.96586160  1  -0.079257  0  -0.096947  -0.173472  0  4.017241  0
C  C145  1  0.40436315  0.63354680  0.53419581  1  -0.04437  0  -0.096287  -0.172768  0  4.016567  0
C  C146  1  0.59564570  0.96579660  0.86645617  1  -0.044829  0  -0.096291  -0.172795  0  4.016575  0
C  C147  1  0.42822761  0.53414106  0.63352867  1  -0.079026  0  -0.096898  -0.1734  0  4.017084  0
C  C148  1  0.78427023  0.83034628  0.33034605  1  -0.048602  0  0.015224  0.056192  0  3.98216  0
C  C149  1  0.94495712  0.66968032  0.16967876  1  0.010242  0  0.014831  0.055721  0  3.982607  0
C  C150  1  0.05503971  0.33031568  0.83032198  1  0.010077  0  0.014748  0.055621  0  3.982029  0
C  C151  1  0.21572598  0.16965539  0.66965710  1  -0.04902  0  0.015308  0.056429  0  3.981697  0
C  C152  1  0.70361351  0.84245124  0.43959801  1  0.550487  0  0.067082  0.111357  0  3.90121  0
C  C153  1  0.98569967  0.65755496  0.06042499  1  0.541273  0  0.065794  0.110225  0  3.901696  0
C  C154  1  0.01430497  0.43956959  0.84245331  1  0.541977  0  0.065808  0.110228  0  3.901648  0
C  C155  1  0.29639429  0.06040620  0.65754514  1  0.551926  0  0.067149  0.111492  0  3.901268  0
C  C156  1  0.29639464  0.15754482  0.56040778  1  0.551951  0  0.067161  0.111417  0  3.901374  0
C  C157  1  0.01430498  0.34244821  0.93957472  1  0.541116  0  0.065814  0.110252  0  3.901698  0
C  C158  1  0.98569798  0.56042599  0.15755527  1  0.540993  0  0.065815  0.110264  0  3.90159  0
C  C159  1  0.70361327  0.93959898  0.34245137  1  0.550428  0  0.067103  0.111316  0  3.901159  0
C  C160  1  0.83868127  0.78769881  0.28769628  1  0.972773  0  0.250749  0.250056  0  3.975618  0
C  C161  1  0.91406481  0.71232573  0.21232231  1  0.965558  0  0.250045  0.249877  0  3.97364  0
C  C162  1  0.08591848  0.28766972  0.78767564  1  0.966388  0  0.250276  0.249644  0  3.974605  0
C  C163  1  0.16129504  0.21230545  0.71230867  1  0.97347  0  0.250544  0.249661  0  3.976468  0
C  C164  1  0.75710970  0.80053530  0.40153818  1  -0.032156  0  -0.068533  -0.14976  0  3.922384  0
C  C165  1  0.95920676  0.69946961  0.09848804  1  -0.029266  0  -0.06843  -0.149789  0  3.924239  0
C  C166  1  0.04078967  0.40151260  0.80053108  1  -0.029619  0  -0.068378  -0.14968  0  3.923783  0
C  C167  1  0.24289441  0.09845891  0.69947017  1  -0.032239  0  -0.068663  -0.150075  0  3.922612  0
C  C168  1  0.24289505  0.19946940  0.59846079  1  -0.032084  0  -0.06859  -0.149955  0  3.922518  0
C  C169  1  0.04078828  0.30052646  0.90151852  1  -0.029089  0  -0.068341  -0.149716  0  3.923994  0
C  C170  1  0.95920800  0.59849005  0.19946852  1  -0.029235  0  -0.068459  -0.149823  0  3.924292  0
C  C171  1  0.75710983  0.90153819  0.30053598  1  -0.032049  0  -0.068611  -0.149829  0  3.9224  0
N  N172  1  0.35401608  0.14621133  0.14610983  1  -1.232005  0  -0.253421  -0.154565  0  3.684259  0
N  N173  1  0.64598609  0.35389080  0.35378659  1  -1.232083  0  -0.253402  -0.154464  0  3.684215  0
N  N174  1  0.64598307  0.85378671  0.85389009  1  -1.232158  0  -0.253431  -0.154563  0  3.684395  0
N  N175  1  0.35401581  0.64610977  0.64621082  1  -1.232021  0  -0.2534  -0.154472  0  3.684179  0
N  N176  1  0.67710862  0.91060139  0.41060151  1  -1.254615  0  -0.305977  -0.184277  0  3.480082  0
N  N177  1  0.99830520  0.58941284  0.08941198  1  -1.251488  0  -0.304566  -0.182752  0  3.479624  0
N  N178  1  0.00169914  0.41058576  0.91059125  1  -1.251904  0  -0.304711  -0.182956  0  3.480144  0
N  N179  1  0.32290135  0.08939820  0.58939898  1  -1.25758  0  -0.306051  -0.184413  0  3.480691  0
N  N180  1  0.86491139  0.71951274  0.31906520  1  -0.523529  0  -0.149211  -0.141819  0  3.194637  0
N  N181  1  0.90347493  0.78050545  0.18094685  1  -0.582071  0  -0.148347  -0.139896  0  3.193019  0
N  N182  1  0.09647874  0.31905166  0.71950610  1  -0.580074  0  -0.148364  -0.139767  0  3.192628  0
N  N183  1  0.13505495  0.18092885  0.78048456  1  -0.526188  0  -0.149299  -0.141764  0  3.194111  0
N  N184  1  0.13505376  0.28048171  0.68093388  1  -0.526412  0  -0.149288  -0.141741  0  3.194034  0
N  N185  1  0.09647977  0.21949932  0.81905704  1  -0.579864  0  -0.148363  -0.13972  0  3.192433  0
N  N186  1  0.90347576  0.68095008  0.28050144  1  -0.582026  0  -0.148333  -0.139866  0  3.193235  0
N  N187  1  0.86490980  0.81906863  0.21951106  1  -0.523545  0  -0.149193  -0.141757  0  3.194442  0
O  O188  1  0.51725859  0.01473027  0.39248706  1  -1.182312  0  -0.323774  -0.569712  0  2.354346  0
O  O189  1  0.92437938  0.48519696  0.10742507  1  -1.177464  0  -0.322712  -0.569598  0  2.353291  0
O  O190  1  0.07561992  0.39257524  0.01481091  1  -1.177543  0  -0.322702  -0.569604  0  2.35351  0
O  O191  1  0.48273146  0.10751706  0.48526992  1  -1.181853  0  -0.323771  -0.569822  0  2.353284  0
O  O192  1  0.48273096  0.98526987  0.60751635  1  -1.181778  0  -0.323754  -0.569773  0  2.353401  0
O  O193  1  0.07561919  0.51481032  0.89257517  1  -1.177621  0  -0.322704  -0.569537  0  2.353454  0
O  O194  1  0.92438062  0.60742593  0.98519282  1  -1.177376  0  -0.322759  -0.569611  0  2.353217  0
O  O195  1  0.51725839  0.89248766  0.51473040  1  -1.182281  0  -0.323761  -0.569737  0  2.354389  0
O  O196  1  0.38807990  0.06656949  0.44430923  1  -1.159604  0  -0.325893  -0.548846  0  2.294481  0
O  O197  1  0.89892473  0.43334054  0.05562261  1  -1.164462  0  -0.325218  -0.548741  0  2.294501  0
O  O198  1  0.10107451  0.44438050  0.06666547  1  -1.164672  0  -0.325362  -0.548985  0  2.294145  0
O  O199  1  0.61191310  0.05569812  0.43342955  1  -1.160414  0  -0.325807  -0.548708  0  2.295544  0
O  O200  1  0.61191365  0.93343119  0.55569613  1  -1.160453  0  -0.32574  -0.548589  0  2.295521  0
O  O201  1  0.10107476  0.56666573  0.94437868  1  -1.164561  0  -0.325307  -0.548895  0  2.294111  0
O  O202  1  0.89892434  0.55562220  0.93333766  1  -1.164568  0  -0.325242  -0.548769  0  2.294302  0
O  O203  1  0.38807875  0.94430966  0.56657003  1  -1.159633  0  -0.325864  -0.548831  0  2.29446  0
