# generated using pymatgen
data_Zn4H12C24O13
_symmetry_space_group_name_H-M   'P 1'
_cell_length_a   18.37569707
_cell_length_b   18.37569478
_cell_length_c   18.37569627
_cell_angle_alpha   60.24127957
_cell_angle_beta   60.24126686
_cell_angle_gamma   60.24127467
_symmetry_Int_Tables_number   1
_chemical_formula_structural   Zn4H12C24O13
_chemical_formula_sum   'Zn16 H48 C96 O52'
_cell_volume   4411.45663255
_cell_formula_units_Z   4
loop_
 _symmetry_equiv_pos_site_id
 _symmetry_equiv_pos_as_xyz
  1  'x, y, z'
loop_
 _atom_site_type_symbol
 _atom_site_label
 _atom_site_symmetry_multiplicity
 _atom_site_fract_x
 _atom_site_fract_y
 _atom_site_fract_z
 _atom_site_occupancy
 _atom_site_pbe_bader_charge
 _atom_site_pbe_bader_spin_density
 _atom_site_pbe_cm5_charge
 _atom_site_pbe_ddec_charge
 _atom_site_pbe_ddec_spin_density
 _atom_site_pbe_ddec_sum_bond_order
 _atom_site_pbe_magmom
Zn  Zn0  1  0.60953308  0.78284065  0.60953371  1  1.300647  0  0.672016  0.957153  0  2.388069  0
Zn  Zn1  1  0.19599318  0.02238004  0.19599343  1  1.313974  0  0.671296  0.962086  0  2.386684  0
Zn  Zn2  1  0.60953307  0.60953316  0.78284116  1  1.300647  0  0.672006  0.957145  0  2.388091  0
Zn  Zn3  1  0.19599320  0.19599347  0.02238016  1  1.313971  0  0.671295  0.962069  0  2.386691  0
Zn  Zn4  1  0.78284083  0.60953357  0.60953336  1  1.300644  0  0.672033  0.957189  0  2.388056  0
Zn  Zn5  1  0.02238041  0.19599326  0.19599323  1  1.313974  0  0.671297  0.962079  0  2.386675  0
Zn  Zn6  1  0.60886014  0.60886056  0.60886075  1  1.302994  0  0.671698  0.965216  0  2.374144  0
Zn  Zn7  1  0.19654719  0.19654754  0.19654752  1  1.321965  0  0.671737  0.963045  0  2.376338  0
Zn  Zn8  1  0.21715880  0.39046647  0.39046695  1  1.30064  0  0.671985  0.957124  0  2.388134  0
Zn  Zn9  1  0.97761989  0.80400655  0.80400686  1  1.31398  0  0.671298  0.962097  0  2.386666  0
Zn  Zn10  1  0.39046657  0.39046688  0.21715914  1  1.300643  0  0.672019  0.957163  0  2.38808  0
Zn  Zn11  1  0.80400644  0.80400657  0.97761960  1  1.314035  0  0.671293  0.962068  0  2.386708  0
Zn  Zn12  1  0.39046655  0.21715938  0.39046659  1  1.300641  0  0.672015  0.957165  0  2.388091  0
Zn  Zn13  1  0.80400712  0.97761978  0.80400720  1  1.313972  0  0.671288  0.962075  0  2.386707  0
Zn  Zn14  1  0.39113950  0.39113948  0.39113955  1  1.302991  0  0.671694  0.965188  0  2.374228  0
Zn  Zn15  1  0.80345245  0.80345250  0.80345224  1  1.321972  0  0.671733  0.963037  0  2.376337  0
H  H16  1  0.83426179  0.06734553  0.35321051  1  0.089118  0  0.109915  0.116518  0  0.99187  0
H  H17  1  0.73805738  0.97125276  0.44885874  1  0.080518  0  0.104973  0.108717  0  1.016462  0
H  H18  1  0.35321024  0.83426202  0.06734560  1  0.089118  0  0.109913  0.116528  0  0.991879  0
H  H19  1  0.44885888  0.73805743  0.97125254  1  0.080519  0  0.104975  0.108718  0  1.016459  0
H  H20  1  0.06734494  0.35321044  0.83426204  1  0.089052  0  0.109913  0.116513  0  0.991895  0
H  H21  1  0.97125217  0.44885900  0.73805800  1  0.080531  0  0.104984  0.108715  0  1.016486  0
H  H22  1  0.06734499  0.83426175  0.35321090  1  0.089133  0  0.109907  0.116508  0  0.991896  0
H  H23  1  0.97125220  0.73805778  0.44885879  1  0.080524  0  0.104978  0.108699  0  1.016494  0
H  H24  1  0.83426182  0.35321033  0.06734560  1  0.089041  0  0.109917  0.116521  0  0.991876  0
H  H25  1  0.73805733  0.44885895  0.97125252  1  0.080518  0  0.104965  0.108682  0  1.016495  0
H  H26  1  0.35321017  0.06734529  0.83426197  1  0.089072  0  0.109903  0.116489  0  0.991914  0
H  H27  1  0.44885890  0.97125246  0.73805743  1  0.080521  0  0.104977  0.108706  0  1.01647  0
H  H28  1  0.35527403  0.06758520  0.35527405  1  0.125012  0  0.105713  0.112921  0  1.018223  0
H  H29  1  0.45113216  0.97167294  0.45113267  1  0.099499  0  0.110064  0.118462  0  0.991453  0
H  H30  1  0.35403777  0.83473483  0.35403750  1  0.107229  0  0.109838  0.115164  0  0.992682  0
H  H31  1  0.45033916  0.73837072  0.45033980  1  0.101445  0  0.108133  0.113172  0  0.994426  0
H  H32  1  0.35527406  0.35527372  0.06758613  1  0.125009  0  0.105717  0.11291  0  1.01821  0
H  H33  1  0.45113278  0.45113272  0.97167251  1  0.099495  0  0.11006  0.118457  0  0.991451  0
H  H34  1  0.35403772  0.35403774  0.83473438  1  0.107359  0  0.109861  0.115207  0  0.992674  0
H  H35  1  0.45033913  0.45033990  0.73837064  1  0.101438  0  0.108125  0.113154  0  0.994436  0
H  H36  1  0.06758537  0.35527371  0.35527417  1  0.125013  0  0.105713  0.112926  0  1.01822  0
H  H37  1  0.97167275  0.45113259  0.45113248  1  0.099501  0  0.110061  0.118476  0  0.991453  0
H  H38  1  0.83473450  0.35403778  0.35403760  1  0.107224  0  0.109857  0.115197  0  0.992684  0
H  H39  1  0.73837071  0.45033906  0.45033982  1  0.101438  0  0.108126  0.113153  0  0.994435  0
H  H40  1  0.93265465  0.16573766  0.64678971  1  0.089123  0  0.109907  0.116503  0  0.991899  0
H  H41  1  0.02874744  0.26194226  0.55114097  1  0.080525  0  0.104976  0.108693  0  1.016505  0
H  H42  1  0.16573782  0.64678908  0.93265502  1  0.089099  0  0.109905  0.116511  0  0.991893  0
H  H43  1  0.26194231  0.55114109  0.02874778  1  0.080526  0  0.104972  0.108676  0  1.016519  0
H  H44  1  0.64678947  0.93265474  0.16573833  1  0.089055  0  0.109899  0.11649  0  0.991889  0
H  H45  1  0.55114140  0.02874736  0.26194266  1  0.080517  0  0.104974  0.108705  0  1.016467  0
H  H46  1  0.16573785  0.93265450  0.64678979  1  0.089124  0  0.10991  0.116509  0  0.9919  0
H  H47  1  0.26194226  0.02874790  0.55114071  1  0.080526  0  0.104981  0.108702  0  1.01649  0
H  H48  1  0.64679006  0.16573779  0.93265448  1  0.089152  0  0.10992  0.116533  0  0.99187  0
H  H49  1  0.55114142  0.26194239  0.02874754  1  0.080524  0  0.104978  0.108698  0  1.016494  0
H  H50  1  0.93265469  0.64678960  0.16573826  1  0.089043  0  0.109906  0.116499  0  0.991903  0
H  H51  1  0.02874747  0.55114104  0.26194230  1  0.080527  0  0.104977  0.108694  0  1.016502  0
H  H52  1  0.93241427  0.64472570  0.64472645  1  0.125269  0  0.105716  0.112924  0  1.018205  0
H  H53  1  0.02832755  0.54886785  0.54886729  1  0.099523  0  0.110068  0.118481  0  0.991456  0
H  H54  1  0.16526580  0.64596203  0.64596248  1  0.107353  0  0.109863  0.115201  0  0.992688  0
H  H55  1  0.26162959  0.54966013  0.54966058  1  0.101438  0  0.108136  0.113171  0  0.994405  0
H  H56  1  0.64472624  0.64472547  0.93241481  1  0.125013  0  0.105721  0.112921  0  1.01822  0
H  H57  1  0.54886753  0.54886772  0.02832726  1  0.099516  0  0.110067  0.118481  0  0.991456  0
H  H58  1  0.64596191  0.64596230  0.16526592  1  0.107356  0  0.109856  0.115219  0  0.992685  0
H  H59  1  0.54966051  0.54966013  0.26162967  1  0.101439  0  0.108133  0.113172  0  0.99441  0
H  H60  1  0.64472627  0.93241461  0.64472603  1  0.125021  0  0.105716  0.112928  0  1.018213  0
H  H61  1  0.54886814  0.02832688  0.54886741  1  0.099518  0  0.110066  0.118481  0  0.991449  0
H  H62  1  0.64596187  0.16526583  0.64596249  1  0.107356  0  0.109856  0.115218  0  0.992684  0
H  H63  1  0.54966048  0.26162931  0.54966051  1  0.101436  0  0.108122  0.113153  0  0.994446  0
C  C64  1  0.86350479  0.99522397  0.37474719  1  -0.018443  0  -0.078835  -0.091352  0  3.964739  0
C  C65  1  0.81013073  0.94186614  0.42785507  1  0.010895  0  -0.079003  -0.085252  0  3.962065  0
C  C66  1  0.37474673  0.86350510  0.99522398  1  -0.018441  0  -0.078858  -0.09141  0  3.964743  0
C  C67  1  0.42785512  0.81013090  0.94186620  1  0.010874  0  -0.078994  -0.085238  0  3.962035  0
C  C68  1  0.99522360  0.37474679  0.86350546  1  -0.018373  0  -0.078825  -0.091327  0  3.964766  0
C  C69  1  0.94186617  0.42785521  0.81013119  1  0.010899  0  -0.078992  -0.085245  0  3.962059  0
C  C70  1  0.99522365  0.86350425  0.37474760  1  -0.01845  0  -0.078839  -0.091347  0  3.964748  0
C  C71  1  0.94186620  0.81013088  0.42785495  1  0.01088  0  -0.078992  -0.085209  0  3.962078  0
C  C72  1  0.86350539  0.37474643  0.99522392  1  -0.018362  0  -0.078814  -0.091331  0  3.964692  0
C  C73  1  0.81013068  0.42785556  0.94186604  1  0.010909  0  -0.078984  -0.085211  0  3.961985  0
C  C74  1  0.37474740  0.99522411  0.86350443  1  -0.018394  0  -0.078825  -0.09132  0  3.964727  0
C  C75  1  0.42785513  0.94186581  0.81013093  1  0.010873  0  -0.078971  -0.085201  0  3.962038  0
C  C76  1  0.29163338  0.01423060  0.29163390  1  1.542266  0  0.229795  0.605409  0  4.166024  0
C  C77  1  0.34904843  0.95674688  0.34904786  1  -0.004599  0  -0.011101  -0.030743  0  3.957781  0
C  C78  1  0.37625029  0.99556700  0.37625050  1  -0.018765  0  -0.076689  -0.085483  0  3.96302  0
C  C79  1  0.42964630  0.94213426  0.42964629  1  -0.109465  0  -0.079126  -0.094358  0  3.961911  0
C  C80  1  0.37570239  0.86392836  0.37570278  1  -0.047657  0  -0.078796  -0.088521  0  3.968632  0
C  C81  1  0.42907648  0.81050540  0.42907684  1  0.01688  0  -0.081525  -0.093652  0  3.974731  0
C  C82  1  0.45634676  0.84930657  0.45634689  1  -0.014393  0  -0.014119  -0.033789  0  3.968809  0
C  C83  1  0.51374597  0.79175467  0.51374566  1  1.534364  0  0.227296  0.603192  0  4.164536  0
C  C84  1  0.29163407  0.29163359  0.01423019  1  1.542286  0  0.229811  0.605376  0  4.166026  0
C  C85  1  0.34904903  0.34904919  0.95674580  1  -0.0046  0  -0.0111  -0.030681  0  3.957855  0
C  C86  1  0.37625155  0.37624905  0.99556704  1  -0.018915  0  -0.07669  -0.085469  0  3.963064  0
C  C87  1  0.42964625  0.42964648  0.94213431  1  -0.109465  0  -0.079126  -0.094363  0  3.961895  0
C  C88  1  0.37570300  0.37570231  0.86392833  1  -0.047656  0  -0.078826  -0.088642  0  3.968729  0
C  C89  1  0.42907710  0.42907649  0.81050484  1  0.016876  0  -0.081525  -0.093606  0  3.974723  0
C  C90  1  0.45634672  0.45634686  0.84930677  1  -0.014386  0  -0.01411  -0.033777  0  3.968788  0
C  C91  1  0.51374594  0.51374585  0.79175441  1  1.534355  0  0.227337  0.603226  0  4.164451  0
C  C92  1  0.01423013  0.29163379  0.29163397  1  1.542276  0  0.229826  0.605419  0  4.165976  0
C  C93  1  0.95674660  0.34904838  0.34904849  1  -0.004601  0  -0.011053  -0.030612  0  3.957809  0
C  C94  1  0.99556690  0.37625031  0.37625046  1  -0.018776  0  -0.076723  -0.085541  0  3.963113  0
C  C95  1  0.94213426  0.42964618  0.42964628  1  -0.109461  0  -0.079159  -0.094461  0  3.961893  0
C  C96  1  0.86392811  0.37570250  0.37570278  1  -0.047658  0  -0.078819  -0.08863  0  3.968709  0
C  C97  1  0.81050477  0.42907648  0.42907710  1  0.016871  0  -0.081525  -0.093617  0  3.974702  0
C  C98  1  0.84930645  0.45634663  0.45634697  1  -0.01438  0  -0.014099  -0.033698  0  3.968683  0
C  C99  1  0.79175458  0.51374575  0.51374631  1  1.535192  0  0.22728  0.603143  0  4.164552  0
C  C100  1  0.01375483  0.01375527  0.29119479  1  1.610411  0  0.22953  0.604303  0  4.167062  0
C  C101  1  0.95632230  0.95632231  0.34817859  1  -0.04101  0  -0.011214  -0.027264  0  3.962789  0
C  C102  1  0.84905325  0.84905347  0.45510476  1  -0.038464  0  -0.012853  -0.032821  0  3.962654  0
C  C103  1  0.79174759  0.79174739  0.51352511  1  1.511321  0  0.231184  0.606117  0  4.153875  0
C  C104  1  0.29119465  0.01375508  0.01375525  1  1.610409  0  0.229525  0.60432  0  4.167074  0
C  C105  1  0.34817817  0.95632261  0.95632248  1  -0.041016  0  -0.011201  -0.027258  0  3.962721  0
C  C106  1  0.45510538  0.84905284  0.84905325  1  -0.038416  0  -0.012837  -0.032762  0  3.96263  0
C  C107  1  0.51352496  0.79174760  0.79174762  1  1.51135  0  0.231148  0.606103  0  4.153906  0
C  C108  1  0.01375486  0.29119484  0.01375530  1  1.610411  0  0.229537  0.604323  0  4.167066  0
C  C109  1  0.95632224  0.34817847  0.95632244  1  -0.04104  0  -0.011243  -0.027317  0  3.96283  0
C  C110  1  0.84905321  0.45510510  0.84905316  1  -0.038472  0  -0.012834  -0.032748  0  3.962609  0
C  C111  1  0.79174756  0.51352480  0.79174769  1  1.511315  0  0.231166  0.606106  0  4.153888  0
C  C112  1  0.00477599  0.13649516  0.62525248  1  -0.018444  0  -0.078831  -0.091343  0  3.964766  0
C  C113  1  0.05813410  0.18986893  0.57214459  1  0.010874  0  -0.078984  -0.085199  0  3.962078  0
C  C114  1  0.13649491  0.62525338  0.00477616  1  -0.018412  0  -0.078833  -0.091345  0  3.964675  0
C  C115  1  0.18986896  0.57214448  0.05813426  1  0.010893  0  -0.078989  -0.085186  0  3.962047  0
C  C116  1  0.62525223  0.00477655  0.13649556  1  -0.018359  0  -0.078837  -0.091336  0  3.964712  0
C  C117  1  0.57214450  0.05813422  0.18986938  1  0.010828  0  -0.078976  -0.085216  0  3.962054  0
C  C118  1  0.13649551  0.00477647  0.62525204  1  -0.018452  0  -0.078846  -0.091366  0  3.964776  0
C  C119  1  0.18986891  0.05813390  0.57214469  1  0.010858  0  -0.078985  -0.085197  0  3.962069  0
C  C120  1  0.62525225  0.13649578  0.00477623  1  -0.018475  0  -0.078872  -0.091424  0  3.96471  0
C  C121  1  0.57214518  0.18986891  0.05813389  1  0.010856  0  -0.078989  -0.085205  0  3.962069  0
C  C122  1  0.00477604  0.62525324  0.13649485  1  -0.01837  0  -0.078827  -0.091317  0  3.964707  0
C  C123  1  0.05813414  0.57214461  0.18986889  1  0.01088  0  -0.078978  -0.085187  0  3.96207  0
C  C124  1  0.98577017  0.70836602  0.70836612  1  1.542264  0  0.229798  0.605394  0  4.166006  0
C  C125  1  0.04325304  0.65095165  0.65095181  1  -0.004479  0  -0.011072  -0.030653  0  3.957782  0
C  C126  1  0.00443274  0.62375098  0.62374868  1  -0.019166  0  -0.076737  -0.085553  0  3.963104  0
C  C127  1  0.05786605  0.57035363  0.57035380  1  -0.109453  0  -0.079145  -0.094426  0  3.961871  0
C  C128  1  0.13607153  0.62429754  0.62429752  1  -0.047788  0  -0.078794  -0.08858  0  3.968605  0
C  C129  1  0.18949486  0.57092355  0.57092321  1  0.016878  0  -0.081539  -0.093653  0  3.974671  0
C  C130  1  0.15069385  0.54365319  0.54365312  1  -0.014386  0  -0.014101  -0.033716  0  3.968684  0
C  C131  1  0.20824572  0.48625406  0.48625377  1  1.53436  0  0.227344  0.603234  0  4.164422  0
C  C132  1  0.70836623  0.70836623  0.98576989  1  1.542276  0  0.229804  0.605338  0  4.166074  0
C  C133  1  0.65095127  0.65095188  0.04325312  1  -0.004364  0  -0.011041  -0.030522  0  3.95778  0
C  C134  1  0.62374875  0.62375077  0.00443250  1  -0.019022  0  -0.076764  -0.085597  0  3.963058  0
C  C135  1  0.57035339  0.57035419  0.05786569  1  -0.109465  0  -0.079127  -0.094433  0  3.961841  0
C  C136  1  0.62429730  0.62429750  0.13607176  1  -0.047787  0  -0.078853  -0.088748  0  3.968776  0
C  C137  1  0.57092320  0.57092333  0.18949470  1  0.016883  0  -0.081524  -0.093617  0  3.974733  0
C  C138  1  0.54365358  0.54365296  0.15069331  1  -0.014382  0  -0.014052  -0.033599  0  3.968702  0
C  C139  1  0.48625370  0.48625418  0.20824536  1  1.53436  0  0.227268  0.603096  0  4.164562  0
C  C140  1  0.70836626  0.98577006  0.70836609  1  1.542271  0  0.229815  0.605389  0  4.166016  0
C  C141  1  0.65095121  0.04325315  0.65095190  1  -0.004469  0  -0.011051  -0.03057  0  3.957805  0
C  C142  1  0.62374869  0.00443326  0.62375057  1  -0.01892  0  -0.076726  -0.08554  0  3.963111  0
C  C143  1  0.57035400  0.05786556  0.57035380  1  -0.109469  0  -0.079153  -0.094471  0  3.961902  0
C  C144  1  0.62429725  0.13607168  0.62429753  1  -0.047782  0  -0.07885  -0.088734  0  3.968774  0
C  C145  1  0.57092316  0.18949526  0.57092316  1  0.016873  0  -0.081528  -0.09362  0  3.974751  0
C  C146  1  0.54365354  0.15069324  0.54365319  1  -0.014376  0  -0.01404  -0.033591  0  3.968672  0
C  C147  1  0.48625367  0.20824537  0.48625411  1  1.5352  0  0.227274  0.603075  0  4.164572  0
C  C148  1  0.98624547  0.98624454  0.70880584  1  1.610414  0  0.229561  0.604393  0  4.167019  0
C  C149  1  0.04367800  0.04367750  0.65182150  1  -0.041016  0  -0.011214  -0.027264  0  3.962778  0
C  C150  1  0.15094705  0.15094697  0.54489447  1  -0.038412  0  -0.012843  -0.032812  0  3.962663  0
C  C151  1  0.20825272  0.20825242  0.48647443  1  1.511279  0  0.231163  0.60617  0  4.153801  0
C  C152  1  0.98624544  0.70880561  0.98624502  1  1.610382  0  0.229559  0.604394  0  4.167  0
C  C153  1  0.04367740  0.65182157  0.04367786  1  -0.041012  0  -0.011208  -0.027294  0  3.962779  0
C  C154  1  0.15094709  0.54489472  0.15094638  1  -0.038448  0  -0.012877  -0.032863  0  3.962673  0
C  C155  1  0.20825275  0.48647501  0.20825240  1  1.511327  0  0.231186  0.606137  0  4.153842  0
C  C156  1  0.70880565  0.98624536  0.98624453  1  1.61041  0  0.229556  0.604388  0  4.167006  0
C  C157  1  0.65182146  0.04367743  0.04367782  1  -0.041004  0  -0.011188  -0.027236  0  3.962633  0
C  C158  1  0.54489492  0.15094697  0.15094683  1  -0.038387  0  -0.012839  -0.032773  0  3.96263  0
C  C159  1  0.48647534  0.20825221  0.20825247  1  1.511352  0  0.231162  0.606091  0  4.1539  0
O  O160  1  0.70771822  0.83121094  0.53638415  1  -1.165801  0  -0.312071  -0.545689  0  2.351747  0
O  O161  1  0.97414902  0.09768725  0.26919278  1  -1.189554  0  -0.314357  -0.546385  0  2.342098  0
O  O162  1  0.53638406  0.70771850  0.83121068  1  -1.165843  0  -0.312054  -0.545707  0  2.351772  0
O  O163  1  0.26919260  0.97414893  0.09768743  1  -1.189558  0  -0.314364  -0.546402  0  2.3421  0
O  O164  1  0.83121033  0.53638451  0.70771823  1  -1.16584  0  -0.312082  -0.545716  0  2.351766  0
O  O165  1  0.09768760  0.26919223  0.97414927  1  -1.189548  0  -0.314358  -0.546382  0  2.342083  0
O  O166  1  0.83121034  0.70771844  0.53638432  1  -1.165846  0  -0.312066  -0.545675  0  2.351784  0
O  O167  1  0.09768767  0.97414881  0.26919224  1  -1.189554  0  -0.314362  -0.546383  0  2.342078  0
O  O168  1  0.70771819  0.53638426  0.83121071  1  -1.165804  0  -0.312073  -0.545699  0  2.351768  0
O  O169  1  0.97414904  0.26919234  0.09768742  1  -1.189554  0  -0.314381  -0.54641  0  2.342139  0
O  O170  1  0.53638407  0.83121062  0.70771834  1  -1.165845  0  -0.312064  -0.545688  0  2.351786  0
O  O171  1  0.26919252  0.09768727  0.97414927  1  -1.189549  0  -0.314351  -0.546377  0  2.342087  0
O  O172  1  0.53617447  0.83131469  0.53617502  1  -1.160422  0  -0.314547  -0.545731  0  2.341847  0
O  O173  1  0.53570252  0.70777743  0.53570226  1  -1.151917  0  -0.315314  -0.548304  0  2.336316  0
O  O174  1  0.26975057  0.09815140  0.26975143  1  -1.179654  0  -0.313519  -0.54348  0  2.338766  0
O  O175  1  0.26928319  0.97458953  0.26928292  1  -1.179696  0  -0.313726  -0.544994  0  2.343234  0
O  O176  1  0.53617444  0.53617518  0.83131463  1  -1.160421  0  -0.314573  -0.545754  0  2.341756  0
O  O177  1  0.53570250  0.53570184  0.70777695  1  -1.151916  0  -0.315327  -0.548315  0  2.33633  0
O  O178  1  0.26975125  0.26975093  0.09815099  1  -1.179638  0  -0.313527  -0.543479  0  2.338751  0
O  O179  1  0.26928312  0.26928313  0.97458931  1  -1.1797  0  -0.313737  -0.544971  0  2.343247  0
O  O180  1  0.83131438  0.53617456  0.53617564  1  -1.16043  0  -0.314525  -0.54572  0  2.341849  0
O  O181  1  0.70777759  0.53570223  0.53570230  1  -1.152733  0  -0.315336  -0.548311  0  2.336333  0
O  O182  1  0.09815130  0.26975098  0.26975130  1  -1.179646  0  -0.313536  -0.543504  0  2.338739  0
O  O183  1  0.97458916  0.26928319  0.26928301  1  -1.1797  0  -0.313738  -0.544985  0  2.343222  0
O  O184  1  0.65257736  0.65257749  0.65257754  1  -1.185569  0  -0.572841  -1.025755  0  2.542091  0
O  O185  1  0.15281269  0.15281315  0.15281259  1  -1.230677  0  -0.571353  -1.028461  0  2.537271  0
O  O186  1  0.16878930  0.29228222  0.46361513  1  -1.165808  0  -0.312064  -0.545723  0  2.351757  0
O  O187  1  0.90231263  0.02585100  0.73080785  1  -1.189542  0  -0.314374  -0.546418  0  2.342107  0
O  O188  1  0.29228211  0.46361555  0.16878938  1  -1.165853  0  -0.312071  -0.545693  0  2.35178  0
O  O189  1  0.02585060  0.73080770  0.90231289  1  -1.189548  0  -0.314376  -0.546429  0  2.342124  0
O  O190  1  0.46361557  0.16878942  0.29228197  1  -1.165848  0  -0.312076  -0.545706  0  2.351777  0
O  O191  1  0.73080712  0.90231277  0.02585103  1  -1.189546  0  -0.314355  -0.546403  0  2.342058  0
O  O192  1  0.29228208  0.16878888  0.46361539  1  -1.165811  0  -0.312058  -0.545715  0  2.351729  0
O  O193  1  0.02585128  0.90231256  0.73080731  1  -1.189562  0  -0.314374  -0.546437  0  2.342085  0
O  O194  1  0.46361558  0.29228153  0.16878963  1  -1.165836  0  -0.312076  -0.545692  0  2.351761  0
O  O195  1  0.73080770  0.02585089  0.90231266  1  -1.189565  0  -0.31439  -0.546444  0  2.342131  0
O  O196  1  0.16878931  0.46361553  0.29228208  1  -1.165801  0  -0.312077  -0.545693  0  2.351751  0
O  O197  1  0.90231203  0.73080780  0.02585104  1  -1.18961  0  -0.314376  -0.546426  0  2.34204  0
O  O198  1  0.16868593  0.46382463  0.46382476  1  -1.160426  0  -0.314595  -0.545782  0  2.341785  0
O  O199  1  0.29222272  0.46429758  0.46429779  1  -1.15191  0  -0.315315  -0.548305  0  2.336348  0
O  O200  1  0.90184900  0.73024884  0.73024878  1  -1.179639  0  -0.313527  -0.543487  0  2.338744  0
O  O201  1  0.02541048  0.73071684  0.73071675  1  -1.1797  0  -0.313724  -0.544984  0  2.343238  0
O  O202  1  0.46382520  0.46382485  0.16868513  1  -1.160437  0  -0.314526  -0.545691  0  2.341789  0
O  O203  1  0.46429780  0.46429735  0.29222290  1  -1.151901  0  -0.315324  -0.548305  0  2.336382  0
O  O204  1  0.73024905  0.73024889  0.90184910  1  -1.179644  0  -0.313523  -0.54347  0  2.338767  0
O  O205  1  0.73071718  0.73071669  0.02541078  1  -1.17971  0  -0.313735  -0.54496  0  2.343288  0
O  O206  1  0.46382517  0.16868534  0.46382474  1  -1.160438  0  -0.314523  -0.545682  0  2.341784  0
O  O207  1  0.46429779  0.29222239  0.46429783  1  -1.152734  0  -0.31532  -0.54826  0  2.336373  0
O  O208  1  0.73024907  0.90184864  0.73024887  1  -1.179644  0  -0.313534  -0.543493  0  2.338749  0
O  O209  1  0.73071711  0.02541028  0.73071717  1  -1.179697  0  -0.313725  -0.544974  0  2.34323  0
O  O210  1  0.34742294  0.34742233  0.34742254  1  -1.185569  0  -0.572848  -1.025777  0  2.542151  0
O  O211  1  0.84718695  0.84718752  0.84718740  1  -1.230674  0  -0.571341  -1.02845  0  2.537248  0
