# generated using pymatgen
data_AlH9C19N2O5F4
_symmetry_space_group_name_H-M   'P 1'
_cell_length_a   6.63953724
_cell_length_b   25.35754492
_cell_length_c   28.89943457
_cell_angle_alpha   90.54734156
_cell_angle_beta   89.32582498
_cell_angle_gamma   88.59216063
_symmetry_Int_Tables_number   1
_chemical_formula_structural   AlH9C19N2O5F4
_chemical_formula_sum   'Al4 H36 C76 N8 O20 F16'
_cell_volume   4863.53592704
_cell_formula_units_Z   4
loop_
 _symmetry_equiv_pos_site_id
 _symmetry_equiv_pos_as_xyz
  1  'x, y, z'
loop_
 _atom_site_type_symbol
 _atom_site_label
 _atom_site_symmetry_multiplicity
 _atom_site_fract_x
 _atom_site_fract_y
 _atom_site_fract_z
 _atom_site_occupancy
 _atom_site_pbe_bader_charge
 _atom_site_pbe_bader_spin_density
 _atom_site_pbe_cm5_charge
 _atom_site_pbe_ddec_charge
 _atom_site_pbe_ddec_spin_density
 _atom_site_pbe_ddec_sum_bond_order
 _atom_site_pbe_magmom
Al  Al0  1  0.78787276  0.74886157  0.74673512  1  2.504499  0  0.400184  1.642605  0  2.573575  0
Al  Al1  1  0.21521051  0.25286867  0.25315325  1  2.498923  0  0.39708  1.633126  0  2.587215  0
Al  Al2  1  0.29149708  0.74712374  0.74724769  1  2.500539  0  0.394654  1.642915  0  2.593205  0
Al  Al3  1  0.71249183  0.25404363  0.25249308  1  2.501356  0  0.395355  1.63683  0  2.588092  0
H  H4  1  0.73324217  0.66031375  0.63536546  1  0.130788  0  0.114597  0.125136  0  0.996144  0
H  H5  1  0.27635813  0.34200105  0.36506011  1  0.146194  0  0.114148  0.125665  0  1.000565  0
H  H6  1  0.70910007  0.59609760  0.56953503  1  0.122114  0  0.106652  0.108477  0  1.026744  0
H  H7  1  0.29687426  0.40581256  0.43120368  1  0.099237  0  0.106633  0.108298  0  1.027081  0
H  H8  1  0.34351342  0.55849036  0.58220195  1  0.127016  0  0.115395  0.136132  0  1.013985  0
H  H9  1  0.66180504  0.44194853  0.41785834  1  0.111077  0  0.115296  0.135605  0  1.014586  0
H  H10  1  0.72602972  0.66094640  0.86369785  1  0.148728  0  0.111058  0.119416  0  1.00051  0
H  H11  1  0.27012626  0.34002152  0.13622916  1  0.13464  0  0.112222  0.118985  0  0.994869  0
H  H12  1  0.71228473  0.60050986  0.93049518  1  0.056929  0  0.104283  0.11048  0  1.006085  0
H  H13  1  0.28449501  0.40046352  0.06941633  1  0.113806  0  0.104493  0.110931  0  1.005455  0
H  H14  1  0.34092369  0.55884426  0.90651428  1  0.098814  0  0.107465  0.132329  0  1.007477  0
H  H15  1  0.65615292  0.44271374  0.09329731  1  0.09992  0  0.107188  0.131971  0  1.008211  0
H  H16  1  0.28694319  0.48786246  0.05245178  1  0.110928  0  0.113572  0.136054  0  0.995178  0
H  H17  1  0.70931529  0.51320432  0.94739060  1  0.09317  0  0.113475  0.136641  0  0.99305  0
H  H18  1  0.17863229  0.10097685  0.43633919  1  0.080954  0  0.098284  0.109673  0  1.015934  0
H  H19  1  0.82565417  0.89859767  0.56136671  1  0.103794  0  0.098003  0.109065  0  1.017417  0
H  H20  1  0.17930015  0.16742939  0.37349423  1  0.053652  0  0.106258  0.110931  0  1.005832  0
H  H21  1  0.82927484  0.83320453  0.62492396  1  0.0892  0  0.105256  0.110639  0  1.01272  0
H  H22  1  0.21018500  0.94238588  0.51300516  1  0.104756  0  0.112092  0.140056  0  0.990424  0
H  H23  1  0.79245401  0.05677662  0.48490415  1  0.107813  0  0.112043  0.139857  0  0.990303  0
H  H24  1  0.77531473  0.05095565  0.10125176  1  0.056981  0  0.108226  0.124025  0  0.987084  0
H  H25  1  0.21917528  0.89438451  0.94201464  1  0.069043  0  0.10776  0.124349  0  0.989277  0
H  H26  1  0.17646221  0.16830961  0.12905777  1  0.130971  0  0.114655  0.141775  0  0.994976  0
H  H27  1  0.81981938  0.87326791  0.83925787  1  0.113625  0  0.112305  0.13431  0  1.004392  0
H  H28  1  0.96065769  0.10392605  0.34546284  1  0.478487  0  0.30237  0.301684  0  0.966919  0
H  H29  1  0.85890793  0.15760982  0.31579731  1  0.516959  0  0.308223  0.321253  0  0.971124  0
H  H30  1  0.04603709  0.89538181  0.65291648  1  0.443619  0  0.304726  0.303136  0  0.964725  0
H  H31  1  0.15545992  0.84433037  0.68562351  1  0.535448  0  0.310001  0.322215  0  0.974195  0
H  H32  1  0.79916839  0.13265025  0.20326838  1  0.472085  0  0.305877  0.304052  0  0.985051  0
H  H33  1  0.90581453  0.08061311  0.17174186  1  0.45493  0  0.315403  0.310125  0  0.927231  0
H  H34  1  0.05417024  0.83153988  0.89749877  1  0.455738  0  0.310494  0.308368  0  0.945229  0
H  H35  1  0.16709981  0.79997009  0.84918382  1  0.502803  0  0.306972  0.314428  0  0.985555  0
H  H36  1  0.54781045  0.68061097  0.76213671  1  0.654063  0  0.356598  0.439392  0  0.842621  0
H  H37  1  0.45550452  0.31897135  0.23378781  1  0.623349  0  0.354462  0.436783  0  0.848381  0
H  H38  1  0.03215718  0.81413203  0.76614608  1  0.614067  0  0.350251  0.424249  0  0.862501  0
H  H39  1  0.97627783  0.19544711  0.22417603  1  0.631518  0  0.341727  0.406238  0  0.902019  0
C  C40  1  0.54064294  0.81149825  0.68520723  1  1.528856  0  0.262489  0.651274  0  4.089419  0
C  C41  1  0.47577085  0.19084563  0.31532940  1  1.523089  0  0.265277  0.656414  0  4.082283  0
C  C42  1  0.52515281  0.81053235  0.81260493  1  1.524823  0  0.260906  0.653106  0  4.076258  0
C  C43  1  0.46431038  0.18640787  0.19047150  1  1.5297  0  0.261447  0.651452  0  4.084054  0
C  C44  1  0.03603487  0.68349939  0.80892000  1  1.565876  0  0.263084  0.655264  0  4.108185  0
C  C45  1  0.95473381  0.31684882  0.19000541  1  1.600688  0  0.265951  0.65978  0  4.101407  0
C  C46  1  0.05471846  0.68573606  0.68405301  1  1.587156  0  0.271128  0.657417  0  4.101204  0
C  C47  1  0.96074420  0.31657647  0.31517779  1  1.584951  0  0.270488  0.655841  0  4.1021  0
C  C48  1  0.86598519  0.63827664  0.62280574  1  0.012281  0  -0.070176  -0.053679  0  3.952977  0
C  C49  1  0.14294700  0.36390729  0.37735676  1  0.00137  0  -0.071264  -0.054236  0  3.955102  0
C  C50  1  0.85209977  0.60243738  0.58647506  1  -0.002517  0  -0.08523  -0.12609  0  3.966415  0
C  C51  1  0.15474195  0.39946977  0.41389316  1  -0.002195  0  -0.085777  -0.127487  0  3.970294  0
C  C52  1  0.02433080  0.57341193  0.57150011  1  -0.013376  0  0.001762  0.050624  0  4.003404  0
C  C53  1  0.98126734  0.42799567  0.42879271  1  -0.034633  0  0.002919  0.054215  0  4.005018  0
C  C54  1  0.20953890  0.58113042  0.59313466  1  0.015281  0  -0.091284  -0.241592  0  3.9573  0
C  C55  1  0.79730143  0.42007305  0.40672724  1  0.064062  0  -0.091728  -0.241691  0  3.956909  0
C  C56  1  0.21927861  0.61756264  0.62904034  1  0.457939  0  0.111901  0.286788  0  4.03258  0
C  C57  1  0.78983606  0.38415562  0.37032813  1  0.440695  0  0.113417  0.290198  0  4.026873  0
C  C58  1  0.04994350  0.64701282  0.64490194  1  0.003329  0  -0.014233  -0.146537  0  3.945584  0
C  C59  1  0.96057942  0.35516421  0.35450414  1  0.003917  0  -0.015016  -0.149854  0  3.939156  0
C  C60  1  0.99175352  0.46631861  0.46709869  1  0.93854  0  0.244615  0.247247  0  3.965877  0
C  C61  1  0.01193626  0.53441697  0.53378001  1  0.963408  0  0.244745  0.248422  0  3.965172  0
C  C62  1  0.85972800  0.63834350  0.87377155  1  -0.059483  0  -0.075463  -0.054597  0  3.981838  0
C  C63  1  0.13648160  0.36259879  0.12607740  1  0.003937  0  -0.073158  -0.052119  0  3.976133  0
C  C64  1  0.85218282  0.60402449  0.91079269  1  0.005297  0  -0.093959  -0.152845  0  3.976268  0
C  C65  1  0.14436513  0.39696264  0.08904094  1  -0.043638  0  -0.092762  -0.151917  0  3.972547  0
C  C66  1  0.02472972  0.57465878  0.92379877  1  0.003442  0  0.001747  0.125348  0  4.004117  0
C  C67  1  0.97192461  0.42633058  0.07595310  1  0.002188  0  0.001299  0.122853  0  4.005299  0
C  C68  1  0.20402170  0.58120380  0.89854846  1  0.032691  0  -0.101536  -0.268796  0  3.972495  0
C  C69  1  0.79226129  0.41997676  0.10112466  1  0.032335  0  -0.101443  -0.268104  0  3.979049  0
C  C70  1  0.20825095  0.61593906  0.86175821  1  0.463788  0  0.111294  0.297424  0  4.024217  0
C  C71  1  0.78743861  0.38496252  0.13765122  1  0.405374  0  0.110261  0.29411  0  4.032369  0
C  C72  1  0.03803155  0.64554609  0.84807695  1  0.006512  0  -0.023512  -0.163371  0  3.957936  0
C  C73  1  0.95717317  0.35521957  0.15123735  1  -0.011589  0  -0.020588  -0.156852  0  3.960105  0
C  C74  1  0.17172890  0.52724830  0.99314834  1  0.424638  0  0.095995  0.235554  0  4.041682  0
C  C75  1  0.82469490  0.47377568  0.00663962  1  0.349407  0  0.096268  0.235603  0  4.041698  0
C  C76  1  0.15899997  0.49229532  0.02947315  1  0.044933  0  -0.093113  -0.230465  0  3.99624  0
C  C77  1  0.83737566  0.50876752  0.97033932  1  0.059121  0  -0.09296  -0.230616  0  3.992634  0
C  C78  1  0.98291519  0.46392703  0.03746421  1  0.072359  0  -0.009384  -0.012611  0  4.004509  0
C  C79  1  0.01363761  0.53708594  0.96231248  1  0.024838  0  -0.009368  -0.013719  0  4.00345  0
C  C80  1  0.66428226  0.12094763  0.35991885  1  0.531762  0  0.102877  0.204551  0  4.112337  0
C  C81  1  0.34381259  0.87900026  0.63905216  1  0.569059  0  0.107276  0.212089  0  4.107572  0
C  C82  1  0.65465570  0.08306872  0.39530619  1  0.415267  0  0.085531  0.116773  0  3.970391  0
C  C83  1  0.35060978  0.91608187  0.60282730  1  0.40703  0  0.087195  0.119237  0  3.964586  0
C  C84  1  0.48704941  0.07466078  0.42331492  1  0.052673  0  -0.013824  0.002305  0  4.050669  0
C  C85  1  0.51689631  0.92454842  0.57457981  1  0.001375  0  -0.013032  0.001853  0  4.04991  0
C  C86  1  0.31202500  0.10588371  0.41475763  1  0.000601  0  -0.110939  -0.165423  0  4.047544  0
C  C87  1  0.69309877  0.89368398  0.58320342  1  -0.027208  0  -0.112519  -0.166703  0  4.048787  0
C  C88  1  0.31264527  0.14276785  0.37979208  1  -0.017356  0  -0.095703  -0.096691  0  4.060963  0
C  C89  1  0.69499069  0.85746962  0.61859495  1  -0.04715  0  -0.095712  -0.096069  0  4.061175  0
C  C90  1  0.48456627  0.15113245  0.35216685  1  0.003159  0  -0.033448  -0.162716  0  3.974116  0
C  C91  1  0.52536261  0.84950204  0.64725932  1  0.011129  0  -0.03456  -0.168803  0  3.970513  0
C  C92  1  0.33567262  0.00268526  0.47153777  1  0.4323  0  0.093647  0.23299  0  4.043357  0
C  C93  1  0.66719646  0.99642353  0.52628931  1  0.407373  0  0.094699  0.234283  0  4.044213  0
C  C94  1  0.33955228  0.96717679  0.50763233  1  0.055296  0  -0.096113  -0.23508  0  4.000961  0
C  C95  1  0.66325606  0.03191166  0.49019885  1  0.069194  0  -0.096689  -0.235612  0  4.001502  0
C  C96  1  0.50795459  0.96284000  0.53648271  1  0.042834  0  -0.011545  0.002481  0  4.016563  0
C  C97  1  0.49500728  0.03621679  0.46131351  1  0.031284  0  -0.011482  0.002473  0  4.016241  0
C  C98  1  0.64701939  0.11272152  0.14515469  1  0.444691  0  0.108806  0.301382  0  4.063137  0
C  C99  1  0.34602681  0.85183212  0.88301355  1  0.45278  0  0.113158  0.309853  0  4.068951  0
C  C100  1  0.64401678  0.07681435  0.10764435  1  0.014354  0  -0.095906  -0.230249  0  3.928782  0
C  C101  1  0.35177083  0.88903387  0.91967580  1  0.014402  0  -0.095683  -0.228511  0  3.918845  0
C  C102  1  0.48115713  0.07380270  0.07801049  1  0.043048  0  -0.012768  0.021205  0  4.055338  0
C  C103  1  0.51787652  0.91994234  0.92751164  1  0.032952  0  -0.011846  0.022812  0  4.060281  0
C  C104  1  0.31369696  0.10749978  0.08649283  1  0.427674  0  0.0799  0.206493  0  4.078783  0
C  C105  1  0.68674449  0.91296110  0.89818015  1  0.417555  0  0.07705  0.200648  0  4.08712  0
C  C106  1  0.30913353  0.14302043  0.12289312  1  0.025405  0  -0.095179  -0.202171  0  4.025781  0
C  C107  1  0.68834448  0.87722667  0.86199517  1  0.032478  0  -0.099378  -0.209289  0  4.047274  0
C  C108  1  0.47547885  0.14685087  0.15247946  1  0.02791  0  -0.028551  -0.150828  0  3.939347  0
C  C109  1  0.51892447  0.84639036  0.85323861  1  0.023753  0  -0.030494  -0.154241  0  3.936912  0
C  C110  1  0.49493904  0.98087399  0.04793033  1  0.54731  0  0.087205  0.133196  0  4.091141  0
C  C111  1  0.50622648  0.01357413  0.95702733  1  0.493728  0  0.094549  0.142456  0  4.080304  0
C  C112  1  0.50614454  0.94391396  0.01197746  1  0.510108  0  0.087506  0.134154  0  4.091015  0
C  C113  1  0.49150810  0.05056250  0.99298888  1  0.545385  0  0.093142  0.141165  0  4.083886  0
C  C114  1  0.51254739  0.95937417  0.96568888  1  0.16013  0  -0.020335  -0.105454  0  4.075324  0
C  C115  1  0.48700328  0.03507038  0.03932857  1  0.088633  0  -0.019284  -0.10522  0  4.076371  0
N  N116  1  0.18148189  0.50616821  0.52226471  1  -0.528658  0  -0.149006  -0.136776  0  3.205257  0
N  N117  1  0.82137158  0.49388452  0.47913571  1  -0.52558  0  -0.14961  -0.13836  0  3.206413  0
N  N118  1  0.17135343  0.47152952  0.48829866  1  -0.55946  0  -0.148639  -0.13996  0  3.204709  0
N  N119  1  0.83151770  0.52857881  0.51311071  1  -0.575026  0  -0.148886  -0.140168  0  3.204707  0
N  N120  1  0.83768007  0.12432552  0.33439997  1  -1.298165  0  -0.590646  -0.602731  0  3.36139  0
N  N121  1  0.16970419  0.87519965  0.66379169  1  -1.286248  0  -0.584269  -0.590195  0  3.373912  0
N  N122  1  0.81488272  0.11325951  0.17254622  1  -1.257926  0  -0.588212  -0.608052  0  3.33368  0
N  N123  1  0.17858304  0.82225812  0.87833640  1  -1.279657  0  -0.590348  -0.612166  0  3.347602  0
O  O124  1  0.35822229  0.79004211  0.80050490  1  -1.263611  0  -0.240505  -0.608869  0  2.378335  0
O  O125  1  0.62924888  0.19807800  0.21046538  1  -1.260268  0  -0.240794  -0.607689  0  2.36752  0
O  O126  1  0.71342039  0.79200734  0.69559962  1  -1.2642  0  -0.240128  -0.590481  0  2.320724  0
O  O127  1  0.30572432  0.20226079  0.29738014  1  -1.260814  0  -0.237149  -0.589073  0  2.325602  0
O  O128  1  0.88626710  0.69658314  0.70377782  1  -1.255787  0  -0.230653  -0.58375  0  2.353548  0
O  O129  1  0.13181701  0.29644937  0.30369774  1  -1.257558  0  -0.22917  -0.578861  0  2.354445  0
O  O130  1  0.69318825  0.80235201  0.79128654  1  -1.263381  0  -0.245506  -0.609711  0  2.326445  0
O  O131  1  0.29180898  0.20657749  0.20147669  1  -1.260385  0  -0.244366  -0.604144  0  2.34018  0
O  O132  1  0.86485397  0.70341266  0.79823860  1  -1.251768  0  -0.239257  -0.596702  0  2.338277  0
O  O133  1  0.12346611  0.30596520  0.20865812  1  -1.261672  0  -0.236615  -0.596866  0  2.333585  0
O  O134  1  0.37740745  0.80037571  0.70692766  1  -1.272732  0  -0.238314  -0.606038  0  2.39543  0
O  O135  1  0.64258055  0.21117010  0.30291142  1  -1.273616  0  -0.236785  -0.595535  0  2.371181  0
O  O136  1  0.54401884  0.71508329  0.74793154  1  -1.452801  0  -0.446922  -0.991622  0  2.200603  0
O  O137  1  0.45983207  0.28612548  0.25071408  1  -1.422021  0  -0.446566  -0.988033  0  2.193724  0
O  O138  1  0.20323255  0.69350686  0.78922379  1  -1.251773  0  -0.239672  -0.607687  0  2.3739  0
O  O139  1  0.78555837  0.29764864  0.20110348  1  -1.249874  0  -0.240824  -0.6056  0  2.356437  0
O  O140  1  0.22260250  0.70499949  0.69501210  1  -1.240514  0  -0.23148  -0.581199  0  2.345196  0
O  O141  1  0.79541806  0.30642361  0.29572216  1  -1.24529  0  -0.230488  -0.583998  0  2.363676  0
O  O142  1  0.03732164  0.78126178  0.74871148  1  -1.42261  0  -0.448251  -0.989717  0  2.196999  0
O  O143  1  0.96678618  0.21967622  0.25044126  1  -1.442125  0  -0.44987  -0.976925  0  2.180914  0
F  F144  1  0.82741983  0.05310789  0.40095874  1  -0.632915  0  -0.09348  -0.130697  0  1.398508  0
F  F145  1  0.17596187  0.94516714  0.59691748  1  -0.633282  0  -0.092197  -0.130347  0  1.398754  0
F  F146  1  0.16860980  0.00363405  0.44436540  1  -0.632973  0  -0.102891  -0.145055  0  1.364531  0
F  F147  1  0.83397645  0.99561885  0.55352617  1  -0.634124  0  -0.101909  -0.143461  0  1.365063  0
F  F148  1  0.15001354  0.10396540  0.05836680  1  -0.635635  0  -0.115502  -0.153539  0  1.323329  0
F  F149  1  0.85374416  0.94232200  0.90614453  1  -0.634172  0  -0.116196  -0.156588  0  1.327755  0
F  F150  1  0.48916102  0.96339916  0.09211608  1  -0.621228  0  -0.098439  -0.1164  0  1.354568  0
F  F151  1  0.51099882  0.03064542  0.91288277  1  -0.607419  0  -0.090255  -0.104511  0  1.351543  0
F  F152  1  0.51267757  0.89193071  0.02253958  1  -0.619216  0  -0.098819  -0.115972  0  1.349383  0
F  F153  1  0.48500617  0.10241498  0.98263079  1  -0.616575  0  -0.089654  -0.104196  0  1.354739  0
F  F154  1  0.40037446  0.62276470  0.64971317  1  -0.629485  0  -0.084706  -0.125929  0  1.371197  0
F  F155  1  0.60852916  0.37839851  0.34994182  1  -0.623687  0  -0.083581  -0.125647  0  1.375923  0
F  F156  1  0.38740839  0.61931827  0.83877186  1  -0.633092  0  -0.091996  -0.138134  0  1.360968  0
F  F157  1  0.60930820  0.38186408  0.16119011  1  -0.630901  0  -0.092872  -0.140458  0  1.356113  0
F  F158  1  0.34663108  0.55436672  0.98868867  1  -0.638441  0  -0.101838  -0.149293  0  1.352269  0
F  F159  1  0.64980579  0.44666669  0.01109760  1  -0.636172  0  -0.101061  -0.14816  0  1.352159  0
