# generated using pymatgen
data_Zn4H6C24S4N2O19
_symmetry_space_group_name_H-M   'P 1'
_cell_length_a   19.63099595
_cell_length_b   19.66185658
_cell_length_c   33.28355986
_cell_angle_alpha   79.30727965
_cell_angle_beta   79.40056493
_cell_angle_gamma   64.07182327
_symmetry_Int_Tables_number   1
_chemical_formula_structural   Zn4H6C24S4N2O19
_chemical_formula_sum   'Zn16 H24 C96 S16 N8 O76'
_cell_volume   11276.01108060
_cell_formula_units_Z   4
loop_
 _symmetry_equiv_pos_site_id
 _symmetry_equiv_pos_as_xyz
  1  'x, y, z'
loop_
 _atom_site_type_symbol
 _atom_site_label
 _atom_site_symmetry_multiplicity
 _atom_site_fract_x
 _atom_site_fract_y
 _atom_site_fract_z
 _atom_site_occupancy
 _atom_site_pbe_bader_charge
 _atom_site_pbe_bader_spin_density
 _atom_site_pbe_cm5_charge
 _atom_site_pbe_ddec_charge
 _atom_site_pbe_ddec_spin_density
 _atom_site_pbe_ddec_sum_bond_order
 _atom_site_pbe_magmom
Zn  Zn0  1  0.05853256  0.40031383  0.47827250  1  1.315395  0  0.670768  0.968128  0  2.349713  0
Zn  Zn1  1  0.98240525  0.48346807  0.56035431  1  1.3161  0  0.675104  0.956163  0  2.38395  0
Zn  Zn2  1  0.06036031  0.55987990  0.48195022  1  1.324326  0  0.678554  0.970313  0  2.355703  0
Zn  Zn3  1  0.89936522  0.55449155  0.48039133  1  1.323365  0  0.678524  0.96999  0  2.357735  0
Zn  Zn4  1  0.69429223  0.35140897  0.26977589  1  1.319922  0  0.672038  0.968368  0  2.351551  0
Zn  Zn5  1  0.69096770  0.18857430  0.26772320  1  1.315349  0  0.671621  0.964274  0  2.362424  0
Zn  Zn6  1  0.76731143  0.26914736  0.18966713  1  1.323855  0  0.678962  0.971687  0  2.347199  0
Zn  Zn7  1  0.84744422  0.19232967  0.27309335  1  1.322806  0  0.680384  0.969219  0  2.355685  0
Zn  Zn8  1  0.26601843  0.76844483  0.68974422  1  1.315309  0  0.672803  0.9612  0  2.372938  0
Zn  Zn9  1  0.34899981  0.69369573  0.77192367  1  1.31785  0  0.673775  0.961563  0  2.378119  0
Zn  Zn10  1  0.19317988  0.84925571  0.77083701  1  1.323254  0  0.676848  0.974431  0  2.353626  0
Zn  Zn11  1  0.19317517  0.68585763  0.76777505  1  1.324067  0  0.680972  0.9737  0  2.35105  0
Zn  Zn12  1  0.56261021  0.05836609  0.98245978  1  1.315176  0  0.672619  0.964906  0  2.360515  0
Zn  Zn13  1  0.39928950  0.05604580  0.97958541  1  1.314227  0  0.673482  0.963412  0  2.357756  0
Zn  Zn14  1  0.55760419  0.90249209  0.97746306  1  1.321391  0  0.678178  0.975267  0  2.351545  0
Zn  Zn15  1  0.47995465  0.98466982  0.06033258  1  1.323112  0  0.679122  0.974382  0  2.347118  0
H  H16  1  0.74827062  0.45268389  0.35066532  1  0.138868  0  0.128759  0.148042  0  0.964526  0
H  H17  1  0.00144933  0.29663049  0.39995255  1  0.138162  0  0.129717  0.148939  0  0.963927  0
H  H18  1  0.20145730  0.70035897  0.59856382  1  0.118541  0  0.128573  0.148035  0  0.965097  0
H  H19  1  0.05020049  0.54903539  0.65090965  1  0.14038  0  0.130167  0.150674  0  0.963402  0
H  H20  1  0.46474271  0.23992142  0.34075478  1  0.127698  0  0.122635  0.148145  0  0.965295  0
H  H21  1  0.47862479  0.70242921  0.60120820  1  0.109685  0  0.123715  0.149082  0  0.962971  0
H  H22  1  0.20272691  0.98024264  0.60097612  1  0.13077  0  0.123363  0.149023  0  0.96515  0
H  H23  1  0.94849703  0.96772011  0.34903225  1  0.142786  0  0.125626  0.151927  0  0.960034  0
H  H24  1  0.65115405  0.15194904  0.04946139  1  0.126003  0  0.128566  0.14719  0  0.966103  0
H  H25  1  0.59823896  0.09870132  0.20072579  1  0.122603  0  0.129916  0.149331  0  0.964594  0
H  H26  1  0.54858653  0.77302560  0.14762305  1  0.124056  0  0.125602  0.152612  0  0.96119  0
H  H27  1  0.15909089  0.14263186  0.04139593  1  0.113817  0  0.122429  0.147553  0  0.965147  0
H  H28  1  0.29721878  0.00221385  0.89955101  1  0.158107  0  0.129063  0.14841  0  0.963855  0
H  H29  1  0.45226193  0.74960634  0.85007079  1  0.178964  0  0.130191  0.150142  0  0.963572  0
H  H30  1  0.30166617  0.27907917  0.90206176  1  0.144383  0  0.12381  0.14894  0  0.963736  0
H  H31  1  0.79030119  0.00906462  0.90799694  1  0.117139  0  0.122775  0.147237  0  0.965921  0
H  H32  1  0.32567057  0.54246601  0.39934952  1  0.619866  0  0.344876  0.370364  0  0.860244  0
H  H33  1  0.75526268  0.54073343  0.68511180  1  0.599485  0  0.341746  0.36653  0  0.867046  0
H  H34  1  0.04054194  0.25774527  0.68360305  1  0.621509  0  0.342608  0.368205  0  0.865374  0
H  H35  1  0.74418141  0.81029114  0.38825790  1  0.612128  0  0.344425  0.369769  0  0.861497  0
H  H36  1  0.70785726  0.49431280  0.06513666  1  0.61253  0  0.345153  0.371279  0  0.859998  0
H  H37  1  0.14490866  0.07937105  0.22237946  1  0.591858  0  0.345849  0.372091  0  0.858465  0
H  H38  1  0.50836684  0.43277550  0.86277816  1  0.591999  0  0.34266  0.368429  0  0.865888  0
H  H39  1  0.92662204  0.70644892  0.84934757  1  0.607205  0  0.345567  0.371058  0  0.861091  0
C  C40  1  0.06240768  0.31681378  0.56159822  1  1.545183  0  0.213036  0.624094  0  4.216379  0
C  C41  1  0.07011418  0.56781671  0.56868426  1  1.61714  0  0.232847  0.605834  0  4.178923  0
C  C42  1  0.18478312  0.43935140  0.43744245  1  1.576296  0  0.2128  0.622156  0  4.219228  0
C  C43  1  0.93656194  0.68236557  0.43980129  1  1.547699  0  0.214166  0.622269  0  4.211986  0
C  C44  1  0.93140938  0.42860494  0.43248206  1  1.618343  0  0.23247  0.60888  0  4.17268  0
C  C45  1  0.81559998  0.56131761  0.56312769  1  1.556772  0  0.21327  0.6215  0  4.222694  0
C  C46  1  0.56697807  0.31152814  0.31089781  1  1.574258  0  0.217749  0.608895  0  4.221149  0
C  C47  1  0.67955206  0.18205164  0.18177057  1  1.606251  0  0.233637  0.608194  0  4.174152  0
C  C48  1  0.68970412  0.43615363  0.18717812  1  1.568098  0  0.213543  0.624048  0  4.213847  0
C  C49  1  0.93286593  0.18782514  0.19042918  1  1.565777  0  0.214523  0.622878  0  4.212006  0
C  C50  1  0.81670639  0.31910463  0.31975206  1  1.627748  0  0.23353  0.61132  0  4.168706  0
C  C51  1  0.81136299  0.06323704  0.31191888  1  1.569256  0  0.2181  0.608139  0  4.219405  0
C  C52  1  0.43258004  0.69004816  0.68835303  1  1.560825  0  0.218047  0.609266  0  4.219896  0
C  C53  1  0.31985801  0.81967476  0.81798352  1  1.617719  0  0.23294  0.608947  0  4.174033  0
C  C54  1  0.18745217  0.93478407  0.68794409  1  1.599587  0  0.21791  0.608065  0  4.221021  0
C  C55  1  0.06825276  0.80853813  0.81083645  1  1.549735  0  0.21492  0.624417  0  4.210877  0
C  C56  1  0.18380150  0.67927146  0.68081761  1  1.612512  0  0.23341  0.610615  0  4.170526  0
C  C57  1  0.31482691  0.56434850  0.81231904  1  1.571874  0  0.213558  0.621155  0  4.223282  0
C  C58  1  0.43897559  0.18262380  0.93889991  1  1.589166  0  0.218437  0.611141  0  4.217058  0
C  C59  1  0.43081835  0.93317273  0.93050456  1  1.62404  0  0.233464  0.611228  0  4.168527  0
C  C60  1  0.68711627  0.93827778  0.93821025  1  1.566999  0  0.21838  0.608529  0  4.218327  0
C  C61  1  0.56032720  0.81836047  0.06056445  1  1.560321  0  0.219845  0.610249  0  4.212085  0
C  C62  1  0.56767711  0.07080233  0.06843846  1  1.604504  0  0.234235  0.612269  0  4.169499  0
C  C63  1  0.31283765  0.06209618  0.06177586  1  1.593706  0  0.21809  0.608595  0  4.219316  0
C  C64  1  0.90206475  0.40266253  0.40230062  1  -0.006072  0  0.0064  -0.045917  0  3.908935  0
C  C65  1  0.84850076  0.34742854  0.34744020  1  0.194907  0  0.004529  -0.048291  0  3.914629  0
C  C66  1  0.83117895  0.44590951  0.38746078  1  0.206079  0  0.09479  0.070519  0  3.911677  0
C  C67  1  0.92020309  0.30496435  0.36148728  1  0.10601  0  0.094579  0.069366  0  3.913613  0
C  C68  1  0.80414249  0.41872687  0.36115004  1  -0.034125  0  -0.061573  -0.124898  0  3.912968  0
C  C69  1  0.94620105  0.33111715  0.38882661  1  0.09282  0  -0.060608  -0.122902  0  3.910292  0
C  C70  1  0.09795328  0.59904436  0.59695590  1  0.082271  0  0.006806  -0.043986  0  3.911758  0
C  C71  1  0.15189254  0.65222617  0.65259317  1  0.060396  0  0.003972  -0.050756  0  3.919279  0
C  C72  1  0.13999180  0.64268929  0.58301751  1  0.201668  0  0.094415  0.070094  0  3.916444  0
C  C73  1  0.10829668  0.61008837  0.66653430  1  0.182223  0  0.093914  0.070359  0  3.915991  0
C  C74  1  0.16761567  0.66782217  0.61004933  1  0.064853  0  -0.06121  -0.124622  0  3.914556  0
C  C75  1  0.08283428  0.58282052  0.63950233  1  -0.002847  0  -0.060295  -0.12461  0  3.911658  0
C  C76  1  0.30491062  0.45552482  0.40039391  1  0.602267  0  0.087167  0.277636  0  4.098769  0
C  C77  1  0.44762632  0.29682814  0.34871164  1  0.092082  0  -0.084531  -0.126263  0  3.951699  0
C  C78  1  0.25951358  0.41524796  0.41310326  1  -0.086391  0  -0.039343  -0.240156  0  3.933725  0
C  C79  1  0.49247007  0.33676338  0.33601377  1  -0.15494  0  -0.024554  -0.114327  0  3.977015  0
C  C80  1  0.37958095  0.33962091  0.37240717  1  -0.192544  0  -0.021738  0.01031  0  4.101411  0
C  C81  1  0.37381906  0.41171943  0.37712119  1  -0.203555  0  -0.038144  -0.156171  0  4.109348  0
C  C82  1  0.72537870  0.57608391  0.63085695  1  0.605981  0  0.083824  0.27379  0  4.102618  0
C  C83  1  0.52328782  0.67385670  0.62142772  1  0.011866  0  -0.083471  -0.12406  0  3.949647  0
C  C84  1  0.74150086  0.58593740  0.58808227  1  -0.107031  0  -0.038122  -0.239322  0  3.935135  0
C  C85  1  0.50750848  0.66458706  0.66382203  1  -0.112059  0  -0.024424  -0.113571  0  3.981381  0
C  C86  1  0.60262284  0.64213648  0.60924826  1  -0.169529  0  -0.020804  0.007812  0  4.100377  0
C  C87  1  0.64561181  0.60873159  0.64283640  1  -0.131402  0  -0.038736  -0.156346  0  4.118402  0
C  C88  1  0.07619520  0.22721048  0.62953433  1  0.601802  0  0.084316  0.275221  0  4.099396  0
C  C89  1  0.17334824  0.02506899  0.62095562  1  0.070094  0  -0.084045  -0.127051  0  3.952051  0
C  C90  1  0.08618918  0.24288104  0.58670476  1  -0.080662  0  -0.039986  -0.242246  0  3.938143  0
C  C91  1  0.16274997  0.00970740  0.66333958  1  -0.178134  0  -0.023597  -0.111989  0  3.977397  0
C  C92  1  0.14136526  0.10421454  0.60847264  1  -0.157051  0  -0.021295  0.010445  0  4.100011  0
C  C93  1  0.10761454  0.14754457  0.64181631  1  -0.200584  0  -0.038051  -0.15707  0  4.114578  0
C  C94  1  0.84227839  0.79802224  0.39808755  1  0.582531  0  0.086424  0.277095  0  4.101407  0
C  C95  1  0.90397189  0.94732315  0.35342758  1  -0.052395  0  -0.081215  -0.121651  0  3.939536  0
C  C96  1  0.91103629  0.75667548  0.41507914  1  -0.086486  0  -0.039361  -0.241384  0  3.935206  0
C  C97  1  0.83561232  0.98858949  0.33688835  1  -0.10612  0  -0.023889  -0.112104  0  3.972249  0
C  C98  1  0.90643488  0.87814858  0.37599968  1  -0.156483  0  -0.020636  0.008924  0  4.095685  0
C  C99  1  0.83983085  0.86786152  0.37586935  1  -0.143095  0  -0.0385  -0.156908  0  4.112705  0
C  C100  1  0.65347099  0.15180901  0.15207591  1  0.08635  0  0.00751  -0.043562  0  3.906224  0
C  C101  1  0.59797865  0.09669224  0.09808844  1  0.055457  0  0.00436  -0.051129  0  3.91641  0
C  C102  1  0.66834865  0.16515192  0.10920026  1  0.134821  0  0.094897  0.069936  0  3.912865  0
C  C103  1  0.58462697  0.08181327  0.14097775  1  0.170654  0  0.093764  0.070555  0  3.911856  0
C  C104  1  0.64028028  0.13948843  0.08264681  1  0.073018  0  -0.061296  -0.122833  0  3.913186  0
C  C105  1  0.61047340  0.10968198  0.16752455  1  0.087398  0  -0.059891  -0.12256  0  3.908463  0
C  C106  1  0.67396717  0.52576536  0.11915189  1  0.624035  0  0.086354  0.27778  0  4.098742  0
C  C107  1  0.57641285  0.72810153  0.12762497  1  0.084563  0  -0.081547  -0.122541  0  3.939883  0
C  C108  1  0.66466228  0.51010740  0.16203356  1  -0.132035  0  -0.039419  -0.241056  0  3.931963  0
C  C109  1  0.58528177  0.74339687  0.08515937  1  -0.224611  0  -0.02303  -0.114271  0  3.973469  0
C  C110  1  0.60795410  0.64890476  0.14009295  1  -0.138683  0  -0.02004  0.012088  0  4.09519  0
C  C111  1  0.64093190  0.60544515  0.10676205  1  -0.15354  0  -0.037835  -0.15832  0  4.111555  0
C  C112  1  0.07961928  0.12424290  0.17952758  1  0.57042  0  0.087384  0.278957  0  4.097195  0
C  C113  1  0.16714284  0.12569967  0.07381190  1  0.108805  0  -0.084373  -0.125848  0  3.952369  0
C  C114  1  0.00742998  0.16262171  0.16596820  1  -0.082307  0  -0.038178  -0.239868  0  3.930407  0
C  C115  1  0.23865564  0.08685856  0.08713888  1  -0.242635  0  -0.024167  -0.11487  0  3.976763  0
C  C116  1  0.10907585  0.13896159  0.10730437  1  -0.133177  0  -0.021033  0.007954  0  4.100501  0
C  C117  1  0.13776311  0.11042531  0.14566796  1  -0.204756  0  -0.037274  -0.156118  0  4.1067  0
C  C118  1  0.34620834  0.84902527  0.84794320  1  0.081341  0  0.007077  -0.045162  0  3.907468  0
C  C119  1  0.40227620  0.90176983  0.90274307  1  0.068532  0  0.004793  -0.049653  0  3.91619  0
C  C120  1  0.30318986  0.91971312  0.86282531  1  0.206185  0  0.095108  0.071713  0  3.911034  0
C  C121  1  0.44450099  0.83021249  0.88867503  1  0.152104  0  0.095286  0.072787  0  3.91193  0
C  C122  1  0.33083959  0.94642953  0.88906285  1  0.054435  0  -0.06056  -0.123043  0  3.910873  0
C  C123  1  0.41799757  0.80467398  0.86130054  1  -0.04279  0  -0.061104  -0.124517  0  3.911032  0
C  C124  1  0.40935812  0.44754306  0.85336244  1  0.587804  0  0.084611  0.275999  0  4.100045  0
C  C125  1  0.34638695  0.29917596  0.89773370  1  -0.023928  0  -0.082602  -0.123151  0  3.947154  0
C  C126  1  0.34008569  0.49009795  0.83706281  1  -0.128015  0  -0.038549  -0.240295  0  3.936209  0
C  C127  1  0.41485393  0.25730527  0.91405167  1  -0.136227  0  -0.024314  -0.114885  0  3.979259  0
C  C128  1  0.34391578  0.36873555  0.87578135  1  -0.156584  0  -0.020412  0.010095  0  4.096954  0
C  C129  1  0.41111605  0.37807657  0.87566821  1  -0.126124  0  -0.038085  -0.156429  0  4.114812  0
C  C130  1  0.94788583  0.79317185  0.84810983  1  0.531367  0  0.087473  0.278632  0  4.098371  0
C  C131  1  0.80697335  0.95208756  0.90028438  1  0.014925  0  -0.08442  -0.125793  0  3.950367  0
C  C132  1  0.99408511  0.83264656  0.83564128  1  -0.071505  0  -0.038874  -0.241106  0  3.933341  0
C  C133  1  0.76161022  0.91268768  0.91312506  1  -0.120437  0  -0.023923  -0.114629  0  3.975449  0
C  C134  1  0.87506210  0.90859717  0.87684991  1  -0.148461  0  -0.020336  0.010813  0  4.099144  0
C  C135  1  0.87978362  0.83694138  0.87196181  1  -0.173127  0  -0.037765  -0.157028  0  4.109447  0
S  S136  1  0.30111157  0.32483066  0.39685734  1  0.268477  0  0.073011  0.119436  0  2.751548  0
S  S137  1  0.45239613  0.42656927  0.35267588  1  0.236846  0  0.071013  0.116906  0  2.767202  0
S  S138  1  0.65980805  0.63445105  0.56292214  1  0.271488  0  0.083802  0.135296  0  2.745017  0
S  S139  1  0.58865842  0.61709707  0.68932089  1  0.23923  0  0.066726  0.110845  0  2.776097  0
S  S140  1  0.13362432  0.16089819  0.56193516  1  0.270051  0  0.075506  0.123487  0  2.75057  0
S  S141  1  0.11419861  0.09099649  0.68843986  1  0.242927  0  0.074785  0.121874  0  2.767375  0
S  S142  1  0.97166650  0.80301659  0.40400391  1  0.274136  0  0.083081  0.134286  0  2.743874  0
S  S143  1  0.77382056  0.94371894  0.34854703  1  0.230183  0  0.065604  0.109072  0  2.770584  0
S  S144  1  0.61611505  0.59225426  0.18668666  1  0.261934  0  0.074859  0.12168  0  2.744344  0
S  S145  1  0.63198345  0.66194544  0.06004760  1  0.247901  0  0.076209  0.125418  0  2.764255  0
S  S146  1  0.01091327  0.18144452  0.11247037  1  0.29346  0  0.081205  0.132011  0  2.744813  0
S  S147  1  0.23599934  0.06629274  0.14046796  1  0.284868  0  0.076136  0.125191  0  2.761263  0
S  S148  1  0.27804550  0.44534942  0.84894411  1  0.283858  0  0.084984  0.13603  0  2.744088  0
S  S149  1  0.47691997  0.30178863  0.90284036  1  0.227794  0  0.068229  0.112968  0  2.773695  0
S  S150  1  0.95450456  0.92209963  0.85295371  1  0.284533  0  0.079851  0.129786  0  2.74819  0
S  S151  1  0.80107333  0.82268597  0.89672115  1  0.253296  0  0.076113  0.125157  0  2.763423  0
N  N152  1  0.78171240  0.52438504  0.39746665  1  0.43521  0  0.061056  0.5194  0  4.247243  0
N  N153  1  0.97398026  0.23103406  0.34692459  1  0.434124  0  0.059802  0.518846  0  4.247798  0
N  N154  1  0.15537665  0.66732221  0.53877767  1  0.425464  0  0.060575  0.520726  0  4.24506  0
N  N155  1  0.08381676  0.59471733  0.71079104  1  0.409642  0  0.05997  0.519793  0  4.244025  0
N  N156  1  0.71692762  0.20511398  0.08930709  1  0.441886  0  0.060621  0.519292  0  4.243883  0
N  N157  1  0.54475369  0.03310540  0.16066198  1  0.419603  0  0.060002  0.519252  0  4.242854  0
N  N158  1  0.22466223  0.96941979  0.85278190  1  0.41548  0  0.060424  0.517951  0  4.249219  0
N  N159  1  0.51855734  0.77605443  0.90317783  1  0.431184  0  0.059989  0.518277  0  4.24619  0
O  O160  1  0.00052171  0.49893015  0.50003581  1  -1.234106  0  -0.570915  -1.03419  0  2.52586  0
O  O161  1  0.07394239  0.31546807  0.52240126  1  -1.163756  0  -0.326097  -0.557014  0  2.325219  0
O  O162  1  0.02254386  0.54026322  0.58550653  1  -1.159061  0  -0.302959  -0.524575  0  2.322585  0
O  O163  1  0.15284107  0.50787286  0.44600713  1  -1.159242  0  -0.312197  -0.523827  0  2.333424  0
O  O164  1  0.03275668  0.37578901  0.58060305  1  -1.15059  0  -0.314838  -0.527084  0  2.335825  0
O  O165  1  0.15769132  0.38887209  0.44793886  1  -1.175209  0  -0.326071  -0.556446  0  2.326958  0
O  O166  1  0.09731245  0.57106186  0.53107941  1  -1.161222  0  -0.30026  -0.526195  0  2.355409  0
O  O167  1  0.99995865  0.65989376  0.45469589  1  -1.169838  0  -0.32306  -0.550689  0  2.331649  0
O  O168  1  0.88326212  0.48569028  0.45015078  1  -1.159447  0  -0.301735  -0.528708  0  2.358376  0
O  O169  1  0.89458290  0.64626375  0.44436451  1  -1.137899  0  -0.312577  -0.524711  0  2.333554  0
O  O170  1  0.00128260  0.39013131  0.43777139  1  -1.166338  0  -0.303598  -0.528464  0  2.309293  0
O  O171  1  0.87459608  0.52186352  0.58180011  1  -1.158517  0  -0.313482  -0.525377  0  2.333873  0
O  O172  1  0.81436117  0.58182124  0.52423139  1  -1.152005  0  -0.32163  -0.548536  0  2.3332  0
O  O173  1  0.74928487  0.25050428  0.25019988  1  -1.233268  0  -0.5704  -1.033947  0  2.518723  0
O  O174  1  0.59964933  0.35709472  0.30429044  1  -1.174498  0  -0.320547  -0.547469  0  2.333486  0
O  O175  1  0.67198518  0.15585771  0.21946080  1  -1.15854  0  -0.305222  -0.529312  0  2.313756  0
O  O176  1  0.73040165  0.37716172  0.16881249  1  -1.158518  0  -0.312392  -0.525323  0  2.328644  0
O  O177  1  0.59216757  0.24655728  0.29796842  1  -1.175408  0  -0.31856  -0.540795  0  2.314302  0
O  O178  1  0.66843022  0.43714985  0.22610079  1  -1.158599  0  -0.326701  -0.558096  0  2.326628  0
O  O179  1  0.70547280  0.23132333  0.16651642  1  -1.15475  0  -0.300264  -0.527082  0  2.356975  0
O  O180  1  0.87494028  0.21662486  0.16999070  1  -1.158759  0  -0.323652  -0.55155  0  2.332086  0
O  O181  1  0.85085183  0.24860865  0.31564064  1  -1.161878  0  -0.30343  -0.531532  0  2.359897  0
O  O182  1  0.93144827  0.17952344  0.22951293  1  -1.171228  0  -0.311484  -0.524415  0  2.337461  0
O  O183  1  0.75781821  0.36824498  0.30356308  1  -1.170269  0  -0.304763  -0.53028  0  2.312401  0
O  O184  1  0.74311877  0.09298808  0.30218366  1  -1.168776  0  -0.323248  -0.552426  0  2.335106  0
O  O185  1  0.86007380  0.09196456  0.30208429  1  -1.1565  0  -0.312168  -0.531308  0  2.313937  0
O  O186  1  0.25046310  0.74968044  0.74995883  1  -1.232005  0  -0.571399  -1.034212  0  2.526584  0
O  O187  1  0.37426605  0.72056677  0.66860039  1  -1.166918  0  -0.317229  -0.539135  0  2.313594  0
O  O188  1  0.35962571  0.75033983  0.81212938  1  -1.162683  0  -0.303669  -0.527185  0  2.318838  0
O  O189  1  0.16659737  0.93436950  0.72673388  1  -1.175018  0  -0.318255  -0.543302  0  2.336046  0
O  O190  1  0.43289538  0.67916635  0.72749965  1  -1.172361  0  -0.321783  -0.548427  0  2.342564  0
O  O191  1  0.22740788  0.87690386  0.66854157  1  -1.174552  0  -0.31738  -0.539505  0  2.313868  0
O  O192  1  0.26129048  0.86691392  0.80109746  1  -1.165701  0  -0.301202  -0.529041  0  2.358918  0
O  O193  1  0.10135310  0.85377754  0.80648281  1  -1.146579  0  -0.32458  -0.553554  0  2.334401  0
O  O194  1  0.18260225  0.65037222  0.71822910  1  -1.162786  0  -0.302273  -0.530152  0  2.356852  0
O  O195  1  0.09361728  0.74574926  0.79562373  1  -1.155379  0  -0.312397  -0.52565  0  2.334431  0
O  O196  1  0.21012494  0.72802347  0.66430088  1  -1.163076  0  -0.30646  -0.531175  0  2.321213  0
O  O197  1  0.36264060  0.59418439  0.80159948  1  -1.16659  0  -0.315001  -0.528454  0  2.335099  0
O  O198  1  0.24602735  0.59304671  0.80343776  1  -1.164378  0  -0.321568  -0.547955  0  2.3333  0
O  O199  1  0.49969211  0.00073049  0.99985646  1  -1.229525  0  -0.570068  -1.033493  0  2.518158  0
O  O200  1  0.50400369  0.15683640  0.95224525  1  -1.170946  0  -0.321783  -0.550324  0  2.33864  0
O  O201  1  0.38185512  0.99229671  0.94643026  1  -1.169643  0  -0.305224  -0.530972  0  2.314504  0
O  O202  1  0.65795116  0.88973083  0.94857740  1  -1.159628  0  -0.318614  -0.543867  0  2.334294  0
O  O203  1  0.39323751  0.15038280  0.94491266  1  -1.169305  0  -0.317103  -0.539225  0  2.31303  0
O  O204  1  0.65781857  0.00637459  0.94757140  1  -1.167431  0  -0.317406  -0.540401  0  2.308348  0
O  O205  1  0.50126345  0.89852300  0.93499374  1  -1.165596  0  -0.303342  -0.531375  0  2.359124  0
O  O206  1  0.57088324  0.81839655  0.02138567  1  -1.152982  0  -0.318942  -0.544609  0  2.339205  0
O  O207  1  0.51696080  0.04650856  0.08346113  1  -1.16042  0  -0.302822  -0.531793  0  2.360755  0
O  O208  1  0.53057633  0.87650899  0.08032173  1  -1.165706  0  -0.313901  -0.535974  0  2.316301  0
O  O209  1  0.59505015  0.07670328  0.03084722  1  -1.157946  0  -0.305991  -0.530783  0  2.31642  0
O  O210  1  0.31273707  0.08258484  0.02297928  1  -1.174384  0  -0.317698  -0.540843  0  2.310434  0
O  O211  1  0.37147159  0.02185081  0.08088554  1  -1.176749  0  -0.319025  -0.545233  0  2.33642  0
O  O212  1  0.80268918  0.57448776  0.38045369  1  -0.412824  0  -0.122012  -0.308529  0  1.871086  0
O  O213  1  0.72162501  0.53358533  0.42001772  1  -0.439846  0  -0.1297  -0.319428  0  1.847461  0
O  O214  1  0.00501827  0.23338576  0.31121859  1  -0.425435  0  -0.123146  -0.310725  0  1.869182  0
O  O215  1  0.98627560  0.17383329  0.37238770  1  -0.429144  0  -0.129513  -0.318495  0  1.846974  0
O  O216  1  0.10100774  0.71824468  0.52222172  1  -0.42382  0  -0.121763  -0.310366  0  1.866934  0
O  O217  1  0.22212262  0.63790047  0.52294993  1  -0.41881  0  -0.128398  -0.317591  0  1.847704  0
O  O218  1  0.03390346  0.64934208  0.72750727  1  -0.416386  0  -0.124009  -0.31209  0  1.867135  0
O  O219  1  0.11234429  0.52789509  0.72661971  1  -0.416819  0  -0.129715  -0.319761  0  1.848411  0
O  O220  1  0.78613327  0.16927570  0.09103759  1  -0.43178  0  -0.121225  -0.309264  0  1.866338  0
O  O221  1  0.68445412  0.26905318  0.07071963  1  -0.42911  0  -0.128387  -0.317005  0  1.847513  0
O  O222  1  0.58011375  0.96417133  0.15810926  1  -0.417524  0  -0.125614  -0.314088  0  1.864371  0
O  O223  1  0.48118759  0.06502192  0.17971297  1  -0.429019  0  -0.127333  -0.316826  0  1.847001  0
O  O224  1  0.17425047  0.94906092  0.87006963  1  -0.420115  0  -0.121964  -0.309539  0  1.869096  0
O  O225  1  0.21583977  0.02898745  0.82980534  1  -0.421349  0  -0.128379  -0.317278  0  1.84859  0
O  O226  1  0.51641928  0.74532214  0.93899128  1  -0.427141  0  -0.125885  -0.315253  0  1.869044  0
O  O227  1  0.57561195  0.76313738  0.87757659  1  -0.424188  0  -0.128825  -0.317807  0  1.849903  0
O  O228  1  0.28438421  0.52664246  0.40966069  1  -1.107046  0  -0.326998  -0.391298  0  2.275431  0
O  O229  1  0.77979256  0.54015430  0.65684238  1  -1.112623  0  -0.332102  -0.396665  0  2.270567  0
O  O230  1  0.04063704  0.28187659  0.65524160  1  -1.1303  0  -0.329951  -0.395384  0  2.271805  0
O  O231  1  0.78642045  0.77332162  0.40307399  1  -1.093189  0  -0.32761  -0.392035  0  2.280545  0
O  O232  1  0.70979360  0.47091239  0.09365471  1  -1.107814  0  -0.32731  -0.392919  0  2.274979  0
O  O233  1  0.09048545  0.10330626  0.21976410  1  -1.078963  0  -0.32563  -0.39159  0  2.278937  0
O  O234  1  0.46629635  0.47094849  0.84823273  1  -1.080743  0  -0.332348  -0.398799  0  2.270988  0
O  O235  1  0.96756374  0.72252670  0.83846339  1  -1.090554  0  -0.325417  -0.390556  0  2.280885  0
