# generated using pymatgen
data_CdH6C10S2(N3Cl)2
_symmetry_space_group_name_H-M   'P 1'
_cell_length_a   5.67169837
_cell_length_b   6.58074057
_cell_length_c   11.32533829
_cell_angle_alpha   77.70681355
_cell_angle_beta   83.55170483
_cell_angle_gamma   73.21201375
_symmetry_Int_Tables_number   1
_chemical_formula_structural   CdH6C10S2(N3Cl)2
_chemical_formula_sum   'Cd1 H6 C10 S2 N6 Cl2'
_cell_volume   394.82798275
_cell_formula_units_Z   1
loop_
 _symmetry_equiv_pos_site_id
 _symmetry_equiv_pos_as_xyz
  1  'x, y, z'
loop_
 _atom_site_type_symbol
 _atom_site_label
 _atom_site_symmetry_multiplicity
 _atom_site_fract_x
 _atom_site_fract_y
 _atom_site_fract_z
 _atom_site_occupancy
 _atom_site_hle17_bader_spin_density
 _atom_site_hle17_ddec_charge
 _atom_site_hle17_ddec_spin_density
 _atom_site_hle17_ddec_sum_bond_order
 _atom_site_hle17_magmom
 _atom_site_hse06_10hf_bader_spin_density
 _atom_site_hse06_10hf_ddec_charge
 _atom_site_hse06_10hf_ddec_spin_density
 _atom_site_hse06_10hf_ddec_sum_bond_order
 _atom_site_hse06_10hf_magmom
 _atom_site_hse06_bader_spin_density
 _atom_site_hse06_ddec_charge
 _atom_site_hse06_ddec_spin_density
 _atom_site_hse06_ddec_sum_bond_order
 _atom_site_hse06_magmom
 _atom_site_pbe_bader_spin_density
 _atom_site_pbe_cm5_charge
 _atom_site_pbe_ddec_charge
 _atom_site_pbe_ddec_spin_density
 _atom_site_pbe_ddec_sum_bond_order
 _atom_site_pbe_magmom
Cd  Cd0  1  0.50001114  0.49999982  0.99999971  1  0  0.943436  0  1.995675  0  0  0.770388  0  2.452522  0  0  0.814659  0  2.417882  0  0  0.719584  0.739843  0  2.475442  0
H  H1  1  0.41655146  0.06118621  0.16918825  1  0  0.115511  0  0.9495  0  0  0.11776  0  1.020918  0  0  0.121107  0  1.018915  0  0  0.114996  0.115299  0  1.022526  0
H  H2  1  0.58344442  0.93881132  0.83081176  1  0  0.115551  0  0.949376  0  0  0.117739  0  1.020889  0  0  0.121088  0  1.01888  0  0  0.114982  0.115276  0  1.022492  0
H  H3  1  0.03710915  0.14192576  0.40753768  1  0  0.090656  0  0.958219  0  0  0.090345  0  1.031645  0  0  0.094295  0  1.028506  0  0  0.111851  0.087445  0  1.034057  0
H  H4  1  0.96286908  0.85808322  0.59246807  1  0  0.090673  0  0.958185  0  0  0.090335  0  1.031652  0  0  0.094283  0  1.028516  0  0  0.111828  0.087447  0  1.034054  0
H  H5  1  0.91066551  0.39822416  0.21019984  1  0  0.083809  0  0.987979  0  0  0.087964  0  1.059904  0  0  0.089798  0  1.059509  0  0  0.108329  0.086626  0  1.060226  0
H  H6  1  0.08933616  0.60177172  0.78979826  1  0  0.083812  0  0.988114  0  0  0.087983  0  1.060027  0  0  0.089816  0  1.059631  0  0  0.108331  0.086644  0  1.06034  0
C  C7  1  0.55527898  0.07868453  0.22287545  1  0  0.029136  0  3.648444  0  0  -0.005324  0  3.898677  0  0  -0.003762  0  3.916118  0  0  0.049195  -0.006346  0  3.88704  0
C  C8  1  0.44471153  0.92131294  0.77712135  1  0  0.02906  0  3.648682  0  0  -0.005388  0  3.898946  0  0  -0.003824  0  3.916397  0  0  0.04918  -0.006421  0  3.887297  0
C  C9  1  0.63463973  0.93549964  0.33052381  1  0  0.24437  0  3.808827  0  0  0.241656  0  4.091822  0  0  0.2486  0  4.108118  0  0  0.148614  0.236459  0  4.081128  0
C  C10  1  0.36535671  0.06449639  0.66948253  1  0  0.244456  0  3.809004  0  0  0.241768  0  4.091955  0  0  0.248692  0  4.108284  0  0  0.148632  0.236594  0  4.081228  0
C  C11  1  0.90021739  0.12267959  0.35326523  1  0  0.084945  0  3.689921  0  0  0.061593  0  3.956176  0  0  0.062818  0  3.972488  0  0  0.049769  0.06076  0  3.94521  0
C  C12  1  0.09976833  0.87731634  0.64673560  1  0  0.084831  0  3.689804  0  0  0.061511  0  3.956074  0  0  0.062738  0  3.972381  0  0  0.049713  0.060657  0  3.945116  0
C  C13  1  0.82883418  0.26530859  0.24541197  1  0  0.071005  0  3.684526  0  0  0.037528  0  3.940615  0  0  0.040823  0  3.959139  0  0  0.043255  0.035025  0  3.928567  0
C  C14  1  0.17117082  0.73468250  0.75459008  1  0  0.071032  0  3.684609  0  0  0.037491  0  3.940747  0  0  0.040793  0  3.959257  0  0  0.04325  0.034993  0  3.928687  0
C  C15  1  0.91208491  0.72520634  0.06559795  1  0  0.300718  0  4.010065  0  0  0.280145  0  4.314789  0  0  0.302203  0  4.329612  0  0  0.143203  0.265229  0  4.304267  0
C  C16  1  0.08792646  0.27479282  0.93440267  1  0  0.300574  0  4.009769  0  0  0.280007  0  4.314498  0  0  0.302064  0  4.32932  0  0  0.143162  0.265088  0  4.303987  0
S  S17  1  0.13996636  0.73755553  0.13675986  1  0  -0.322542  0  2.18456  0  0  -0.299054  0  2.517544  0  0  -0.31659  0  2.514512  0  0  -0.148076  -0.28674  0  2.519269  0
S  S18  1  0.86004251  0.26246297  0.86323485  1  0  -0.322417  0  2.184445  0  0  -0.298918  0  2.517389  0  0  -0.316449  0  2.514353  0  0  -0.148051  -0.286601  0  2.519102  0
N  N19  1  0.74405479  0.71527769  0.01561286  1  0  -0.54034  0  2.883947  0  0  -0.482921  0  3.160581  0  0  -0.504356  0  3.167894  0  0  -0.398356  -0.468255  0  3.15525  0
N  N20  1  0.25597021  0.28472296  0.98438056  1  0  -0.540309  0  2.883716  0  0  -0.482907  0  3.160356  0  0  -0.50434  0  3.167668  0  0  -0.398373  -0.468248  0  3.155037  0
N  N21  1  0.65368172  0.24403721  0.18204739  1  0  -0.254972  0  3.254535  0  0  -0.182301  0  3.512129  0  0  -0.197642  0  3.533316  0  0  -0.301921  -0.171636  0  3.497504  0
N  N22  1  0.34631409  0.75596021  0.81794645  1  0  -0.255018  0  3.254715  0  0  -0.182293  0  3.512263  0  0  -0.19764  0  3.533463  0  0  -0.301959  -0.17163  0  3.497636  0
N  N23  1  0.80095876  0.95757517  0.39654568  1  0  -0.302629  0  3.096509  0  0  -0.278393  0  3.366315  0  0  -0.28601  0  3.379534  0  0  -0.30226  -0.272807  0  3.357277  0
N  N24  1  0.19902394  0.04243043  0.60345230  1  0  -0.302638  0  3.096299  0  0  -0.278413  0  3.366088  0  0  -0.286023  0  3.379312  0  0  -0.30221  -0.272842  0  3.357057  0
Cl  Cl25  1  0.51124873  0.71872154  0.38101788  1  0  -0.071369  0  1.343571  0  0  -0.054163  0  1.571959  0  0  -0.058585  0  1.566753  0  0  0.021652  -0.05093  0  1.575749  0
Cl  Cl26  1  0.48873909  0.28127932  0.61898659  1  0  -0.07134  0  1.343645  0  0  -0.05414  0  1.572021  0  0  -0.058556  0  1.566823  0  0  0.021678  -0.050928  0  1.575802  0
