# generated using pymatgen
data_CdH13C20NO5
_symmetry_space_group_name_H-M   'P 1'
_cell_length_a   7.64498895
_cell_length_b   10.11967326
_cell_length_c   12.12930788
_cell_angle_alpha   84.05958949
_cell_angle_beta   83.82555357
_cell_angle_gamma   84.12530980
_symmetry_Int_Tables_number   1
_chemical_formula_structural   CdH13C20NO5
_chemical_formula_sum   'Cd2 H26 C40 N2 O10'
_cell_volume   923.97128603
_cell_formula_units_Z   2
loop_
 _symmetry_equiv_pos_site_id
 _symmetry_equiv_pos_as_xyz
  1  'x, y, z'
loop_
 _atom_site_type_symbol
 _atom_site_label
 _atom_site_symmetry_multiplicity
 _atom_site_fract_x
 _atom_site_fract_y
 _atom_site_fract_z
 _atom_site_occupancy
 _atom_site_hle17_bader_spin_density
 _atom_site_hle17_ddec_charge
 _atom_site_hle17_ddec_spin_density
 _atom_site_hle17_ddec_sum_bond_order
 _atom_site_hle17_magmom
 _atom_site_hse06_10hf_bader_spin_density
 _atom_site_hse06_10hf_ddec_charge
 _atom_site_hse06_10hf_ddec_spin_density
 _atom_site_hse06_10hf_ddec_sum_bond_order
 _atom_site_hse06_10hf_magmom
 _atom_site_hse06_bader_spin_density
 _atom_site_hse06_ddec_charge
 _atom_site_hse06_ddec_spin_density
 _atom_site_hse06_ddec_sum_bond_order
 _atom_site_hse06_magmom
 _atom_site_pbe_bader_spin_density
 _atom_site_pbe_cm5_charge
 _atom_site_pbe_ddec_charge
 _atom_site_pbe_ddec_spin_density
 _atom_site_pbe_ddec_sum_bond_order
 _atom_site_pbe_magmom
Cd  Cd0  1  0.25298462  0.48752046  0.47545933  1  0  1.174487  0  1.602374  0  0  0.989115  0  2.039982  0  0  1.050652  0  1.98532  0  0  0.775626  0.945325  0  2.077453  0
Cd  Cd1  1  0.74701404  0.51248129  0.52454315  1  0  1.174483  0  1.602394  0  0  0.9891  0  2.040009  0  0  1.050637  0  1.985347  0  0  0.775622  0.945311  0  2.07747  0
H  H2  1  0.99743104  0.69996901  0.34705055  1  0  0.095128  0  0.964969  0  0  0.10102  0  1.031039  0  0  0.104101  0  1.028051  0  0  0.114314  0.098848  0  1.033017  0
H  H3  1  0.00257305  0.30003280  0.65294585  1  0  0.095116  0  0.964982  0  0  0.10103  0  1.03103  0  0  0.104111  0  1.028045  0  0  0.114335  0.098861  0  1.033012  0
H  H4  1  0.94838702  0.94609020  0.29453941  1  0  0.104948  0  0.936822  0  0  0.117864  0  0.990144  0  0  0.120567  0  0.990253  0  0  0.109184  0.115853  0  0.990295  0
H  H5  1  0.05161977  0.05391164  0.70545436  1  0  0.104904  0  0.936851  0  0  0.117836  0  0.99017  0  0  0.12054  0  0.990277  0  0  0.109172  0.115823  0  0.990322  0
H  H6  1  0.14841398  0.09703502  0.36181622  1  0  0.098933  0  0.971755  0  0  0.108617  0  1.035355  0  0  0.110719  0  1.034808  0  0  0.104782  0.107334  0  1.035394  0
H  H7  1  0.85159142  0.90296680  0.63818011  1  0  0.098945  0  0.971698  0  0  0.108629  0  1.03532  0  0  0.110733  0  1.034772  0  0  0.104791  0.10734  0  1.035367  0
H  H8  1  0.40286712  0.74969995  0.53590321  1  0  0.088279  0  0.938573  0  0  0.098853  0  1.001081  0  0  0.10074  0  0.999488  0  0  0.120153  0.097351  0  1.00246  0
H  H9  1  0.59712718  0.25030477  0.46410010  1  0  0.088348  0  0.938419  0  0  0.098927  0  1.000936  0  0  0.100815  0  0.999343  0  0  0.120161  0.097419  0  1.002311  0
H  H10  1  0.37154484  0.12729266  0.48384073  1  0  0.108508  0  0.961458  0  0  0.118288  0  1.025621  0  0  0.121092  0  1.024284  0  0  0.103815  0.115952  0  1.02703  0
H  H11  1  0.62845518  0.87270911  0.51616002  1  0  0.108484  0  0.961422  0  0  0.118264  0  1.025599  0  0  0.121068  0  1.024262  0  0  0.1038  0.115926  0  1.027009  0
H  H12  1  0.61037176  0.48160230  0.79064527  1  0  0.103859  0  0.955787  0  0  0.112831  0  1.01763  0  0  0.115895  0  1.015494  0  0  0.103779  0.110647  0  1.019087  0
H  H13  1  0.38963043  0.51839350  0.20935336  1  0  0.103874  0  0.955723  0  0  0.112847  0  1.017563  0  0  0.115911  0  1.015427  0  0  0.10378  0.110665  0  1.01902  0
H  H14  1  0.76526733  0.37031377  0.95067501  1  0  0.113783  0  0.951921  0  0  0.125937  0  1.004784  0  0  0.128986  0  1.004704  0  0  0.106333  0.123747  0  1.005038  0
H  H15  1  0.23473192  0.62968400  0.04932528  1  0  0.11378  0  0.951924  0  0  0.125916  0  1.00481  0  0  0.128966  0  1.004729  0  0  0.106318  0.123726  0  1.005065  0
H  H16  1  0.55992387  0.99995899  0.90621633  1  0  0.1126  0  0.954495  0  0  0.121838  0  1.017366  0  0  0.125328  0  1.015834  0  0  0.105629  0.119287  0  1.018735  0
H  H17  1  0.44007415  0.00003767  0.09378541  1  0  0.112639  0  0.954441  0  0  0.121873  0  1.017314  0  0  0.125363  0  1.015782  0  0  0.105636  0.119329  0  1.018664  0
H  H18  1  0.40093902  0.11385981  0.74773744  1  0  0.101705  0  0.938149  0  0  0.111806  0  0.997633  0  0  0.115316  0  0.995  0  0  0.105703  0.109264  0  0.999568  0
H  H19  1  0.59906309  0.88613597  0.25226368  1  0  0.101721  0  0.938041  0  0  0.111828  0  0.997525  0  0  0.115339  0  0.994892  0  0  0.105685  0.109287  0  0.999463  0
H  H20  1  0.58938278  0.25881787  0.17420062  1  0  0.119631  0  0.933756  0  0  0.131751  0  0.98944  0  0  0.135374  0  0.987492  0  0  0.110241  0.129176  0  0.990912  0
H  H21  1  0.41061493  0.74118087  0.82580298  1  0  0.119627  0  0.933685  0  0  0.131664  0  0.989468  0  0  0.135287  0  0.987521  0  0  0.110188  0.129086  0  0.990935  0
H  H22  1  0.73501235  0.37688679  0.30278272  1  0  0.109471  0  0.996012  0  0  0.115655  0  1.06249  0  0  0.118936  0  1.060186  0  0  0.102775  0.113318  0  1.064108  0
H  H23  1  0.26498559  0.62310995  0.69722185  1  0  0.109394  0  0.996036  0  0  0.115614  0  1.062469  0  0  0.118895  0  1.060164  0  0  0.102725  0.113272  0  1.064104  0
H  H24  1  0.24545406  0.22066972  0.16162614  1  0  0.095914  0  0.948029  0  0  0.106321  0  1.008066  0  0  0.109676  0  1.005557  0  0  0.104244  0.103928  0  1.009849  0
H  H25  1  0.75454586  0.77933305  0.83837371  1  0  0.095914  0  0.948024  0  0  0.106327  0  1.008058  0  0  0.109681  0  1.005547  0  0  0.104237  0.103932  0  1.009839  0
H  H26  1  0.09904041  0.10666786  0.02674640  1  0  0.124826  0  0.954915  0  0  0.129862  0  1.020053  0  0  0.13434  0  1.017293  0  0  0.107239  0.126709  0  1.022025  0
H  H27  1  0.90095698  0.89333389  0.97325450  1  0  0.124809  0  0.954916  0  0  0.129844  0  1.020058  0  0  0.13432  0  1.017301  0  0  0.107212  0.12669  0  1.022029  0
C  C28  1  0.07815665  0.76956811  0.37586307  1  0  0.125603  0  3.678865  0  0  0.093303  0  3.931287  0  0  0.100384  0  3.950182  0  0  0.042833  0.088761  0  3.91828  0
C  C29  1  0.92184726  0.23043469  0.62413491  1  0  0.125575  0  3.678768  0  0  0.093226  0  3.931241  0  0  0.100305  0  3.950134  0  0  0.042761  0.088682  0  3.918241  0
C  C30  1  0.05228304  0.90641737  0.34702245  1  0  -0.103972  0  3.738595  0  0  -0.115725  0  3.990505  0  0  -0.122393  0  4.012365  0  0  -0.080807  -0.111443  0  3.975789  0
C  C31  1  0.94772254  0.09358346  0.65297230  1  0  -0.103895  0  3.738451  0  0  -0.115659  0  3.990367  0  0  -0.122331  0  4.01224  0  0  -0.080784  -0.111379  0  3.975655  0
C  C32  1  0.16156521  0.98984968  0.38509538  1  0  -0.053944  0  3.681092  0  0  -0.078221  0  3.924677  0  0  -0.076264  0  3.94431  0  0  -0.065233  -0.079254  0  3.911132  0
C  C33  1  0.83843877  0.01015314  0.61490012  1  0  -0.053914  0  3.681082  0  0  -0.0782  0  3.92465  0  0  -0.076245  0  3.944288  0  0  -0.065231  -0.079233  0  3.911112  0
C  C34  1  0.29579787  0.93560548  0.45148628  1  0  0.048213  0  3.811905  0  0  0.070655  0  4.043751  0  0  0.067186  0  4.068811  0  0  -0.004001  0.072597  0  4.027066  0
C  C35  1  0.70420313  0.06439930  0.54851253  1  0  0.048062  0  3.812252  0  0  0.070547  0  4.044052  0  0  0.067075  0  4.069118  0  0  -0.004049  0.072492  0  4.027361  0
C  C36  1  0.30676968  0.79735883  0.48070081  1  0  0.084643  0  3.667119  0  0  0.048107  0  3.914777  0  0  0.054414  0  3.934457  0  0  0.049169  0.043874  0  3.90181  0
C  C37  1  0.69323126  0.20264593  0.51929965  1  0  0.084558  0  3.666934  0  0  0.047958  0  3.914654  0  0  0.054278  0  3.934307  0  0  0.049145  0.043734  0  3.901675  0
C  C38  1  0.41835985  0.02145593  0.48530721  1  0  -0.108908  0  3.738385  0  0  -0.129457  0  3.986718  0  0  -0.132804  0  4.010394  0  0  -0.086416  -0.126963  0  3.970689  0
C  C39  1  0.58163891  0.97854584  0.51469197  1  0  -0.108849  0  3.73838  0  0  -0.129409  0  3.986697  0  0  -0.132757  0  4.010375  0  0  -0.086359  -0.126909  0  3.970665  0
C  C40  1  0.49423263  0.30513438  0.76021553  1  0  -0.101477  0  3.796116  0  0  -0.080547  0  4.033597  0  0  -0.091887  0  4.058382  0  0  -0.034114  -0.073242  0  4.016932  0
C  C41  1  0.50576834  0.69486041  0.23978408  1  0  -0.101415  0  3.795953  0  0  -0.080492  0  4.033461  0  0  -0.091832  0  4.058245  0  0  -0.034112  -0.073182  0  4.016791  0
C  C42  1  0.59710142  0.37662236  0.81779099  1  0  -0.037376  0  3.741253  0  0  -0.060221  0  3.989198  0  0  -0.057036  0  4.008763  0  0  -0.083022  -0.061997  0  3.975813  0
C  C43  1  0.40290076  0.62337344  0.18220765  1  0  -0.037433  0  3.741159  0  0  -0.060273  0  3.989089  0  0  -0.057091  0  4.008656  0  0  -0.082987  -0.062054  0  3.975711  0
C  C44  1  0.68445728  0.31456671  0.90686212  1  0  -0.20712  0  3.770347  0  0  -0.22395  0  4.016855  0  0  -0.231988  0  4.037822  0  0  -0.108694  -0.218718  0  4.002815  0
C  C45  1  0.31554488  0.68542909  0.09313735  1  0  -0.207115  0  3.77036  0  0  -0.223916  0  4.016876  0  0  -0.231954  0  4.037845  0  0  -0.108702  -0.218686  0  4.002836  0
C  C46  1  0.67001459  0.17857622  0.93781919  1  0  0.286971  0  3.787687  0  0  0.275473  0  4.051847  0  0  0.288026  0  4.067069  0  0  0.089475  0.266979  0  4.041363  0
C  C47  1  0.32998610  0.82142057  0.06218110  1  0  0.28701  0  3.787614  0  0  0.275429  0  4.05184  0  0  0.287983  0  4.067063  0  0  0.089427  0.266953  0  4.041336  0
C  C48  1  0.56785944  0.10574213  0.88114072  1  0  -0.190802  0  3.749172  0  0  -0.214715  0  4.012341  0  0  -0.221644  0  4.031417  0  0  -0.105708  -0.210266  0  3.999665  0
C  C49  1  0.43214269  0.89425366  0.11885957  1  0  -0.190876  0  3.749094  0  0  -0.214769  0  4.012292  0  0  -0.221698  0  4.031365  0  0  -0.105705  -0.21033  0  3.999632  0
C  C50  1  0.47953819  0.16931665  0.79344543  1  0  -0.030318  0  3.736715  0  0  -0.054811  0  3.986146  0  0  -0.050752  0  4.004157  0  0  -0.079103  -0.057244  0  3.973814  0
C  C51  1  0.52046384  0.83068014  0.20655397  1  0  -0.03034  0  3.73645  0  0  -0.054834  0  3.985868  0  0  -0.050776  0  4.003882  0  0  -0.079091  -0.057268  0  3.973539  0
C  C52  1  0.83724042  0.17747496  0.09304902  1  0  0.271011  0  3.796836  0  0  0.259914  0  4.062607  0  0  0.270841  0  4.07823  0  0  0.083691  0.252493  0  4.051893  0
C  C53  1  0.16275314  0.82252578  0.90695301  1  0  0.271093  0  3.796849  0  0  0.259962  0  4.062623  0  0  0.27089  0  4.078244  0  0  0.083711  0.252536  0  4.051917  0
C  C54  1  0.73318171  0.25172436  0.17073986  1  0  -0.181493  0  3.740733  0  0  -0.200758  0  3.992434  0  0  -0.207033  0  4.011935  0  0  -0.096328  -0.196626  0  3.979233  0
C  C55  1  0.26681440  0.74827637  0.82926449  1  0  -0.181428  0  3.740757  0  0  -0.200636  0  3.992487  0  0  -0.206912  0  4.011988  0  0  -0.096285  -0.1965  0  3.979277  0
C  C56  1  0.81562291  0.31712799  0.24340877  1  0  -0.042811  0  3.718301  0  0  -0.066643  0  3.965867  0  0  -0.064934  0  3.986421  0  0  -0.08321  -0.067511  0  3.951859  0
C  C57  1  0.18437836  0.68287377  0.75659439  1  0  -0.042785  0  3.718341  0  0  -0.066625  0  3.965843  0  0  -0.064913  0  3.986393  0  0  -0.083193  -0.067489  0  3.951836  0
C  C58  1  0.00036687  0.30610548  0.24072149  1  0  -0.080179  0  3.766467  0  0  -0.057752  0  3.999717  0  0  -0.067814  0  4.023732  0  0  -0.024323  -0.051241  0  3.983509  0
C  C59  1  0.99963339  0.69389428  0.75928024  1  0  -0.08024  0  3.766456  0  0  -0.057789  0  3.999698  0  0  -0.067852  0  4.02371  0  0  -0.024335  -0.05128  0  3.983491  0
C  C60  1  0.10205062  0.22971939  0.16263582  1  0  -0.051864  0  3.755552  0  0  -0.073614  0  4.001575  0  0  -0.071983  0  4.022018  0  0  -0.081195  -0.074454  0  3.987455  0
C  C61  1  0.89794947  0.77028240  0.83736245  1  0  -0.051889  0  3.755587  0  0  -0.073656  0  4.001618  0  0  -0.072024  0  4.02206  0  0  -0.081214  -0.074492  0  3.987491  0
C  C62  1  0.02136735  0.16596957  0.08785812  1  0  -0.178976  0  3.736711  0  0  -0.199801  0  3.991429  0  0  -0.205606  0  4.009988  0  0  -0.098437  -0.195872  0  3.978761  0
C  C63  1  0.97862863  0.83403318  0.91214196  1  0  -0.178978  0  3.736685  0  0  -0.199801  0  3.991415  0  0  -0.205607  0  4.009975  0  0  -0.098409  -0.195867  0  3.978742  0
C  C64  1  0.41174201  0.36964978  0.66065742  1  0  0.634889  0  3.916317  0  0  0.581695  0  4.207265  0  0  0.617471  0  4.201103  0  0  0.195758  0.557285  0  4.210713  0
C  C65  1  0.58825883  0.63034601  0.33934212  1  0  0.634811  0  3.916413  0  0  0.581607  0  4.207391  0  0  0.61739  0  4.201221  0  0  0.195664  0.557195  0  4.210836  0
C  C66  1  0.08864909  0.37101307  0.32233027  1  0  0.636477  0  3.916704  0  0  0.586964  0  4.207169  0  0  0.622521  0  4.200708  0  0  0.194482  0.562975  0  4.210477  0
C  C67  1  0.91135114  0.62898669  0.67767228  1  0  0.636568  0  3.916615  0  0  0.587021  0  4.207116  0  0  0.62258  0  4.200654  0  0  0.194538  0.563032  0  4.210425  0
N  N68  1  0.20281480  0.71685167  0.44257743  1  0  -0.353132  0  3.318202  0  0  -0.270128  0  3.582274  0  0  -0.293659  0  3.606412  0  0  -0.335515  -0.254238  0  3.565734  0
N  N69  1  0.79718617  0.28315311  0.55742221  1  0  -0.353044  0  3.317925  0  0  -0.26999  0  3.581996  0  0  -0.293524  0  3.606138  0  0  -0.335447  -0.254101  0  3.565454  0
O  O70  1  0.30522756  0.30910418  0.61484254  1  0  -0.615859  0  1.972299  0  0  -0.554766  0  2.215684  0  0  -0.582836  0  2.206148  0  0  -0.313166  -0.535227  0  2.221816  0
O  O71  1  0.69476875  0.69089557  0.38515941  1  0  -0.615849  0  1.972301  0  0  -0.554752  0  2.215711  0  0  -0.582822  0  2.206167  0  0  -0.313136  -0.535214  0  2.221845  0
O  O72  1  0.45314730  0.48694660  0.62009155  1  0  -0.687927  0  2.067939  0  0  -0.608974  0  2.32332  0  0  -0.640594  0  2.311387  0  0  -0.336649  -0.586385  0  2.330275  0
O  O73  1  0.54684801  0.51305116  0.37990896  1  0  -0.687808  0  2.067979  0  0  -0.608874  0  2.323391  0  0  -0.640496  0  2.311443  0  0  -0.33657  -0.586289  0  2.330341  0
O  O74  1  0.00124757  0.46269195  0.37696457  1  0  -0.679675  0  2.047038  0  0  -0.607618  0  2.304598  0  0  -0.639842  0  2.294209  0  0  -0.333181  -0.584867  0  2.31066  0
O  O75  1  0.99875517  0.53730882  0.62303777  1  0  -0.679679  0  2.046964  0  0  -0.607641  0  2.304586  0  0  -0.639866  0  2.294197  0  0  -0.333197  -0.584892  0  2.310653  0
O  O76  1  0.24978785  0.33374099  0.33613181  1  0  -0.627023  0  1.921729  0  0  -0.569926  0  2.157197  0  0  -0.597176  0  2.146153  0  0  -0.326501  -0.550926  0  2.164045  0
O  O77  1  0.75021109  0.66625877  0.66386999  1  0  -0.627041  0  1.921707  0  0  -0.569917  0  2.157167  0  0  -0.597165  0  2.146124  0  0  -0.326503  -0.550914  0  2.164014  0
O  O78  1  0.75776801  0.10734758  0.02187264  1  0  -0.30704  0  2.348588  0  0  -0.238241  0  2.576247  0  0  -0.256322  0  2.577226  0  0  -0.153627  -0.225231  0  2.574886  0
O  O79  1  0.24222951  0.89265318  0.97812833  1  0  -0.307121  0  2.348551  0  0  -0.23822  0  2.576168  0  0  -0.256301  0  2.577145  0  0  -0.153594  -0.225215  0  2.574807  0
