# generated using pymatgen
data_ZnH13C19N9O
_symmetry_space_group_name_H-M   'P 1'
_cell_length_a   9.57769677
_cell_length_b   15.29972357
_cell_length_c   13.94543613
_cell_angle_alpha   116.33721577
_cell_angle_beta   90.00081946
_cell_angle_gamma   90.00169766
_symmetry_Int_Tables_number   1
_chemical_formula_structural   ZnH13C19N9O
_chemical_formula_sum   'Zn4 H52 C76 N36 O4'
_cell_volume   1831.39049729
_cell_formula_units_Z   4
loop_
 _symmetry_equiv_pos_site_id
 _symmetry_equiv_pos_as_xyz
  1  'x, y, z'
loop_
 _atom_site_type_symbol
 _atom_site_label
 _atom_site_symmetry_multiplicity
 _atom_site_fract_x
 _atom_site_fract_y
 _atom_site_fract_z
 _atom_site_occupancy
 _atom_site_pbe_bader_charge
 _atom_site_pbe_bader_spin_density
 _atom_site_pbe_cm5_charge
 _atom_site_pbe_ddec_charge
 _atom_site_pbe_ddec_spin_density
 _atom_site_pbe_ddec_sum_bond_order
 _atom_site_pbe_magmom
Zn  Zn0  1  0.35579073  0.73117298  0.75059521  1  1.208593  0  0.71888  0.596786  0  2.432694  0
Zn  Zn1  1  0.85579685  0.26882955  0.74940335  1  1.208481  0  0.718866  0.596691  0  2.432799  0
Zn  Zn2  1  0.64419979  0.26882059  0.24939427  1  1.208352  0  0.71887  0.596719  0  2.432596  0
Zn  Zn3  1  0.14419159  0.73115969  0.25058557  1  1.208226  0  0.718872  0.596736  0  2.432706  0
H  H4  1  0.98740438  0.75505675  0.49287632  1  0.157772  0  0.112192  0.143198  0  1.005925  0
H  H5  1  0.48742343  0.24493397  0.00710517  1  0.157973  0  0.112204  0.143229  0  1.005979  0
H  H6  1  0.01257883  0.24493162  0.50710718  1  0.158164  0  0.112222  0.143247  0  1.005984  0
H  H7  1  0.51257857  0.75505829  0.99288872  1  0.158262  0  0.11222  0.143273  0  1.005998  0
H  H8  1  0.97977167  0.57324482  0.37270059  1  0.135346  0  0.104724  0.102871  0  1.032595  0
H  H9  1  0.47976750  0.42675002  0.12729008  1  0.135409  0  0.104692  0.102869  0  1.032597  0
H  H10  1  0.02024496  0.42675077  0.62728408  1  0.135414  0  0.104726  0.102878  0  1.032529  0
H  H11  1  0.52022407  0.57324745  0.87270979  1  0.13551  0  0.104706  0.102892  0  1.03255  0
H  H12  1  0.13745020  0.46230058  0.41160723  1  0.086248  0  0.10822  0.119443  0  1.013518  0
H  H13  1  0.63743793  0.53770667  0.08840231  1  0.086014  0  0.108233  0.119462  0  1.013299  0
H  H14  1  0.86258835  0.53770064  0.58837285  1  0.086273  0  0.10814  0.119347  0  1.013498  0
H  H15  1  0.36255781  0.46229438  0.91162288  1  0.086146  0  0.108178  0.119412  0  1.013611  0
H  H16  1  0.39019148  0.23878892  0.45771530  1  0.115178  0  0.109892  0.111707  0  1.025233  0
H  H17  1  0.89020546  0.76122015  0.04231251  1  0.115651  0  0.109896  0.1117  0  1.02521  0
H  H18  1  0.60980636  0.76123485  0.54229880  1  0.115227  0  0.109918  0.111757  0  1.025211  0
H  H19  1  0.10981012  0.23876314  0.95769520  1  0.115094  0  0.109898  0.111747  0  1.025125  0
H  H20  1  0.52507875  0.08793145  0.43071450  1  0.102294  0  0.111096  0.120178  0  0.983372  0
H  H21  1  0.02510087  0.91208250  0.06931754  1  0.102427  0  0.11097  0.120016  0  0.983481  0
H  H22  1  0.47488880  0.91207807  0.56930453  1  0.102637  0  0.110954  0.119987  0  0.983431  0
H  H23  1  0.97490845  0.08791077  0.93068686  1  0.102415  0  0.110968  0.119957  0  0.983415  0
H  H24  1  0.68060004  0.40568604  0.70827214  1  0.122159  0  0.11801  0.088124  0  1.02754  0
H  H25  1  0.18059015  0.59433483  0.79172712  1  0.122212  0  0.118032  0.088237  0  1.027411  0
H  H26  1  0.31941033  0.59432525  0.29173336  1  0.122059  0  0.117997  0.088168  0  1.027503  0
H  H27  1  0.81942334  0.40566950  0.20826083  1  0.122273  0  0.118051  0.088286  0  1.027506  0
H  H28  1  0.72920942  0.10513265  0.55046056  1  0.114604  0  0.122252  0.097871  0  0.994999  0
H  H29  1  0.22919307  0.89488114  0.94955130  1  0.114753  0  0.122252  0.097816  0  0.994882  0
H  H30  1  0.27078006  0.89487971  0.44955690  1  0.114896  0  0.122214  0.097877  0  0.994814  0
H  H31  1  0.77080998  0.10511335  0.05044505  1  0.114789  0  0.122233  0.097872  0  0.99482  0
H  H32  1  0.14460927  0.35951658  0.79209266  1  0.149067  0  0.116992  0.087484  0  1.038413  0
H  H33  1  0.64459074  0.64049502  0.70791645  1  0.149075  0  0.117052  0.087497  0  1.038524  0
H  H34  1  0.85538856  0.64047652  0.20788010  1  0.148868  0  0.117023  0.087533  0  1.038461  0
H  H35  1  0.35538412  0.35950040  0.29208750  1  0.149239  0  0.117029  0.087512  0  1.038492  0
H  H36  1  0.37892372  0.30661573  0.82872833  1  0.08741  0  0.103365  0.10685  0  1.020566  0
H  H37  1  0.87891298  0.69339672  0.67129312  1  0.087712  0  0.103324  0.106876  0  1.020546  0
H  H38  1  0.62107725  0.69338235  0.17124241  1  0.08751  0  0.103351  0.106849  0  1.020629  0
H  H39  1  0.12107233  0.30660287  0.32870557  1  0.087404  0  0.103345  0.106838  0  1.020632  0
H  H40  1  0.40772865  0.13482529  0.80488346  1  0.115508  0  0.10953  0.113596  0  1.033255  0
H  H41  1  0.90772419  0.86518525  0.69513099  1  0.115571  0  0.109492  0.1135  0  1.033483  0
H  H42  1  0.59227127  0.86517296  0.19509310  1  0.116143  0  0.109612  0.113677  0  1.033188  0
H  H43  1  0.09224963  0.13481519  0.30487240  1  0.115512  0  0.10958  0.11364  0  1.033225  0
H  H44  1  0.98927321  0.07741435  0.68157815  1  0.164424  0  0.124884  0.097047  0  1.055631  0
H  H45  1  0.48927417  0.92261548  0.81842972  1  0.16341  0  0.124816  0.096905  0  1.055612  0
H  H46  1  0.01072045  0.92259874  0.31841455  1  0.164378  0  0.124858  0.096984  0  1.0557  0
H  H47  1  0.51072784  0.07740062  0.18159305  1  0.164164  0  0.124868  0.096939  0  1.055726  0
H  H48  1  0.76027390  0.87244750  0.97350259  1  0.569791  0  0.284737  0.353754  0  0.961498  0
H  H49  1  0.26028132  0.12753982  0.52650245  1  0.569579  0  0.284743  0.353764  0  0.96145  0
H  H50  1  0.23972811  0.12755126  0.02649214  1  0.569812  0  0.284706  0.353744  0  0.961524  0
H  H51  1  0.73973113  0.87245778  0.47350250  1  0.569772  0  0.284775  0.353808  0  0.961461  0
H  H52  1  0.67185460  0.93884380  0.07335336  1  0.613231  0  0.268384  0.331607  0  1.03397  0
H  H53  1  0.17184966  0.06115662  0.42663464  1  0.614647  0  0.268361  0.33156  0  1.034058  0
H  H54  1  0.32814532  0.06115699  0.92663655  1  0.614589  0  0.268355  0.331521  0  1.034126  0
H  H55  1  0.82814609  0.93884862  0.57336019  1  0.613113  0  0.268349  0.331603  0  1.033984  0
C  C56  1  0.14925714  0.73858611  0.59162433  1  0.506378  0  0.124847  0.176937  0  4.012858  0
C  C57  1  0.64926975  0.26142279  0.90837129  1  0.505582  0  0.124947  0.177165  0  4.012686  0
C  C58  1  0.85073443  0.26141445  0.40835759  1  0.505794  0  0.124908  0.176953  0  4.012906  0
C  C59  1  0.35073956  0.73857411  0.09163406  1  0.505782  0  0.124943  0.177088  0  4.012562  0
C  C60  1  0.05364402  0.70370160  0.50682046  1  -0.058252  0  -0.080986  -0.161587  0  3.893371  0
C  C61  1  0.55367197  0.29629793  0.99318433  1  -0.057988  0  -0.081063  -0.161819  0  3.893461  0
C  C62  1  0.94633919  0.29629131  0.49317086  1  -0.058338  0  -0.08103  -0.161748  0  3.893297  0
C  C63  1  0.44634675  0.70369772  0.00682762  1  -0.058457  0  -0.081087  -0.161881  0  3.893555  0
C  C64  1  0.04893772  0.60322984  0.44193390  1  -0.021902  0  -0.06586  -0.013521  0  3.957558  0
C  C65  1  0.54897467  0.39676485  0.05808253  1  -0.022102  0  -0.065951  -0.013658  0  3.957859  0
C  C66  1  0.95105071  0.39676115  0.55806587  1  -0.022046  0  -0.065998  -0.013613  0  3.957485  0
C  C67  1  0.45105135  0.60323106  0.94193887  1  -0.022134  0  -0.065913  -0.013517  0  3.957696  0
C  C68  1  0.13700797  0.54054172  0.46220311  1  0.004788  0  -0.082969  -0.160587  0  3.930834  0
C  C69  1  0.63703341  0.45946377  0.03781997  1  0.005019  0  -0.082948  -0.160435  0  3.930396  0
C  C70  1  0.86300448  0.45945628  0.53779056  1  0.004629  0  -0.082884  -0.160377  0  3.930606  0
C  C71  1  0.36299157  0.54053591  0.96220746  1  0.004491  0  -0.082881  -0.160479  0  3.930465  0
C  C72  1  0.22606676  0.58014302  0.55067624  1  0.467697  0  0.124052  0.173658  0  4.024567  0
C  C73  1  0.72607744  0.41986864  0.94933326  1  0.467452  0  0.124033  0.173543  0  4.024787  0
C  C74  1  0.77394151  0.41985841  0.44931111  1  0.468056  0  0.12407  0.173522  0  4.024822  0
C  C75  1  0.27393710  0.58012933  0.05068478  1  0.468543  0  0.124049  0.173665  0  4.024508  0
C  C76  1  0.32279893  0.52632196  0.58531643  1  0.959354  0  0.193796  0.21285  0  4.098043  0
C  C77  1  0.82281872  0.47368744  0.91470652  1  0.960118  0  0.193944  0.212952  0  4.098202  0
C  C78  1  0.67720935  0.47368555  0.41468232  1  0.9592  0  0.193701  0.2127  0  4.098333  0
C  C79  1  0.17720104  0.52630703  0.08531493  1  0.959044  0  0.193789  0.212807  0  4.098351  0
C  C80  1  0.45358720  0.42467171  0.60312065  1  0.95626  0  0.190672  0.242704  0  4.091427  0
C  C81  1  0.95357976  0.57534589  0.89689427  1  0.955543  0  0.190492  0.242572  0  4.090993  0
C  C82  1  0.54643151  0.57534459  0.39688356  1  0.95634  0  0.190568  0.242645  0  4.091235  0
C  C83  1  0.04642329  0.42464887  0.10311152  1  0.956144  0  0.19047  0.242576  0  4.091311  0
C  C84  1  0.17739736  0.84102125  0.66128881  1  0.964056  0  0.19002  0.198797  0  4.127769  0
C  C85  1  0.67742281  0.15898852  0.83872118  1  0.964084  0  0.18994  0.198714  0  4.12772  0
C  C86  1  0.82258272  0.15897976  0.33870910  1  0.964139  0  0.190038  0.199014  0  4.127535  0
C  C87  1  0.32259068  0.84100489  0.16128831  1  0.964031  0  0.190173  0.19888  0  4.127612  0
C  C88  1  0.20528537  0.99233498  0.72497735  1  0.931302  0  0.197218  0.245236  0  4.094845  0
C  C89  1  0.70527368  0.00767364  0.77502600  1  0.931202  0  0.197197  0.2453  0  4.094835  0
C  C90  1  0.79470516  0.00766524  0.27501804  1  0.931594  0  0.197102  0.245196  0  4.09464  0
C  C91  1  0.29471058  0.99231577  0.22496873  1  0.931102  0  0.19712  0.245254  0  4.094999  0
C  C92  1  0.52461130  0.33434450  0.58548469  1  0.027784  0  0.004363  0.002678  0  3.985449  0
C  C93  1  0.02460513  0.66567299  0.91453447  1  0.028185  0  0.004375  0.002791  0  3.985297  0
C  C94  1  0.47540115  0.66567056  0.41452684  1  0.027594  0  0.004372  0.002779  0  3.985254  0
C  C95  1  0.97540106  0.33432381  0.08546725  1  0.027508  0  0.004433  0.002966  0  3.985449  0
C  C96  1  0.48098773  0.24293632  0.50663415  1  -0.045413  0  -0.062379  -0.064351  0  3.905371  0
C  C97  1  0.98100243  0.75707804  0.99340188  1  -0.046803  0  -0.062491  -0.064625  0  3.905341  0
C  C98  1  0.51900071  0.75708116  0.49338639  1  -0.046203  0  -0.062582  -0.064817  0  3.90548  0
C  C99  1  0.01900584  0.24291898  0.00660783  1  -0.046014  0  -0.06258  -0.064906  0  3.905572  0
C  C100  1  0.55448074  0.15962724  0.49285457  1  -0.067437  0  -0.085362  -0.129348  0  3.990264  0
C  C101  1  0.05449277  0.84038712  0.00717727  1  -0.067622  0  -0.085181  -0.128985  0  3.990062  0
C  C102  1  0.44550456  0.84038272  0.50715462  1  -0.06721  0  -0.085091  -0.12873  0  3.98991  0
C  C103  1  0.94551864  0.15960927  0.99283574  1  -0.0672  0  -0.085008  -0.128529  0  3.989775  0
C  C104  1  0.64126583  0.33658053  0.64713849  1  0.477936  0  0.048762  0.049922  0  3.887822  0
C  C105  1  0.14124886  0.66343399  0.85286771  1  0.478192  0  0.04875  0.049619  0  3.887874  0
C  C106  1  0.35875080  0.66343200  0.35285969  1  0.478256  0  0.048778  0.049686  0  3.887563  0
C  C107  1  0.85875002  0.33656554  0.14712880  1  0.477801  0  0.048719  0.049431  0  3.887907  0
C  C108  1  0.66856221  0.16818727  0.55849945  1  0.489335  0  0.047016  0.089395  0  3.923294  0
C  C109  1  0.16855330  0.83182589  0.94151796  1  0.489554  0  0.047086  0.089611  0  3.923134  0
C  C110  1  0.33142623  0.83182194  0.44150868  1  0.488994  0  0.047008  0.089227  0  3.923069  0
C  C111  1  0.83144767  0.16817471  0.05849124  1  0.489459  0  0.046923  0.089168  0  3.923221  0
C  C112  1  0.16506501  0.28414909  0.77585777  1  0.443747  0  0.048419  0.089467  0  3.910123  0
C  C113  1  0.66504463  0.71586860  0.72416247  1  0.442631  0  0.04833  0.089515  0  3.910391  0
C  C114  1  0.83494117  0.71584780  0.22412175  1  0.443643  0  0.048324  0.089336  0  3.909849  0
C  C115  1  0.33494172  0.28412995  0.27585009  1  0.443568  0  0.048397  0.089511  0  3.910028  0
C  C116  1  0.29397645  0.25424089  0.79700189  1  -0.036512  0  -0.085957  -0.128178  0  3.997109  0
C  C117  1  0.79396449  0.74577009  0.70301571  1  -0.036124  0  -0.085804  -0.128173  0  3.996978  0
C  C118  1  0.70602973  0.74575357  0.20296790  1  -0.03643  0  -0.085962  -0.128187  0  3.996901  0
C  C119  1  0.20601873  0.25422542  0.29699115  1  -0.036126  0  -0.085846  -0.128049  0  3.996893  0
C  C120  1  0.31082235  0.15894175  0.78315601  1  -0.04502  0  -0.063232  -0.067544  0  3.914387  0
C  C121  1  0.81080937  0.84106761  0.71685058  1  -0.044716  0  -0.063172  -0.067378  0  3.913981  0
C  C122  1  0.68917653  0.84105287  0.21681960  1  -0.045643  0  -0.063361  -0.067672  0  3.914219  0
C  C123  1  0.18917281  0.15892477  0.28314767  1  -0.045071  0  -0.06329  -0.067721  0  3.914256  0
C  C124  1  0.19938091  0.09338200  0.74097226  1  0.021555  0  0.000607  -0.011845  0  4.003333  0
C  C125  1  0.69937049  0.90662533  0.75902914  1  0.02013  0  0.000523  -0.012075  0  4.003155  0
C  C126  1  0.80062214  0.90661125  0.25900559  1  0.021767  0  0.000642  -0.011868  0  4.003244  0
C  C127  1  0.30061063  0.09336568  0.24097135  1  0.02228  0  0.000575  -0.011919  0  4.002992  0
C  C128  1  0.07626957  0.12726874  0.71556149  1  0.501583  0  0.055518  0.071197  0  3.874108  0
C  C129  1  0.57625354  0.87274944  0.78444367  1  0.503925  0  0.055719  0.071686  0  3.87391  0
C  C130  1  0.92373349  0.87273125  0.28442591  1  0.501328  0  0.055638  0.071371  0  3.873811  0
C  C131  1  0.42373176  0.12725040  0.21556375  1  0.501885  0  0.055654  0.071595  0  3.873626  0
N  N132  1  0.48383995  0.51135458  0.68736347  1  -0.657366  0  -0.22797  -0.261451  0  3.208299  0
N  N133  1  0.98383008  0.48866194  0.81265056  1  -0.657075  0  -0.227884  -0.261332  0  3.208089  0
N  N134  1  0.51616206  0.48866038  0.31264443  1  -0.657257  0  -0.22794  -0.261395  0  3.208246  0
N  N135  1  0.01615836  0.51132765  0.18735072  1  -0.657407  0  -0.227888  -0.261285  0  3.208322  0
N  N136  1  0.35283052  0.43059000  0.53751191  1  -1.161986  0  -0.338192  -0.408199  0  3.168675  0
N  N137  1  0.85283810  0.56942415  0.96251210  1  -1.162224  0  -0.338185  -0.408204  0  3.168389  0
N  N138  1  0.64719550  0.56942261  0.46248917  1  -1.1624  0  -0.338218  -0.408199  0  3.168554  0
N  N139  1  0.14718166  0.43057166  0.03750566  1  -1.162473  0  -0.338177  -0.408214  0  3.168551  0
N  N140  1  0.39860593  0.57641067  0.67587732  1  -0.757049  0  -0.24492  -0.23782  0  3.482837  0
N  N141  1  0.89861810  0.42359681  0.82414517  1  -0.756891  0  -0.245021  -0.237893  0  3.482966  0
N  N142  1  0.60138877  0.42359836  0.32412427  1  -0.756499  0  -0.244779  -0.237648  0  3.482598  0
N  N143  1  0.10138391  0.57639237  0.17586740  1  -0.756695  0  -0.244925  -0.237892  0  3.483232  0
N  N144  1  0.23033627  0.67724633  0.61267477  1  -1.27487  0  -0.329998  -0.301702  0  3.544948  0
N  N145  1  0.73033085  0.32276839  0.88732101  1  -1.274421  0  -0.329892  -0.301536  0  3.545001  0
N  N146  1  0.76966678  0.32275562  0.38730564  1  -1.274689  0  -0.329884  -0.301476  0  3.545163  0
N  N147  1  0.26966071  0.67723118  0.11267696  1  -1.274318  0  -0.329929  -0.301589  0  3.54484  0
N  N148  1  0.26622512  0.86560350  0.74476652  1  -0.74155  0  -0.244894  -0.255948  0  3.445953  0
N  N149  1  0.76625155  0.13440688  0.75524687  1  -0.741268  0  -0.244976  -0.256053  0  3.445937  0
N  N150  1  0.73376018  0.13439676  0.25523032  1  -0.741704  0  -0.244989  -0.256135  0  3.445978  0
N  N151  1  0.23376612  0.86558659  0.24476480  1  -0.741774  0  -0.245123  -0.256231  0  3.445989  0
N  N152  1  0.28419669  0.96359014  0.78657791  1  -0.712754  0  -0.225432  -0.259101  0  3.27561  0
N  N153  1  0.78419571  0.03641806  0.71343137  1  -0.713093  0  -0.225278  -0.25899  0  3.275508  0
N  N154  1  0.71580114  0.03640920  0.21341206  1  -0.713083  0  -0.225322  -0.258964  0  3.275553  0
N  N155  1  0.21579481  0.96357144  0.28656699  1  -0.71318  0  -0.225269  -0.258932  0  3.275422  0
N  N156  1  0.13467545  0.91820984  0.64663961  1  -1.160508  0  -0.336885  -0.406285  0  3.189517  0
N  N157  1  0.63469099  0.08180143  0.85337092  1  -1.160439  0  -0.336895  -0.406318  0  3.18966  0
N  N158  1  0.86529733  0.08179504  0.35336797  1  -1.16034  0  -0.33687  -0.40639  0  3.18934  0
N  N159  1  0.36531206  0.91819184  0.14663348  1  -1.160155  0  -0.336894  -0.406274  0  3.189551  0
N  N160  1  0.05700155  0.22132848  0.73736779  1  -1.271155  0  -0.330693  -0.199092  0  3.573734  0
N  N161  1  0.55698411  0.77868893  0.76263727  1  -1.270963  0  -0.330823  -0.199406  0  3.573848  0
N  N162  1  0.94300255  0.77867170  0.26262615  1  -1.270847  0  -0.330648  -0.199011  0  3.573461  0
N  N163  1  0.44299911  0.22131088  0.23736941  1  -1.27133  0  -0.330827  -0.199431  0  3.573575  0
N  N164  1  0.71043027  0.25575724  0.63459350  1  -1.266759  0  -0.328976  -0.208383  0  3.605529  0
N  N165  1  0.21041413  0.74426073  0.86541623  1  -1.267102  0  -0.329041  -0.208529  0  3.605758  0
N  N166  1  0.28956443  0.74425045  0.36541179  1  -1.266913  0  -0.328954  -0.208247  0  3.605192  0
N  N167  1  0.78957639  0.25574248  0.13458341  1  -1.266794  0  -0.328934  -0.208228  0  3.60547  0
O  O168  1  0.66606348  0.88146737  0.00218854  1  -1.214668  0  -0.603698  -0.74833  0  1.981987  0
O  O169  1  0.16608164  0.11853612  0.49779952  1  -1.215853  0  -0.603677  -0.748279  0  1.98208  0
O  O170  1  0.33393957  0.11852776  0.99780523  1  -1.21605  0  -0.603653  -0.74824  0  1.982112  0
O  O171  1  0.83393917  0.88147835  0.50219094  1  -1.214482  0  -0.60371  -0.748369  0  1.981977  0
