# generated using pymatgen
data_Na2H7C6NO6
_symmetry_space_group_name_H-M   'P 1'
_cell_length_a   9.41743476
_cell_length_b   9.41747742
_cell_length_c   9.41745886
_cell_angle_alpha   90.00012114
_cell_angle_beta   90.00005660
_cell_angle_gamma   89.99986817
_symmetry_Int_Tables_number   1
_chemical_formula_structural   Na2H7C6NO6
_chemical_formula_sum   'Na8 H28 C24 N4 O24'
_cell_volume   835.22010410
_cell_formula_units_Z   4
loop_
 _symmetry_equiv_pos_site_id
 _symmetry_equiv_pos_as_xyz
  1  'x, y, z'
loop_
 _atom_site_type_symbol
 _atom_site_label
 _atom_site_symmetry_multiplicity
 _atom_site_fract_x
 _atom_site_fract_y
 _atom_site_fract_z
 _atom_site_occupancy
 _atom_site_pbe_bader_spin_density
 _atom_site_pbe_cm5_charge
 _atom_site_pbe_ddec_charge
 _atom_site_pbe_ddec_spin_density
 _atom_site_pbe_ddec_sum_bond_order
 _atom_site_pbe_magmom
Na  Na0  1  0.09327587  0.09327656  0.09327902  1  0  0.722634  0.855211  0  0.606997  0
Na  Na1  1  0.59327513  0.40672172  0.90671984  1  0  0.722609  0.855222  0  0.606999  0
Na  Na2  1  0.90672308  0.59327716  0.40672226  1  0  0.722605  0.855208  0  0.607031  0
Na  Na3  1  0.40672147  0.90672280  0.59327904  1  0  0.722626  0.85522  0  0.607035  0
Na  Na4  1  0.11567823  0.88432414  0.38432441  1  0  0.639308  0.848514  0  0.533143  0
Na  Na5  1  0.38432258  0.11567584  0.88432698  1  0  0.639296  0.848447  0  0.53319  0
Na  Na6  1  0.88432430  0.38432283  0.11567536  1  0  0.639299  0.848484  0  0.533167  0
Na  Na7  1  0.61567681  0.61567543  0.61567553  1  0  0.639301  0.848481  0  0.533181  0
H  H8  1  0.95419659  0.95419705  0.95419944  1  0  0.302763  0.208387  0  1.018958  0
H  H9  1  0.45419633  0.54580280  0.04580084  1  0  0.302754  0.208377  0  1.018976  0
H  H10  1  0.04580415  0.45419753  0.54579954  1  0  0.302733  0.208349  0  1.019016  0
H  H11  1  0.54580486  0.04579980  0.45419821  1  0  0.302735  0.208351  0  1.019009  0
H  H12  1  0.81540538  0.67861064  0.92586978  1  0  0.129595  0.138797  0  1.015595  0
H  H13  1  0.92586512  0.81540485  0.67861007  1  0  0.129599  0.138789  0  1.015609  0
H  H14  1  0.67860770  0.92587010  0.81540705  1  0  0.129597  0.138781  0  1.015593  0
H  H15  1  0.31540239  0.82139059  0.07413249  1  0  0.129589  0.138783  0  1.015605  0
H  H16  1  0.42586800  0.68459294  0.32138912  1  0  0.129596  0.138769  0  1.015594  0
H  H17  1  0.17860752  0.57412932  0.18459189  1  0  0.129599  0.138792  0  1.01563  0
H  H18  1  0.18459706  0.17860980  0.57413393  1  0  0.129598  0.138785  0  1.015604  0
H  H19  1  0.07413276  0.31540690  0.82138968  1  0  0.129612  0.138797  0  1.015585  0
H  H20  1  0.32139204  0.42586811  0.68459611  1  0  0.129598  0.138777  0  1.015616  0
H  H21  1  0.68459391  0.32138828  0.42587034  1  0  0.129592  0.138767  0  1.015552  0
H  H22  1  0.57412968  0.18459142  0.17861023  1  0  0.129575  0.138745  0  1.015573  0
H  H23  1  0.82139360  0.07413389  0.31540404  1  0  0.129559  0.138708  0  1.015677  0
H  H24  1  0.74196547  0.81103166  0.03778424  1  0  0.123527  0.124065  0  0.969504  0
H  H25  1  0.03778372  0.74196702  0.81103381  1  0  0.123523  0.124013  0  0.969505  0
H  H26  1  0.81103116  0.03778492  0.74196917  1  0  0.123497  0.124006  0  0.969463  0
H  H27  1  0.24196473  0.68896868  0.96221477  1  0  0.123521  0.12403  0  0.969517  0
H  H28  1  0.53778155  0.75803272  0.18896712  1  0  0.1235  0.124005  0  0.969455  0
H  H29  1  0.31103122  0.46221605  0.25803203  1  0  0.123504  0.124013  0  0.969456  0
H  H30  1  0.25803829  0.31103147  0.46221644  1  0  0.123526  0.124046  0  0.969527  0
H  H31  1  0.96221963  0.24196782  0.68896578  1  0  0.123495  0.123998  0  0.969515  0
H  H32  1  0.18896841  0.53778366  0.75803211  1  0  0.123496  0.123996  0  0.969461  0
H  H33  1  0.75803450  0.18896537  0.53778577  1  0  0.123526  0.124035  0  0.969573  0
H  H34  1  0.46222127  0.25803599  0.31103557  1  0  0.123516  0.124034  0  0.969525  0
H  H35  1  0.68897007  0.96221361  0.24196790  1  0  0.123477  0.123969  0  0.969477  0
C  C36  1  0.84022841  0.77472559  0.98659646  1  0  -0.05712  -0.22542  0  3.738822  0
C  C37  1  0.98659611  0.84023000  0.77472310  1  0  -0.057095  -0.225297  0  3.7387  0
C  C38  1  0.77472299  0.98659753  0.84023127  1  0  -0.057082  -0.225257  0  3.738507  0
C  C39  1  0.34022664  0.72527665  0.01340158  1  0  -0.057104  -0.225318  0  3.738733  0
C  C40  1  0.48659364  0.65976978  0.22527296  1  0  -0.057068  -0.225225  0  3.738614  0
C  C41  1  0.27472292  0.51340273  0.15976777  1  0  -0.057081  -0.225269  0  3.738529  0
C  C42  1  0.15977487  0.27472255  0.51340320  1  0  -0.057116  -0.225283  0  3.738632  0
C  C43  1  0.01340489  0.34022987  0.72527457  1  0  -0.057089  -0.225292  0  3.738665  0
C  C44  1  0.22527767  0.48659677  0.65977096  1  0  -0.057071  -0.225217  0  3.738574  0
C  C45  1  0.65976988  0.22527346  0.48659892  1  0  -0.057119  -0.225332  0  3.738723  0
C  C46  1  0.51340303  0.15977072  0.27472634  1  0  -0.057082  -0.225335  0  3.738588  0
C  C47  1  0.72527940  0.01340439  0.34022909  1  0  -0.057043  -0.2251  0  3.738422  0
C  C48  1  0.95078889  0.74734883  0.10383713  1  0  0.206744  0.629836  0  4.23033  0
C  C49  1  0.10383647  0.95078925  0.74733429  1  0  0.206676  0.629768  0  4.230499  0
C  C50  1  0.74733550  0.10384112  0.95078881  1  0  0.206656  0.629662  0  4.230655  0
C  C51  1  0.45078157  0.75266589  0.89615996  1  0  0.206679  0.62979  0  4.230358  0
C  C52  1  0.60383697  0.54921140  0.25265608  1  0  0.206679  0.62972  0  4.230464  0
C  C53  1  0.24733444  0.39615575  0.04921127  1  0  0.206691  0.629731  0  4.230596  0
C  C54  1  0.04921395  0.24734048  0.39616236  1  0  0.206655  0.629711  0  4.230316  0
C  C55  1  0.89615791  0.45078609  0.75265406  1  0  0.206747  0.629803  0  4.23023  0
C  C56  1  0.25266180  0.60383715  0.54921580  1  0  0.206737  0.629864  0  4.230149  0
C  C57  1  0.54921432  0.25266109  0.60384284  1  0  0.206691  0.629683  0  4.230628  0
C  C58  1  0.39615465  0.04921893  0.24733236  1  0  0.206793  0.630023  0  4.230159  0
C  C59  1  0.75266275  0.89615679  0.45079278  1  0  0.206671  0.629669  0  4.230689  0
N  N60  1  0.89012610  0.89012682  0.89012685  1  0  -0.354566  0.067075  0  3.625005  0
N  N61  1  0.39012576  0.60987318  0.10987018  1  0  -0.354599  0.066994  0  3.625048  0
N  N62  1  0.10987478  0.39012728  0.60987093  1  0  -0.354584  0.066975  0  3.625039  0
N  N63  1  0.60987421  0.10987202  0.39012901  1  0  -0.354554  0.067057  0  3.625027  0
O  O64  1  0.03715995  0.84677781  0.13156719  1  0  -0.403813  -0.66158  0  2.192545  0
O  O65  1  0.13156805  0.03716038  0.84677843  1  0  -0.403853  -0.6617  0  2.192138  0
O  O66  1  0.84678035  0.13156933  0.03716557  1  0  -0.403881  -0.661688  0  2.192247  0
O  O67  1  0.53716400  0.65321981  0.86842737  1  0  -0.403915  -0.661816  0  2.192043  0
O  O68  1  0.63156856  0.46283782  0.15321835  1  0  -0.403763  -0.661553  0  2.192432  0
O  O69  1  0.34678026  0.36843049  0.96283354  1  0  -0.403917  -0.661759  0  2.192203  0
O  O70  1  0.96283948  0.34677898  0.36843038  1  0  -0.403778  -0.661553  0  2.192284  0
O  O71  1  0.86843046  0.53716477  0.65321861  1  0  -0.403784  -0.661538  0  2.192373  0
O  O72  1  0.15322169  0.63157284  0.46283473  1  0  -0.403835  -0.66168  0  2.192149  0
O  O73  1  0.46283424  0.15321526  0.63156885  1  0  -0.403848  -0.661649  0  2.192285  0
O  O74  1  0.36842636  0.96284058  0.34678689  1  0  -0.404013  -0.661977  0  2.191884  0
O  O75  1  0.65322386  0.86843407  0.53716632  1  0  -0.403804  -0.661568  0  2.192338  0
O  O76  1  0.94260318  0.62828305  0.16493628  1  0  -0.435647  -0.665477  0  2.205178  0
O  O77  1  0.16493480  0.94260215  0.62828309  1  0  -0.435539  -0.665259  0  2.205649  0
O  O78  1  0.62828814  0.16493298  0.94260508  1  0  -0.435491  -0.665208  0  2.205774  0
O  O79  1  0.44259871  0.87171258  0.83506823  1  0  -0.435471  -0.665204  0  2.205691  0
O  O80  1  0.66493433  0.55739836  0.37171159  1  0  -0.43561  -0.665354  0  2.2053  0
O  O81  1  0.12829466  0.33506416  0.05740231  1  0  -0.435499  -0.665185  0  2.20578  0
O  O82  1  0.05740312  0.12828411  0.33506614  1  0  -0.435581  -0.665367  0  2.205359  0
O  O83  1  0.83506172  0.44259619  0.87170843  1  0  -0.435653  -0.665424  0  2.205197  0
O  O84  1  0.37171857  0.66493619  0.55740072  1  0  -0.435617  -0.665431  0  2.205365  0
O  O85  1  0.55739585  0.37170682  0.66493057  1  0  -0.435574  -0.665247  0  2.205672  0
O  O86  1  0.33506364  0.05740578  0.12829917  1  0  -0.435486  -0.665213  0  2.205792  0
O  O87  1  0.87171223  0.83507022  0.44260372  1  0  -0.435552  -0.66534  0  2.205807  0
