# generated using pymatgen
data_Al2H13C26Cl2O10F
_symmetry_space_group_name_H-M   'P 1'
_cell_length_a   6.64000511
_cell_length_b   11.16794158
_cell_length_c   17.74179667
_cell_angle_alpha   83.34661657
_cell_angle_beta   80.82076942
_cell_angle_gamma   72.91263836
_symmetry_Int_Tables_number   1
_chemical_formula_structural   Al2H13C26Cl2O10F
_chemical_formula_sum   'Al2 H13 C26 Cl2 O10 F1'
_cell_volume   1238.14406490
_cell_formula_units_Z   1
loop_
 _symmetry_equiv_pos_site_id
 _symmetry_equiv_pos_as_xyz
  1  'x, y, z'
loop_
 _atom_site_type_symbol
 _atom_site_label
 _atom_site_symmetry_multiplicity
 _atom_site_fract_x
 _atom_site_fract_y
 _atom_site_fract_z
 _atom_site_occupancy
 _atom_site_pbe_bader_charge
 _atom_site_pbe_bader_spin_density
 _atom_site_pbe_cm5_charge
 _atom_site_pbe_ddec_charge
 _atom_site_pbe_ddec_spin_density
 _atom_site_pbe_ddec_sum_bond_order
 _atom_site_pbe_magmom
Al  Al0  1  0.51200705  0.49488507  0.49262491  1  2.502281  0  0.397889  1.642322  0  2.572319  0
Al  Al1  1  0.01320988  0.49064221  0.49444453  1  2.504007  0  0.393267  1.647454  0  2.575126  0
H  H2  1  0.26493818  0.41791388  0.58550201  1  0.595343  0  0.349584  0.425867  0  0.863035  0
H  H3  1  0.72211513  0.63667739  0.43827462  1  0.64873  0  0.349661  0.432572  0  0.856139  0
H  H4  1  0.68559214  0.40776191  0.27214208  1  0.128856  0  0.111855  0.11904  0  0.989846  0
H  H5  1  0.77162866  0.40621703  0.13012690  1  0.089958  0  0.108129  0.114867  0  0.98678  0
H  H6  1  0.10664681  0.57830882  0.11027175  1  0.089249  0  0.10894  0.125099  0  0.991655  0
H  H7  1  0.80311783  0.60565905  0.87250525  1  0.095195  0  0.109536  0.127344  0  0.989578  0
H  H8  1  0.40456863  0.42958798  0.72210794  1  0.104859  0  0.107902  0.111331  0  1.004481  0
H  H9  1  0.31959031  0.42184723  0.86407424  1  0.068385  0  0.108803  0.116073  0  0.983515  0
H  H10  1  0.69516645  0.11641967  0.42626576  1  0.113449  0  0.118759  0.146793  0  0.980652  0
H  H11  1  0.24086244  0.09960415  0.62188823  1  0.049786  0  0.096384  0.103914  0  0.980542  0
H  H12  1  0.40986493  0.11115490  0.53434602  1  0.084952  0  0.098478  0.115386  0  0.998967  0
H  H13  1  0.52925756  0.87362848  0.53475693  1  0.084981  0  0.094974  0.112444  0  1.010039  0
H  H14  1  0.35748521  0.86406404  0.62200857  1  0.051197  0  0.096511  0.10716  0  0.979446  0
C  C15  1  0.86538936  0.26912336  0.49149199  1  1.594509  0  0.271071  0.644442  0  4.101282  0
C  C16  1  0.70261779  0.50634157  0.63196193  1  1.578777  0  0.26442  0.652895  0  4.093081  0
C  C17  1  0.15619416  0.72017507  0.48928084  1  1.539598  0  0.266964  0.665623  0  4.107118  0
C  C18  1  0.31361392  0.48545096  0.35697688  1  1.564729  0  0.267519  0.650121  0  4.097492  0
C  C19  1  0.35044341  0.48843363  0.27152213  1  0.151483  0  -0.012557  -0.096488  0  3.929293  0
C  C20  1  0.55989588  0.44251770  0.23576711  1  -0.139772  0  -0.076605  -0.07296  0  3.993121  0
C  C21  1  0.60814430  0.44238215  0.15674083  1  0.004182  0  -0.085513  -0.138174  0  3.954877  0
C  C22  1  0.44427364  0.49082740  0.11038633  1  0.079121  0  0.004315  0.158237  0  4.120098  0
C  C23  1  0.23394452  0.53817606  0.14540745  1  0.099614  0  -0.089919  -0.202312  0  3.93149  0
C  C24  1  0.18760141  0.53718648  0.22485506  1  -0.039854  0  0.023832  0.139267  0  4.03813  0
C  C25  1  0.48766049  0.49569682  0.02937915  1  -0.377254  0  -0.036846  -0.090647  0  4.093443  0
C  C26  1  0.52044502  0.50291824  0.95956136  1  0.023498  0  -0.042967  -0.107393  0  4.096691  0
C  C27  1  0.55999866  0.51010875  0.87851858  1  0.084695  0  0.006803  0.168622  0  4.112035  0
C  C28  1  0.71668517  0.56525219  0.83994575  1  0.02213  0  -0.090188  -0.206103  0  3.927061  0
C  C29  1  0.76194999  0.56962249  0.76033928  1  0.05993  0  0.02423  0.146088  0  4.023152  0
C  C30  1  0.65312665  0.51734968  0.71660028  1  0.006389  0  -0.018573  -0.11018  0  3.925844  0
C  C31  1  0.49167873  0.46697496  0.75610510  1  -0.05851  0  -0.080697  -0.074671  0  4.011479  0
C  C32  1  0.44410022  0.46268470  0.83509281  1  0.042588  0  -0.086035  -0.138947  0  3.954671  0
C  C33  1  0.94214956  0.13055282  0.48857156  1  -0.018782  0  -0.004501  -0.050968  0  3.990591  0
C  C34  1  0.08337627  0.85948751  0.48708362  1  0.081694  0  -0.017097  -0.196168  0  3.964842  0
C  C35  1  0.12136317  0.05829419  0.52085141  1  -0.02499  0  -0.005906  0.04769  0  3.891675  0
C  C36  1  0.90530389  0.93506326  0.45292354  1  0.414117  0  0.106727  0.27369  0  4.033247  0
C  C37  1  0.18773475  0.92770297  0.52032394  1  0.000524  0  0.000566  0.084747  0  3.893934  0
C  C38  1  0.83447678  0.06513386  0.45363354  1  0.061724  0  -0.093408  -0.238563  0  3.993404  0
C  C39  1  0.29601651  0.06253296  0.56516581  1  -0.015488  0  -0.150675  -0.194034  0  3.8656  0
C  C40  1  0.37047605  0.91427272  0.56518967  1  -0.057045  0  -0.15047  -0.198055  0  3.85963  0
Cl  Cl41  1  0.92682048  0.60502548  0.26199460  1  -0.180949  0  0.019275  -0.048085  0  1.5418  0
Cl  Cl42  1  0.95047744  0.64576038  0.72008802  1  -0.182934  0  0.004532  -0.062058  0  1.515823  0
O  O43  1  0.67499478  0.32383851  0.47947773  1  -1.261635  0  -0.230424  -0.575013  0  2.323595  0
O  O44  1  0.88354950  0.51448978  0.59952778  1  -1.255371  0  -0.237338  -0.599518  0  2.40028  0
O  O45  1  0.02292637  0.66285641  0.48039708  1  -1.252527  0  -0.2371  -0.607728  0  2.38418  0
O  O46  1  0.45749003  0.50663538  0.38875762  1  -1.246371  0  -0.232056  -0.584002  0  2.338591  0
O  O47  1  0.34884796  0.66896620  0.50057703  1  -1.252212  0  -0.234972  -0.5885  0  2.315121  0
O  O48  1  0.14526745  0.46196266  0.39146824  1  -1.253045  0  -0.231578  -0.582079  0  2.363815  0
O  O49  1  0.99734192  0.32214178  0.50749309  1  -1.254431  0  -0.227945  -0.577821  0  2.337938  0
O  O50  1  0.56070443  0.48448227  0.59905366  1  -1.264101  0  -0.239828  -0.605365  0  2.343098  0
O  O51  1  0.27500406  0.43897137  0.53075530  1  -1.399546  0  -0.447841  -0.988291  0  2.197704  0
O  O52  1  0.74988156  0.55040237  0.45978581  1  -1.445857  0  -0.449134  -0.998124  0  2.215522  0
F  F53  1  0.79485806  0.88028918  0.41552925  1  -0.639858  0  -0.100752  -0.146835  0  1.350707  0
