# generated using pymatgen
data_CoH6(C5N2)2
_symmetry_space_group_name_H-M   'P 1'
_cell_length_a   14.62709988
_cell_length_b   14.62702507
_cell_length_c   14.62708468
_cell_angle_alpha   109.47101560
_cell_angle_beta   109.47179617
_cell_angle_gamma   109.47115349
_symmetry_Int_Tables_number   1
_chemical_formula_structural   CoH6(C5N2)2
_chemical_formula_sum   'Co6 H36 C60 N24'
_cell_volume   2409.06485423
_cell_formula_units_Z   6
loop_
 _symmetry_equiv_pos_site_id
 _symmetry_equiv_pos_as_xyz
  1  'x, y, z'
loop_
 _atom_site_type_symbol
 _atom_site_label
 _atom_site_symmetry_multiplicity
 _atom_site_fract_x
 _atom_site_fract_y
 _atom_site_fract_z
 _atom_site_occupancy
 _atom_site_pbe_bader_charge
 _atom_site_pbe_bader_spin_density
 _atom_site_pbe_cm5_charge
 _atom_site_pbe_ddec_charge
 _atom_site_pbe_ddec_spin_density
 _atom_site_pbe_ddec_sum_bond_order
 _atom_site_pbe_magmom
Co  Co0  1  0.75000098  0.50000088  0.25000004  1  1.143615  2.540546  0.727123  0.705743  2.763054  2.71428  2.466
Co  Co1  1  0.25000281  0.50000143  0.75000269  1  1.143638  2.540545  0.726888  0.705657  2.763059  2.714407  2.466
Co  Co2  1  0.49999706  0.24999910  0.74999772  1  1.143608  2.540526  0.726939  0.705506  2.763034  2.714603  2.466
Co  Co3  1  0.25000216  0.75000094  0.49999798  1  1.143643  2.540549  0.726856  0.705642  2.763067  2.714259  2.466
Co  Co4  1  0.74999795  0.24999686  0.50000066  1  1.143628  2.540562  0.726836  0.705647  2.763074  2.714317  2.466
Co  Co5  1  0.49999796  0.74999695  0.24999750  1  1.143628  2.540534  0.726975  0.705575  2.763043  2.71459  2.466
H  H6  1  0.88124707  0.64797525  0.64797541  1  0.176968  -2.9e-05  0.138573  0.216009  -0.000115  0.997557  0.0
H  H7  1  0.76672953  0.76672404  0.11874737  1  0.178253  -3e-05  0.138577  0.215953  -0.000115  0.997512  0.0
H  H8  1  0.35202031  0.23327510  0.00000494  1  0.163976  -2.7e-05  0.13857  0.215988  -0.000115  0.99741  0.0
H  H9  1  0.11874704  0.76672253  0.76672435  1  0.17822  -3e-05  0.138589  0.216015  -0.000115  0.997467  0.0
H  H10  1  0.23327103  0.99999828  0.35201893  1  0.164026  -2.7e-05  0.138568  0.215941  -0.000115  0.997648  0.0
H  H11  1  0.35202116  0.00000187  0.23327294  1  0.163978  -2.7e-05  0.138573  0.215996  -0.000115  0.997449  0.0
H  H12  1  0.00000329  0.23327789  0.35202597  1  0.16401  -2.6e-05  0.138608  0.216045  -0.000115  0.997455  0.0
H  H13  1  0.23326927  0.35202207  0.99999819  1  0.16406  -2.7e-05  0.138603  0.216053  -0.000115  0.997419  0.0
H  H14  1  0.99999795  0.35202341  0.23327085  1  0.163988  -2.6e-05  0.138583  0.216019  -0.000115  0.997525  0.0
H  H15  1  0.64797674  0.64797586  0.88124967  1  0.176966  -2.9e-05  0.13858  0.216035  -0.000115  0.997498  0.0
H  H16  1  0.76672810  0.11874983  0.76672634  1  0.178045  -3e-05  0.138601  0.215991  -0.000115  0.997619  0.0
H  H17  1  0.64798081  0.88125068  0.64798131  1  0.176943  -2.9e-05  0.138561  0.216001  -0.000115  0.997438  0.0
H  H18  1  0.65284789  0.23704784  0.12044767  1  0.100276  0.002085  0.11258  0.104181  0.000648  1.019969  0.001
H  H19  1  0.58420477  0.46760175  0.34715097  1  0.088092  0.002112  0.112592  0.104177  0.000648  1.019994  0.001
H  H20  1  0.87954772  0.53239623  0.11659951  1  0.100203  0.002113  0.11258  0.10419  0.000648  1.020045  0.001
H  H21  1  0.34715336  0.46760262  0.58420606  1  0.088288  0.002112  0.112601  0.104189  0.000648  1.019991  0.001
H  H22  1  0.53240193  0.11660397  0.87955003  1  0.09977  0.002113  0.112618  0.10423  0.000648  1.01999  0.001
H  H23  1  0.41580635  0.88340423  0.76295371  1  0.085182  0.002107  0.112607  0.104233  0.000648  1.019987  0.001
H  H24  1  0.87955223  0.11659762  0.53239517  1  0.100469  0.002112  0.112586  0.104221  0.000648  1.020031  0.001
H  H25  1  0.76294978  0.88339519  0.41579408  1  0.084338  0.002116  0.112595  0.104161  0.000649  1.019943  0.001
H  H26  1  0.46760432  0.58420264  0.34715294  1  0.088086  0.002112  0.112591  0.104212  0.000648  1.020004  0.001
H  H27  1  0.88340243  0.41579687  0.76295128  1  0.084382  0.002115  0.112585  0.104208  0.000648  1.020055  0.001
H  H28  1  0.34715569  0.58420264  0.46760589  1  0.08736  0.002118  0.112587  0.104199  0.000648  1.019982  0.001
H  H29  1  0.76294362  0.41579338  0.88339740  1  0.085257  0.002108  0.112615  0.104217  0.000648  1.020001  0.001
H  H30  1  0.53240425  0.87955490  0.11660587  1  0.099944  0.002114  0.112574  0.104215  0.000649  1.019936  0.001
H  H31  1  0.11660203  0.87955459  0.53239891  1  0.100303  0.002113  0.112606  0.104201  0.000648  1.019953  0.001
H  H32  1  0.65284532  0.12044758  0.23704831  1  0.100297  0.002084  0.112612  0.104214  0.000648  1.019992  0.001
H  H33  1  0.23704755  0.12044668  0.65284980  1  0.10026  0.002084  0.112589  0.104196  0.000648  1.020001  0.001
H  H34  1  0.46760196  0.34715496  0.58420269  1  0.087558  0.002118  0.112605  0.104188  0.000648  1.019943  0.001
H  H35  1  0.58420213  0.34715566  0.46760367  1  0.087332  0.002118  0.112596  0.104185  0.000648  1.01993  0.001
H  H36  1  0.12044803  0.65284575  0.23704700  1  0.100303  0.002084  0.112589  0.104196  0.000648  1.02001  0.001
H  H37  1  0.23704832  0.65284406  0.12044612  1  0.100298  0.002085  0.112572  0.10415  0.000648  1.019986  0.001
H  H38  1  0.88340024  0.76295274  0.41580005  1  0.085125  0.002108  0.112601  0.104206  0.000648  1.019924  0.001
H  H39  1  0.41580344  0.76295535  0.88340126  1  0.084339  0.002115  0.112579  0.104186  0.000648  1.019969  0.001
H  H40  1  0.12044714  0.23704762  0.65284963  1  0.100269  0.002084  0.112575  0.104193  0.000648  1.020043  0.001
H  H41  1  0.11660143  0.53239676  0.87955283  1  0.10018  0.002113  0.112598  0.104202  0.000648  1.020005  0.001
C  C42  1  0.68231912  0.26668914  0.20882681  1  0.300897  0.009972  -0.010031  -0.042482  0.005917  4.030528  0.008
C  C43  1  0.58437334  0.52651011  0.31768033  1  0.461739  0.009616  -0.010093  -0.042535  0.005919  4.030628  0.008
C  C44  1  0.79116635  0.47348868  0.05786121  1  0.306364  0.009916  -0.010069  -0.042519  0.005919  4.030759  0.008
C  C45  1  0.31768091  0.52650945  0.58437392  1  0.461459  0.009616  -0.01009  -0.042535  0.005918  4.030677  0.008
C  C46  1  0.47349865  0.05786829  0.79117403  1  0.307098  0.009916  -0.010193  -0.042704  0.00592  4.030707  0.008
C  C47  1  0.41563580  0.94213758  0.73331012  1  0.459451  0.009675  -0.010083  -0.042608  0.00592  4.03066  0.008
C  C48  1  0.79117217  0.05785885  0.47348885  1  0.305753  0.009918  -0.010088  -0.04269  0.00592  4.030596  0.008
C  C49  1  0.73330724  0.94213529  0.41562602  1  0.460094  0.009671  -0.010092  -0.042524  0.005918  4.030684  0.008
C  C50  1  0.52651155  0.58437191  0.31768049  1  0.318679  0.009915  -0.010092  -0.042663  0.005919  4.030694  0.008
C  C51  1  0.94213929  0.41562914  0.73331143  1  0.459792  0.009673  -0.010102  -0.0426  0.005918  4.030644  0.008
C  C52  1  0.31768196  0.58437018  0.52651220  1  0.318645  0.009914  -0.010023  -0.042465  0.005917  4.030517  0.008
C  C53  1  0.73330270  0.41562628  0.94213691  1  0.4599  0.009671  -0.010195  -0.042712  0.005919  4.030909  0.008
C  C54  1  0.47349460  0.79117297  0.05786400  1  0.306368  0.009917  -0.010128  -0.042691  0.00592  4.030713  0.008
C  C55  1  0.05786405  0.79117518  0.47349106  1  0.306041  0.009916  -0.010071  -0.042508  0.005918  4.030498  0.008
C  C56  1  0.68231571  0.20882522  0.26668793  1  0.444002  0.009675  -0.010061  -0.042487  0.005918  4.03049  0.008
C  C57  1  0.26668790  0.20882347  0.68232235  1  0.300907  0.009976  -0.010076  -0.0426  0.00592  4.030503  0.008
C  C58  1  0.52651112  0.31768376  0.58437287  1  0.461455  0.009617  -0.010077  -0.042573  0.005919  4.030559  0.008
C  C59  1  0.58437173  0.31768298  0.52651293  1  0.318635  0.009914  -0.010042  -0.042481  0.005918  4.03049  0.008
C  C60  1  0.20882760  0.68231738  0.26668735  1  0.300868  0.009974  -0.010076  -0.042676  0.00592  4.030453  0.008
C  C61  1  0.26669088  0.68231675  0.20882664  1  0.444001  0.009675  -0.010045  -0.042535  0.005919  4.030567  0.008
C  C62  1  0.94213990  0.73331205  0.41563033  1  0.459883  0.009672  -0.010066  -0.042549  0.005918  4.030446  0.008
C  C63  1  0.41563463  0.73331340  0.94213933  1  0.459864  0.009673  -0.010027  -0.042557  0.005919  4.030543  0.008
C  C64  1  0.20882431  0.26668932  0.68232437  1  0.443988  0.009676  -0.010096  -0.04262  0.00592  4.030691  0.008
C  C65  1  0.05786491  0.47349207  0.79117498  1  0.306177  0.009915  -0.010062  -0.042498  0.005918  4.030544  0.008
C  C66  1  0.75488056  0.38534803  0.38534918  1  1.045777  0.010522  0.198458  0.318034  0.006949  4.112121  0.009
C  C67  1  0.63046952  0.63046975  0.24511757  1  1.033977  0.010503  0.198405  0.317907  0.006952  4.112255  0.009
C  C68  1  0.61464411  0.36952939  0.99999841  1  1.071349  0.010455  0.19841  0.317902  0.00695  4.112431  0.009
C  C69  1  0.24511439  0.63046482  0.63046399  1  1.03371  0.010504  0.198376  0.317962  0.00695  4.112101  0.009
C  C70  1  0.36953335  0.00000047  0.61464724  1  1.071273  0.010458  0.198387  0.317973  0.006951  4.112086  0.009
C  C71  1  0.61464648  0.99999560  0.36953262  1  1.071349  0.010458  0.198382  0.317828  0.006952  4.112146  0.009
C  C72  1  0.00000190  0.36953736  0.61465112  1  1.071659  0.010453  0.198372  0.317967  0.006949  4.112116  0.009
C  C73  1  0.36953619  0.61465542  0.00000042  1  1.071736  0.010458  0.198507  0.317965  0.006952  4.111981  0.009
C  C74  1  0.00000070  0.61465230  0.36953356  1  1.071717  0.010455  0.19848  0.317974  0.006951  4.112106  0.009
C  C75  1  0.38534963  0.38534864  0.75488428  1  1.045951  0.010521  0.198454  0.317914  0.006951  4.112029  0.009
C  C76  1  0.63046492  0.24511662  0.63046870  1  1.033465  0.010508  0.198429  0.317929  0.006952  4.11219  0.009
C  C77  1  0.38534921  0.75487999  0.38534558  1  1.045732  0.010525  0.198462  0.317805  0.006952  4.112351  0.009
C  C78  1  0.80373951  0.48567148  0.48567126  1  -0.127036  0.002928  -0.037127  -0.050989  0.001115  4.187899  0.0
C  C79  1  0.68193356  0.68193236  0.19625942  1  -0.454284  0.003167  -0.037147  -0.051062  0.001118  4.188041  0.0
C  C80  1  0.51432737  0.31807099  0.00000042  1  -0.068211  0.002872  -0.03713  -0.050978  0.001116  4.188186  0.0
C  C81  1  0.19625503  0.68192850  0.68192834  1  -0.453746  0.003163  -0.037145  -0.050945  0.001116  4.18776  0.0
C  C82  1  0.31806615  0.99999967  0.51432703  1  -0.068297  0.002872  -0.037152  -0.051136  0.001116  4.188094  0.0
C  C83  1  0.51432469  0.99999602  0.31806769  1  -0.068393  0.002871  -0.037075  -0.050879  0.001115  4.188067  0.0
C  C84  1  0.00000203  0.31807260  0.51432920  1  -0.068533  0.002871  -0.037066  -0.050876  0.001115  4.187817  0.0
C  C85  1  0.31806845  0.51432883  0.99999706  1  -0.068672  0.002873  -0.037053  -0.050861  0.001117  4.187985  0.0
C  C86  1  0.99999938  0.51432961  0.31806819  1  -0.068662  0.00287  -0.037112  -0.050941  0.001115  4.187837  0.0
C  C87  1  0.48567012  0.48566937  0.80373719  1  -0.127247  0.002931  -0.037096  -0.050911  0.001116  4.18779  0.0
C  C88  1  0.68192810  0.19625712  0.68193134  1  -0.454305  0.003166  -0.037145  -0.051058  0.001117  4.188005  0.0
C  C89  1  0.48567230  0.80374068  0.48567022  1  -0.126927  0.00293  -0.037098  -0.050934  0.001116  4.188043  0.0
C  C90  1  0.84422376  0.57186624  0.57186582  1  -0.212721  0.005717  -0.130114  -0.279407  0.002901  3.716537  0.003
C  C91  1  0.72764074  0.72763904  0.15577192  1  0.133843  0.005434  -0.130063  -0.279285  0.002899  3.716522  0.003
C  C92  1  0.42813457  0.27236538  0.00000306  1  -0.269307  0.005764  -0.130096  -0.279391  0.0029  3.716499  0.003
C  C93  1  0.15576835  0.72763598  0.72763611  1  0.133198  0.005436  -0.130067  -0.279424  0.0029  3.716453  0.003
C  C94  1  0.27235937  0.99999923  0.42813027  1  -0.269202  0.005766  -0.130053  -0.279227  0.002901  3.716593  0.003
C  C95  1  0.42813379  0.99999929  0.27236166  1  -0.264715  0.00576  -0.130131  -0.279452  0.002901  3.716605  0.003
C  C96  1  0.00000232  0.27236375  0.42813569  1  -0.268985  0.005766  -0.130169  -0.279503  0.002901  3.716514  0.003
C  C97  1  0.27235925  0.42813765  0.99999745  1  -0.264506  0.005761  -0.1302  -0.279551  0.002901  3.716775  0.003
C  C98  1  0.99999786  0.42813256  0.27235643  1  -0.264519  0.005762  -0.130134  -0.279462  0.002902  3.716492  0.003
C  C99  1  0.57186586  0.57186627  0.84422624  1  -0.212516  0.005717  -0.130138  -0.279493  0.002901  3.716442  0.003
C  C100  1  0.72763966  0.15577231  0.72764111  1  0.134158  0.005435  -0.130078  -0.279315  0.0029  3.716573  0.003
C  C101  1  0.57186449  0.84422537  0.57186473  1  -0.212741  0.005716  -0.130124  -0.279435  0.0029  3.71662  0.003
N  N102  1  0.72769661  0.37768750  0.28347182  1  -1.199933  0.09347  -0.36923  -0.340024  0.047246  3.610335  0.058
N  N103  1  0.64999474  0.55577728  0.27230287  1  -1.208881  0.093407  -0.369148  -0.339818  0.047245  3.610204  0.058
N  N104  1  0.71652274  0.44422137  0.09421633  1  -1.21789  0.093418  -0.369185  -0.339848  0.047244  3.610405  0.058
N  N105  1  0.27230170  0.55577548  0.64999225  1  -1.20864  0.093403  -0.369174  -0.33999  0.047248  3.610475  0.058
N  N106  1  0.44422492  0.09421794  0.71652588  1  -1.217912  0.093423  -0.369083  -0.33969  0.047244  3.610327  0.058
N  N107  1  0.35001086  0.90578263  0.62230989  1  -1.206044  0.093388  -0.369107  -0.339811  0.047243  3.610251  0.058
N  N108  1  0.71652609  0.09421478  0.44422327  1  -1.217807  0.093419  -0.369014  -0.339544  0.047235  3.610017  0.058
N  N109  1  0.62230985  0.90577980  0.35000707  1  -1.206256  0.093387  -0.369169  -0.339868  0.047249  3.610436  0.058
N  N110  1  0.55577851  0.64999454  0.27230418  1  -1.20888  0.09341  -0.369074  -0.33965  0.047242  3.610466  0.058
N  N111  1  0.90578528  0.35000928  0.62231125  1  -1.206196  0.093385  -0.369146  -0.339944  0.047246  3.610308  0.058
N  N112  1  0.27230318  0.64999089  0.55577547  1  -1.208568  0.093402  -0.369201  -0.340058  0.047249  3.610286  0.058
N  N113  1  0.62230413  0.35000317  0.90578057  1  -1.206299  0.093391  -0.369113  -0.339782  0.047249  3.610628  0.058
N  N114  1  0.44422524  0.71652838  0.09421789  1  -1.218033  0.093419  -0.369156  -0.33978  0.047241  3.610468  0.058
N  N115  1  0.09421807  0.71652978  0.44422227  1  -1.217942  0.093417  -0.369246  -0.33998  0.047247  3.610297  0.058
N  N116  1  0.72769244  0.28347108  0.37768820  1  -1.199795  0.093467  -0.369249  -0.340094  0.047249  3.61038  0.058
N  N117  1  0.37768731  0.28347115  0.72769801  1  -1.199956  0.093475  -0.369004  -0.339497  0.047237  3.610004  0.058
N  N118  1  0.55577509  0.27230479  0.64999486  1  -1.2086  0.093403  -0.369181  -0.339822  0.047245  3.610252  0.058
N  N119  1  0.64999216  0.27230398  0.55577842  1  -1.208567  0.093399  -0.369116  -0.339818  0.047238  3.610267  0.058
N  N120  1  0.28347443  0.72769499  0.37768774  1  -1.199923  0.093473  -0.369035  -0.339476  0.04723  3.609972  0.058
N  N121  1  0.37768991  0.72769344  0.28347159  1  -1.199909  0.093469  -0.369127  -0.339686  0.047242  3.610371  0.058
N  N122  1  0.90578407  0.62231245  0.35000960  1  -1.206322  0.093386  -0.369176  -0.339823  0.047241  3.610442  0.058
N  N123  1  0.35001050  0.62231323  0.90578342  1  -1.206337  0.093389  -0.36906  -0.339595  0.047235  3.610093  0.058
N  N124  1  0.28347261  0.37768825  0.72770000  1  -1.199925  0.093472  -0.369066  -0.339773  0.04724  3.610303  0.058
N  N125  1  0.09421829  0.44422646  0.71652915  1  -1.217913  0.09342  -0.369216  -0.340025  0.04725  3.610389  0.058
