# generated using pymatgen
data_BiH13C19N6O5
_symmetry_space_group_name_H-M   'P 1'
_cell_length_a   9.89702966
_cell_length_b   10.14419940
_cell_length_c   10.65944420
_cell_angle_alpha   105.43746540
_cell_angle_beta   95.53569278
_cell_angle_gamma   106.17535104
_symmetry_Int_Tables_number   1
_chemical_formula_structural   BiH13C19N6O5
_chemical_formula_sum   'Bi2 H26 C38 N12 O10'
_cell_volume   973.76282101
_cell_formula_units_Z   2
loop_
 _symmetry_equiv_pos_site_id
 _symmetry_equiv_pos_as_xyz
  1  'x, y, z'
loop_
 _atom_site_type_symbol
 _atom_site_label
 _atom_site_symmetry_multiplicity
 _atom_site_fract_x
 _atom_site_fract_y
 _atom_site_fract_z
 _atom_site_occupancy
 _atom_site_hle17_bader_spin_density
 _atom_site_hle17_ddec_charge
 _atom_site_hle17_ddec_spin_density
 _atom_site_hle17_ddec_sum_bond_order
 _atom_site_hle17_magmom
 _atom_site_hse06_10hf_bader_spin_density
 _atom_site_hse06_10hf_ddec_charge
 _atom_site_hse06_10hf_ddec_spin_density
 _atom_site_hse06_10hf_ddec_sum_bond_order
 _atom_site_hse06_10hf_magmom
 _atom_site_hse06_bader_spin_density
 _atom_site_hse06_ddec_charge
 _atom_site_hse06_ddec_spin_density
 _atom_site_hse06_ddec_sum_bond_order
 _atom_site_hse06_magmom
 _atom_site_pbe_bader_spin_density
 _atom_site_pbe_cm5_charge
 _atom_site_pbe_ddec_charge
 _atom_site_pbe_ddec_spin_density
 _atom_site_pbe_ddec_sum_bond_order
 _atom_site_pbe_magmom
Bi  Bi0  1  0.07836330  0.36266213  0.08521508  1  0  1.578345  0  2.243297  0  0  1.357984  0  2.723085  0  0  1.432574  0  2.680215  0  0  0.881469  1.306541  0  2.752014  0
Bi  Bi1  1  0.92163686  0.63734515  0.91478185  1  0  1.578408  0  2.243247  0  0  1.358011  0  2.723027  0  0  1.432596  0  2.680157  0  0  0.881495  1.306565  0  2.751952  0
H  H2  1  0.87525589  0.73985896  0.57016612  1  0  0.118739  0  0.959176  0  0  0.129875  0  1.017405  0  0  0.133289  0  1.014108  0  0  0.112967  0.127226  0  1.020071  0
H  H3  1  0.12474971  0.26013626  0.42984212  1  0  0.118809  0  0.959094  0  0  0.129987  0  1.017257  0  0  0.133404  0  1.013954  0  0  0.112983  0.127339  0  1.019922  0
H  H4  1  0.66081860  0.52774191  0.54078093  1  0  0.110179  0  0.940672  0  0  0.121626  0  0.999494  0  0  0.124604  0  0.998557  0  0  0.107203  0.119291  0  1.000558  0
H  H5  1  0.33918496  0.47225335  0.45922434  1  0  0.110221  0  0.94063  0  0  0.121678  0  0.99943  0  0  0.124657  0  0.998491  0  0  0.107225  0.119344  0  1.000496  0
H  H6  1  0.35916564  0.56328717  0.95555391  1  0  0.091404  0  0.935411  0  0  0.094909  0  1.007258  0  0  0.098024  0  1.004467  0  0  0.118271  0.092149  0  1.010143  0
H  H7  1  0.64082844  0.43670711  0.04444373  1  0  0.091422  0  0.935296  0  0  0.094889  0  1.007189  0  0  0.09802  0  1.004351  0  0  0.118269  0.092133  0  1.010063  0
H  H8  1  0.23818477  0.08091775  0.63380759  1  0  0.114155  0  0.940921  0  0  0.123935  0  0.998415  0  0  0.127816  0  0.996521  0  0  0.11252  0.121691  0  0.998898  0
H  H9  1  0.76181607  0.91907871  0.36618933  1  0  0.114211  0  0.940948  0  0  0.123986  0  0.998441  0  0  0.127867  0  0.996547  0  0  0.112535  0.121739  0  0.998925  0
H  H10  1  0.82238134  0.03534512  0.00771111  1  0  0.092835  0  0.951068  0  0  0.098021  0  1.019375  0  0  0.101617  0  1.015481  0  0  0.119165  0.095183  0  1.022211  0
H  H11  1  0.17761748  0.96465455  0.99228837  1  0  0.092835  0  0.951069  0  0  0.098015  0  1.019373  0  0  0.101626  0  1.015456  0  0  0.119145  0.095174  0  1.022213  0
H  H12  1  0.47548804  0.26841239  0.64719219  1  0  0.103213  0  0.93307  0  0  0.113692  0  0.99282  0  0  0.116859  0  0.990213  0  0  0.111404  0.111277  0  0.995107  0
H  H13  1  0.52450772  0.73158408  0.35280336  1  0  0.103272  0  0.933043  0  0  0.113749  0  0.99278  0  0  0.116915  0  0.990173  0  0  0.111429  0.111338  0  0.99507  0
H  H14  1  0.10884867  0.84339896  0.50783885  1  0  0.111078  0  0.943893  0  0  0.121334  0  1.002378  0  0  0.124997  0  1.000731  0  0  0.109972  0.119375  0  1.002494  0
H  H15  1  0.89115388  0.15659630  0.49216633  1  0  0.111069  0  0.943763  0  0  0.121297  0  1.002282  0  0  0.124961  0  1.000634  0  0  0.109949  0.119335  0  1.002399  0
H  H16  1  0.11126253  0.12774557  0.22725323  1  0  0.430731  0  0.869042  0  0  0.39355  0  0.942409  0  0  0.406733  0  0.923235  0  0  0.286626  0.383696  0  0.956847  0
H  H17  1  0.88874271  0.87226167  0.77274693  1  0  0.430687  0  0.86911  0  0  0.393477  0  0.942526  0  0  0.40666  0  0.923352  0  0  0.28657  0.383619  0  0.956969  0
H  H18  1  0.25889101  0.22596960  0.18817216  1  0  0.417327  0  0.88004  0  0  0.386662  0  0.944289  0  0  0.398447  0  0.927159  0  0  0.290499  0.378221  0  0.956486  0
H  H19  1  0.74110917  0.77403756  0.81183317  1  0  0.417322  0  0.879956  0  0  0.386645  0  0.944293  0  0  0.398432  0  0.92716  0  0  0.290498  0.378206  0  0.956487  0
H  H20  1  0.19321924  0.68398622  0.32909048  1  0  0.081644  0  0.95601  0  0  0.088963  0  1.022644  0  0  0.091032  0  1.020541  0  0  0.118788  0.087204  0  1.024467  0
H  H21  1  0.80678296  0.31601447  0.67091330  1  0  0.081639  0  0.955969  0  0  0.088935  0  1.022642  0  0  0.090992  0  1.02056  0  0  0.118769  0.08718  0  1.024453  0
H  H22  1  0.51661401  0.27358614  0.41626157  1  0  0.096782  0  0.935712  0  0  0.112418  0  0.988245  0  0  0.114979  0  0.987471  0  0  0.107576  0.110516  0  0.988906  0
H  H23  1  0.48338581  0.72641356  0.58373612  1  0  0.096779  0  0.935719  0  0  0.112425  0  0.988248  0  0  0.114985  0  0.987475  0  0  0.107585  0.110521  0  0.988909  0
H  H24  1  0.48798644  0.04361209  0.23858202  1  0  0.105588  0  0.961066  0  0  0.115361  0  1.023649  0  0  0.118386  0  1.020485  0  0  0.108567  0.113209  0  1.025809  0
H  H25  1  0.51200762  0.95639523  0.76141158  1  0  0.105689  0  0.96101  0  0  0.11544  0  1.023621  0  0  0.118463  0  1.02046  0  0  0.108592  0.113284  0  1.025778  0
H  H26  1  0.58635180  0.90798458  0.05836807  1  0  0.118631  0  0.942676  0  0  0.126081  0  1.004511  0  0  0.129326  0  1.004262  0  0  0.109337  0.123546  0  1.005285  0
H  H27  1  0.41364057  0.09201735  0.94162396  1  0  0.11867  0  0.942727  0  0  0.126147  0  1.004529  0  0  0.129389  0  1.004275  0  0  0.109357  0.123617  0  1.005298  0
C  C28  1  0.91334399  0.67548316  0.49113438  1  0  -0.027883  0  3.645115  0  0  -0.055134  0  3.896623  0  0  -0.051241  0  3.912949  0  0  -0.058553  -0.05797  0  3.886377  0
C  C29  1  0.08665483  0.32450994  0.50886991  1  0  -0.027949  0  3.645081  0  0  -0.05519  0  3.896556  0  0  -0.051301  0  3.912885  0  0  -0.058537  -0.058025  0  3.886312  0
C  C30  1  0.69662905  0.46448179  0.45880503  1  0  -0.096299  0  3.735367  0  0  -0.120709  0  3.995813  0  0  -0.123508  0  4.018939  0  0  -0.083037  -0.119138  0  3.980549  0
C  C31  1  0.30337451  0.53551998  0.54119916  1  0  -0.096371  0  3.735376  0  0  -0.120771  0  3.995875  0  0  -0.123573  0  4.019003  0  0  -0.08304  -0.119204  0  3.980613  0
C  C32  1  0.88353162  0.45022605  0.32256739  1  0  0.130164  0  3.760895  0  0  0.120337  0  4.003857  0  0  0.125694  0  4.026093  0  0  0.118803  0.117364  0  3.988876  0
C  C33  1  0.11646787  0.54977254  0.67743186  1  0  0.130106  0  3.760763  0  0  0.120355  0  4.003655  0  0  0.125712  0  4.025886  0  0  0.118785  0.117384  0  3.988673  0
C  C34  1  0.33706100  0.45685393  0.88442458  1  0  0.129106  0  3.674548  0  0  0.08458  0  3.940014  0  0  0.092862  0  3.956466  0  0  0.054116  0.078913  0  3.930209  0
C  C35  1  0.66293782  0.54313920  0.11557784  1  0  0.129062  0  3.674477  0  0  0.084583  0  3.939958  0  0  0.092869  0  3.956421  0  0  0.05405  0.078916  0  3.930149  0
C  C36  1  0.05405838  0.10742977  0.80748807  1  0  0.608083  0  3.935569  0  0  0.554448  0  4.241948  0  0  0.588251  0  4.234198  0  0  0.21006  0.531888  0  4.245545  0
C  C37  1  0.94594485  0.89256438  0.19251875  1  0  0.607683  0  3.935843  0  0  0.554095  0  4.242181  0  0  0.587871  0  4.234477  0  0  0.209908  0.531543  0  4.245766  0
C  C38  1  0.27122297  0.18861956  0.70456219  1  0  -0.107883  0  3.707591  0  0  -0.126772  0  3.957244  0  0  -0.132461  0  3.977681  0  0  -0.072398  -0.123266  0  3.943916  0
C  C39  1  0.72877415  0.81137467  0.29543851  1  0  -0.107971  0  3.707717  0  0  -0.126874  0  3.957384  0  0  -0.132562  0  3.977818  0  0  -0.072439  -0.123364  0  3.944054  0
C  C40  1  0.83018137  0.53087286  0.42527900  1  0  0.024391  0  3.784027  0  0  0.039538  0  4.019293  0  0  0.036136  0  4.044299  0  0  -0.000874  0.042093  0  4.002109  0
C  C41  1  0.16982118  0.46912246  0.57472244  1  0  0.024413  0  3.783767  0  0  0.039461  0  4.019138  0  0  0.036059  0  4.044147  0  0  -0.000906  0.042018  0  4.001958  0
C  C42  1  0.77575023  0.08982545  0.08632019  1  0  0.15412  0  3.667677  0  0  0.117096  0  3.928182  0  0  0.125942  0  3.94465  0  0  0.058118  0.112088  0  3.916052  0
C  C43  1  0.22425061  0.91018072  0.91367838  1  0  0.154144  0  3.667517  0  0  0.117137  0  3.927994  0  0  0.125975  0  3.944455  0  0  0.058167  0.112131  0  3.915868  0
C  C44  1  0.39957543  0.29259588  0.71022788  1  0  -0.005835  0  3.679828  0  0  -0.034699  0  3.930498  0  0  -0.030343  0  3.946981  0  0  -0.058261  -0.037752  0  3.920328  0
C  C45  1  0.60042238  0.70739726  0.28977352  1  0  -0.005871  0  3.679874  0  0  -0.034696  0  3.930531  0  0  -0.030341  0  3.947012  0  0  -0.058225  -0.037755  0  3.920366  0
C  C46  1  0.04355505  0.73225837  0.45720200  1  0  -0.109133  0  3.717931  0  0  -0.124633  0  3.978971  0  0  -0.132037  0  3.999177  0  0  -0.081688  -0.120695  0  3.965417  0
C  C47  1  0.95644920  0.26773901  0.54280670  1  0  -0.109089  0  3.717863  0  0  -0.124558  0  3.978892  0  0  -0.13196  0  3.999096  0  0  -0.081672  -0.120619  0  3.965338  0
C  C48  1  0.80067528  0.30255615  0.25123888  1  0  0.130356  0  3.744775  0  0  0.121424  0  3.985186  0  0  0.126005  0  4.006999  0  0  0.120234  0.118063  0  3.971685  0
C  C49  1  0.19932285  0.69744463  0.74875802  1  0  0.130365  0  3.744955  0  0  0.121343  0  3.985314  0  0  0.125924  0  4.007122  0  0  0.120195  0.117982  0  3.971812  0
C  C50  1  0.43343487  0.43049325  0.80094918  1  0  -0.093726  0  3.715269  0  0  -0.070896  0  3.958277  0  0  -0.080703  0  3.979422  0  0  -0.009058  -0.064783  0  3.9445  0
C  C51  1  0.56656089  0.56950322  0.19904637  1  0  -0.093794  0  3.715252  0  0  -0.071011  0  3.958287  0  0  -0.080816  0  3.979428  0  0  -0.009059  -0.064899  0  3.944511  0
C  C52  1  0.18536654  0.22143763  0.79732500  1  0  0.103934  0  3.743704  0  0  0.103395  0  3.989686  0  0  0.106206  0  4.008831  0  0  0.116313  0.102086  0  3.977058  0
C  C53  1  0.81463058  0.77855985  0.20267562  1  0  0.104042  0  3.743681  0  0  0.103477  0  3.989694  0  0  0.106296  0  4.008845  0  0  0.116314  0.102164  0  3.977062  0
C  C54  1  0.08976939  0.64441036  0.35661785  1  0  0.146452  0  3.69708  0  0  0.109662  0  3.957265  0  0  0.119232  0  3.974712  0  0  0.05658  0.103471  0  3.945922  0
C  C55  1  0.91023485  0.35559357  0.64338697  1  0  0.146445  0  3.697155  0  0  0.109648  0  3.957341  0  0  0.119218  0  3.974793  0  0  0.056595  0.103454  0  3.945991  0
C  C56  1  0.61887768  0.32452687  0.39173389  1  0  -0.091712  0  3.745502  0  0  -0.115316  0  4.000549  0  0  -0.118711  0  4.023607  0  0  -0.081027  -0.11278  0  3.985745  0
C  C57  1  0.38112384  0.67547494  0.60826732  1  0  -0.09163  0  3.745567  0  0  -0.115313  0  4.000576  0  0  -0.118709  0  4.023634  0  0  -0.081051  -0.112774  0  3.985767  0
C  C58  1  0.57491150  0.54456812  0.81756507  1  0  0.63669  0  3.945592  0  0  0.58409  0  4.247314  0  0  0.618459  0  4.241344  0  0  0.204319  0.561209  0  4.249831  0
C  C59  1  0.42508798  0.45542732  0.18242770  1  0  0.636815  0  3.945355  0  0  0.584257  0  4.24704  0  0  0.618624  0  4.241069  0  0  0.204395  0.561378  0  4.249556  0
C  C60  1  0.66826672  0.24040326  0.28665157  1  0  0.033542  0  3.789962  0  0  0.050358  0  4.021725  0  0  0.048391  0  4.045601  0  0  0.001216  0.05025  0  4.007392  0
C  C61  1  0.33173006  0.75959643  0.71334586  1  0  0.033447  0  3.790048  0  0  0.050472  0  4.021542  0  0  0.04851  0  4.04541  0  0  0.001243  0.050363  0  4.007209  0
C  C62  1  0.59039699  0.09555439  0.21526425  1  0  -0.037168  0  3.669565  0  0  -0.061725  0  3.912881  0  0  -0.059204  0  3.9306  0  0  -0.058425  -0.063511  0  3.901287  0
C  C63  1  0.40960045  0.90445080  0.78472720  1  0  -0.03722  0  3.669329  0  0  -0.061835  0  3.912626  0  0  -0.059311  0  3.930336  0  0  -0.058442  -0.063621  0  3.901037  0
C  C64  1  0.64410598  0.01986699  0.11528987  1  0  -0.112956  0  3.718629  0  0  -0.125052  0  3.975972  0  0  -0.133156  0  3.999313  0  0  -0.078075  -0.119707  0  3.960539  0
C  C65  1  0.35589080  0.98013595  0.88470749  1  0  -0.112977  0  3.718651  0  0  -0.125111  0  3.976024  0  0  -0.133207  0  3.999358  0  0  -0.078094  -0.119771  0  3.96059  0
N  N66  1  0.85134897  0.22642802  0.15231367  1  0  -0.34802  0  3.218183  0  0  -0.276592  0  3.46409  0  0  -0.296999  0  3.487349  0  0  -0.294351  -0.262461  0  3.447793  0
N  N67  1  0.14865458  0.77357384  0.84768491  1  0  -0.348092  0  3.218057  0  0  -0.276652  0  3.463942  0  0  -0.297065  0  3.487221  0  0  -0.294376  -0.262518  0  3.44764  0
N  N68  1  0.21911040  0.35323596  0.88578488  1  0  -0.35123  0  3.241914  0  0  -0.287766  0  3.497129  0  0  -0.306137  0  3.519331  0  0  -0.298351  -0.276595  0  3.483369  0
N  N69  1  0.78088334  0.64676050  0.11421143  1  0  -0.351254  0  3.241908  0  0  -0.287754  0  3.497025  0  0  -0.30613  0  3.519227  0  0  -0.298359  -0.276586  0  3.483269  0
N  N70  1  0.22809897  0.71714217  0.11278619  1  0  0.409406  0  4.227548  0  0  0.430733  0  4.528382  0  0  0.448762  0  4.555032  0  0  0.090453  0.418647  0  4.509322  0
N  N71  1  0.77191000  0.28286398  0.88721586  1  0  0.40946  0  4.227466  0  0  0.430794  0  4.528265  0  0  0.448822  0  4.554933  0  0  0.090471  0.418706  0  4.509204  0
N  N72  1  0.12723552  0.61297474  0.05124549  1  0  -0.635424  0  2.752427  0  0  -0.593043  0  3.048212  0  0  -0.623192  0  3.062326  0  0  -0.272621  -0.571132  0  3.037342  0
N  N73  1  0.87277074  0.38702928  0.94875389  1  0  -0.635393  0  2.752365  0  0  -0.593082  0  3.048261  0  0  -0.623182  0  3.062283  0  0  -0.272652  -0.571172  0  3.03739  0
N  N74  1  0.01132174  0.50854138  0.29068759  1  0  -0.361264  0  3.235235  0  0  -0.29245  0  3.491485  0  0  -0.313244  0  3.513631  0  0  -0.299257  -0.279309  0  3.476463  0
N  N75  1  0.98867438  0.49145931  0.70931568  1  0  -0.361228  0  3.235346  0  0  -0.292393  0  3.491541  0  0  -0.313182  0  3.51368  0  0  -0.299217  -0.279252  0  3.476519  0
N  N76  1  0.32568301  0.81633339  0.17289275  1  0  -0.353815  0  2.381261  0  0  -0.358983  0  2.617685  0  0  -0.362732  0  2.623023  0  0  -0.173978  -0.35564  0  2.614092  0
N  N77  1  0.67432359  0.18366518  0.82710897  1  0  -0.353864  0  2.381162  0  0  -0.359012  0  2.617564  0  0  -0.362772  0  2.622911  0  0  -0.173975  -0.355666  0  2.613969  0
O  O78  1  0.58450711  0.67583582  0.86196695  1  0  -0.623021  0  1.920713  0  0  -0.574886  0  2.140145  0  0  -0.599587  0  2.133237  0  0  -0.321602  -0.556475  0  2.143628  0
O  O79  1  0.41549135  0.32415962  0.13802574  1  0  -0.623129  0  1.920754  0  0  -0.574997  0  2.14016  0  0  -0.5997  0  2.133256  0  0  -0.321659  -0.556586  0  2.143642  0
O  O80  1  0.67719293  0.49434884  0.78733384  1  0  -0.65132  0  1.998918  0  0  -0.58804  0  2.243509  0  0  -0.619533  0  2.239443  0  0  -0.311306  -0.565976  0  2.245351  0
O  O81  1  0.32280756  0.50564992  0.21265428  1  0  -0.651274  0  1.998608  0  0  -0.588048  0  2.243247  0  0  -0.61955  0  2.239208  0  0  -0.31134  -0.565984  0  2.245092  0
O  O82  1  0.00124396  0.13512061  0.91314848  1  0  -0.636428  0  2.054933  0  0  -0.57301  0  2.302179  0  0  -0.603281  0  2.294713  0  0  -0.301317  -0.552231  0  2.306645  0
O  O83  1  0.99875757  0.86487790  0.08685655  1  0  -0.636248  0  2.055017  0  0  -0.572817  0  2.302182  0  0  -0.603075  0  2.294722  0  0  -0.301264  -0.55204  0  2.306647  0
O  O84  1  0.00585501  0.99079202  0.71462189  1  0  -0.584611  0  1.938388  0  0  -0.536891  0  2.158209  0  0  -0.560945  0  2.149802  0  0  -0.307004  -0.519518  0  2.162297  0
O  O85  1  0.99412925  0.00921301  0.28537873  1  0  -0.584412  0  1.938454  0  0  -0.53673  0  2.15825  0  0  -0.560776  0  2.149863  0  0  -0.306857  -0.519357  0  2.162331  0
O  O86  1  0.16583495  0.22274017  0.21706507  1  0  -0.849233  0  1.911895  0  0  -0.783518  0  2.09993  0  0  -0.807671  0  2.065595  0  0  -0.563406  -0.766298  0  2.124446  0
O  O87  1  0.83417235  0.77727332  0.78295194  1  0  -0.849182  0  1.911872  0  0  -0.78342  0  2.099968  0  0  -0.807573  0  2.065636  0  0  -0.563349  -0.766199  0  2.124482  0
